REMARK  Name = ZINC20208174
REMARK  10 active torsions:
REMARK  status: ('A' for Active; 'I' for Inactive)
REMARK    1  A    between atoms: C_1  and  C_2
REMARK    2  A    between atoms: C_2  and  S_3
REMARK    3  A    between atoms: S_3  and  C_6
REMARK    4  A    between atoms: C_12  and  C_13
REMARK    5  A    between atoms: C_16  and  O_21
REMARK    6  A    between atoms: C_17  and  O_19
REMARK    7  A    between atoms: O_19  and  C_20
REMARK    8  A    between atoms: O_21  and  C_22
REMARK    9  A    between atoms: C_22  and  C_24
REMARK   10  A    between atoms: C_22  and  C_25
REMARK                            x       y       z     vdW  Elec       q    Type
REMARK                         _______ _______ _______ _____ _____    ______ ____
ROOT
ATOM      1  C   UNL     1      -4.348 -10.917   2.511  0.00  0.00    +0.235 C 
ATOM      2  N   UNL     1      -4.323  -9.881   1.723  0.00  0.00    -0.145 NA
ATOM      3  N   UNL     1      -3.147  -9.442   1.154  0.00  0.00    -0.150 N 
ATOM      4  C   UNL     1      -2.995  -8.284   0.362  0.00  0.00    +0.153 C 
ATOM      5  N   UNL     1      -3.821  -7.272   0.404  0.00  0.00    -0.283 NA
ATOM      6  C   UNL     1      -1.799  -8.329  -0.527  0.00  0.00    +0.081 C 
ATOM      7  C   UNL     1      -1.794  -7.729  -1.766  0.00  0.00    +0.024 C 
ATOM      8  C   UNL     1      -0.615  -9.055  -0.005  0.00  0.00    +0.273 C 
ATOM      9  O   UNL     1       0.509  -8.788  -0.398  0.00  0.00    -0.268 OA
ATOM     10  N   UNL     1      -0.817 -10.017   0.916  0.00  0.00    -0.152 NA
ATOM     11  C   UNL     1      -2.018 -10.190   1.410  0.00  0.00    +0.182 C 
ATOM     12  S   UNL     1      -2.630 -11.413   2.539  0.00  0.00    -0.015 S 
ATOM     13  H   UNL     1      -4.620  -7.321   0.951  0.00  0.00    +0.188 HD
ENDROOT
BRANCH   7  14
ATOM     14  C   UNL     1      -3.038  -7.196  -2.328  0.00  0.00    -0.021 A 
ATOM     15  C   UNL     1      -3.014  -6.040  -3.120  0.00  0.00    +0.012 A 
ATOM     16  C   UNL     1      -4.184  -5.543  -3.646  0.00  0.00    +0.050 A 
ATOM     17  C   UNL     1      -5.391  -6.184  -3.395  0.00  0.00    +0.163 A 
ATOM     18  C   UNL     1      -5.424  -7.335  -2.607  0.00  0.00    +0.162 A 
ATOM     19  C   UNL     1      -4.256  -7.845  -2.080  0.00  0.00    +0.057 A 
BRANCH  18  20
ATOM     20  O   UNL     1      -6.609  -7.958  -2.364  0.00  0.00    -0.491 OA
ATOM     21  C   UNL     1      -6.569  -9.132  -1.550  0.00  0.00    +0.277 C 
ENDBRANCH  18  20
BRANCH  17  22
ATOM     22  O   UNL     1      -6.542  -5.687  -3.916  0.00  0.00    -0.481 OA
BRANCH  22  23
ATOM     23  C   UNL     1      -6.455  -4.441  -4.611  0.00  0.00    +0.201 C 
ATOM     24  C   UNL     1      -6.205  -4.703  -6.097  0.00  0.00    +0.057 C 
BRANCH  23  25
ATOM     25  C   UNL     1      -7.747  -3.683  -4.445  0.00  0.00    -0.008 A 
ATOM     26  C   UNL     1      -8.947  -4.366  -4.386  0.00  0.00    +0.007 A 
ATOM     27  C   UNL     1     -10.132  -3.670  -4.234  0.00  0.00    +0.000 A 
ATOM     28  C   UNL     1     -10.116  -2.291  -4.141  0.00  0.00    +0.000 A 
ATOM     29  C   UNL     1      -8.916  -1.608  -4.199  0.00  0.00    +0.000 A 
ATOM     30  C   UNL     1      -7.731  -2.304  -4.347  0.00  0.00    +0.007 A 
ENDBRANCH  23  25
ENDBRANCH  22  23
ENDBRANCH  17  22
ENDBRANCH   7  14
BRANCH   1  31
ATOM     31  S   UNL     1      -5.721 -11.641   3.344  0.00  0.00    +0.022 S 
ATOM     32  O   UNL     1      -6.701 -10.613   3.389  0.00  0.00    -0.167 OA
ATOM     33  O   UNL     1      -5.177 -12.176   4.543  0.00  0.00    -0.167 OA
BRANCH  31  35
ATOM     34  C   UNL     1      -7.474 -13.690   2.885  0.00  0.00    +0.028 C 
ATOM     35  C   UNL     1      -6.272 -12.983   2.255  0.00  0.00    +0.171 C 
ENDBRANCH  31  35
ENDBRANCH   1  31
TORSDOF 7
