REMARK  Name = ZINC64502352
REMARK  9 active torsions:
REMARK  status: ('A' for Active; 'I' for Inactive)
REMARK    1  A    between atoms: C_1  and  C_2
REMARK    2  A    between atoms: C_2  and  N_3
REMARK    3  A    between atoms: C_11  and  N_15
REMARK    4  A    between atoms: C_18  and  C_21
REMARK    5  A    between atoms: N_23  and  C_24
REMARK    6  A    between atoms: C_24  and  C_25
REMARK    7  A    between atoms: C_25  and  C_26
REMARK    8  A    between atoms: C_29  and  O_35
REMARK    9  A    between atoms: O_35  and  C_36
REMARK                            x       y       z     vdW  Elec       q    Type
REMARK                         _______ _______ _______ _____ _____    ______ ____
ROOT
ATOM      1  N   UNL     1       3.239   0.063  -3.139  0.00  0.00    +0.398 N 
ATOM      2  C   UNL     1       4.141   0.837  -2.276  0.00  0.00    -0.075 C 
ATOM      3  C   UNL     1       4.578   2.111  -3.001  0.00  0.00    -0.006 C 
ATOM      4  C   UNL     1       5.306   1.732  -4.294  0.00  0.00    +0.071 C 
ATOM      5  C   UNL     1       4.383   0.864  -5.153  0.00  0.00    -0.006 C 
ATOM      6  C   UNL     1       3.953  -0.365  -4.348  0.00  0.00    -0.075 C 
ATOM      7  H   UNL     1       2.452   0.638  -3.400  0.00  0.00    -0.078 HD
ENDROOT
BRANCH   1  16
ATOM      8  N   UNL     1       0.688  -0.476  -1.203  0.00  0.00    -0.255 N 
ATOM      9  C   UNL     1      -0.046  -0.704  -2.369  0.00  0.00    +0.148 A 
ATOM     10  C   UNL     1       0.537  -1.427  -3.414  0.00  0.00    +0.067 A 
ATOM     11  C   UNL     1      -0.186  -1.663  -4.570  0.00  0.00    +0.028 A 
ATOM     12  C   UNL     1      -1.480  -1.162  -4.647  0.00  0.00    +0.022 A 
ATOM     13  C   UNL     1      -1.993  -0.453  -3.580  0.00  0.00    +0.113 A 
ATOM     14  N   UNL     1      -1.280  -0.244  -2.488  0.00  0.00    -0.238 NA
ATOM     15  N   UNL     1       1.850  -1.892  -3.268  0.00  0.00    -0.346 N 
ATOM     16  C   UNL     1       2.761  -1.119  -2.410  0.00  0.00    +0.105 C 
ATOM     17  C   UNL     1       2.018  -0.680  -1.174  0.00  0.00    +0.224 C 
ATOM     18  O   UNL     1       2.626  -0.512  -0.139  0.00  0.00    -0.275 OA
ATOM     19  H   UNL     1       2.150  -2.697  -3.719  0.00  0.00    +0.145 HD
BRANCH   8  21
ATOM     20  C   UNL     1      -0.019   1.526   0.010  0.00  0.00    +0.025 C 
ATOM     21  C   UNL     1       0.002  -0.004   0.002  0.00  0.00    +0.112 C 
ENDBRANCH   8  21
ENDBRANCH   1  16
BRANCH   4  22
ATOM     22  C   UNL     1       5.671   2.982  -5.052  0.00  0.00    +0.216 C 
ATOM     23  O   UNL     1       5.378   4.071  -4.604  0.00  0.00    -0.276 OA
ATOM     24  N   UNL     1       6.323   2.891  -6.228  0.00  0.00    -0.315 N 
ATOM     25  H   UNL     1       6.558   2.021  -6.587  0.00  0.00    +0.149 HD
BRANCH  24  26
ATOM     26  C   UNL     1       6.678   4.107  -6.965  0.00  0.00    +0.108 C 
BRANCH  26  27
ATOM     27  C   UNL     1       7.405   3.727  -8.256  0.00  0.00    +0.052 C 
BRANCH  27  28
ATOM     28  C   UNL     1       7.770   4.977  -9.014  0.00  0.00    -0.040 C 
ATOM     29  C   UNL     1       8.950   5.636  -8.976  0.00  0.00    +0.002 A 
ATOM     30  C   UNL     1      10.200   5.398  -8.245  0.00  0.00    +0.055 A 
ATOM     31  C   UNL     1      11.241   6.249  -8.409  0.00  0.00    +0.121 A 
ATOM     32  C   UNL     1      11.171   7.365  -9.261  0.00  0.00    +0.047 A 
ATOM     33  C   UNL     1      10.065   7.667  -9.974  0.00  0.00    +0.029 A 
ATOM     34  C   UNL     1       8.878   6.812  -9.873  0.00  0.00    +0.043 A 
ATOM     35  N   UNL     1       7.701   6.877 -10.443  0.00  0.00    -0.380 N 
ATOM     36  C   UNL     1       6.892   5.745  -9.977  0.00  0.00    +0.144 C 
ATOM     37  H   UNL     1       7.413   7.558 -11.071  0.00  0.00    +0.160 HD
BRANCH  31  38
ATOM     38  O   UNL     1      12.392   6.016  -7.725  0.00  0.00    -0.495 OA
ATOM     39  C   UNL     1      13.465   6.939  -7.927  0.00  0.00    +0.277 C 
ENDBRANCH  31  38
ENDBRANCH  27  28
ENDBRANCH  26  27
ENDBRANCH  24  26
ENDBRANCH   4  22
TORSDOF 7
