REMARK  Name = ZINC05260114
REMARK  5 active torsions:
REMARK  status: ('A' for Active; 'I' for Inactive)
REMARK    1  A    between atoms: C_1  and  C_2
REMARK    2  A    between atoms: C_4  and  N_19
REMARK    3  A    between atoms: C_7  and  N_8
REMARK    4  A    between atoms: N_8  and  S_9
REMARK    5  A    between atoms: S_9  and  C_12
REMARK                            x       y       z     vdW  Elec       q    Type
REMARK                         _______ _______ _______ _____ _____    ______ ____
ROOT
ATOM      1  N   UNL     1      -0.011   0.966   0.007  0.00  0.00    -0.216 N 
ATOM      2  H   UNL     1       0.002  -0.002   0.066  0.00  0.00    +0.174 HD
ENDROOT
BRANCH   1   9
ATOM      3  C   UNL     1      -2.121  -0.064   1.613  0.00  0.00    +0.046 C 
ATOM      4  C   UNL     1      -2.287   1.181   0.781  0.00  0.00    -0.026 A 
ATOM      5  C   UNL     1      -3.489   1.862   0.787  0.00  0.00    +0.038 A 
ATOM      6  C   UNL     1      -3.643   3.002   0.020  0.00  0.00    +0.127 A 
ATOM      7  C   UNL     1      -2.594   3.467  -0.752  0.00  0.00    +0.034 A 
ATOM      8  C   UNL     1      -1.388   2.794  -0.759  0.00  0.00    +0.027 A 
ATOM      9  C   UNL     1      -1.229   1.649   0.011  0.00  0.00    +0.051 A 
BRANCH   6  10
ATOM     10  N   UNL     1      -4.934   3.725   0.024  0.00  0.00    +0.056 N 
ATOM     11  O   UNL     1      -5.072   4.729  -0.652  0.00  0.00    -0.126 OA
ATOM     12  O   UNL     1      -5.859   3.317   0.703  0.00  0.00    -0.126 OA
ENDBRANCH   6  10
ENDBRANCH   1   9
BRANCH   1  13
ATOM     13  S   UNL     1       1.410   1.808  -0.105  0.00  0.00    +0.072 S 
ATOM     14  O   UNL     1       2.458   0.861   0.049  0.00  0.00    -0.150 OA
ATOM     15  O   UNL     1       1.299   2.641  -1.251  0.00  0.00    -0.150 OA
BRANCH  13  16
ATOM     16  C   UNL     1       1.492   2.881   1.290  0.00  0.00    +0.109 A 
ATOM     17  C   UNL     1       0.972   4.160   1.211  0.00  0.00    +0.030 A 
ATOM     18  C   UNL     1       1.031   5.000   2.307  0.00  0.00    +0.017 A 
ATOM     19  C   UNL     1       1.621   4.564   3.480  0.00  0.00    +0.018 A 
ATOM     20  C   UNL     1       2.145   3.287   3.558  0.00  0.00    +0.017 A 
ATOM     21  C   UNL     1       2.081   2.446   2.463  0.00  0.00    +0.030 A 
ATOM     22 BR   UNL     1       1.708   5.716   4.978  0.00  0.00    -0.050 Br
ENDBRANCH  13  16
ENDBRANCH   1  13
TORSDOF 4
