REMARK  Name = ZINC64525990
REMARK  8 active torsions:
REMARK  status: ('A' for Active; 'I' for Inactive)
REMARK    1  A    between atoms: C_1  and  C_2
REMARK    2  A    between atoms: C_2  and  C_3
REMARK    3  A    between atoms: N_5  and  C_6
REMARK    4  A    between atoms: C_10  and  C_12
REMARK    5  A    between atoms: C_15  and  C_18
REMARK    6  A    between atoms: C_25  and  C_27
REMARK    7  A    between atoms: C_27  and  C_28
REMARK    8  A    between atoms: C_28  and  C_29
REMARK                            x       y       z     vdW  Elec       q    Type
REMARK                         _______ _______ _______ _____ _____    ______ ____
ROOT
ATOM      1  C   UNL     1       2.239  -8.042   6.479  0.00  0.00    +0.068 C 
ATOM      2  C   UNL     1       2.190  -9.558   6.274  0.00  0.00    +0.012 C 
ATOM      3  C   UNL     1       1.396 -10.203   7.411  0.00  0.00    +0.019 C 
ATOM      4  C   UNL     1      -0.039  -9.666   7.396  0.00  0.00    +0.108 C 
ATOM      5  N   UNL     1       0.005  -8.198   7.447  0.00  0.00    -0.301 N 
ATOM      6  C   UNL     1       0.815  -7.480   6.454  0.00  0.00    +0.116 C 
ATOM      7  C   UNL     1      -0.684  -7.524   8.388  0.00  0.00    +0.216 C 
ATOM      8  O   UNL     1      -0.640  -6.312   8.421  0.00  0.00    -0.276 OA
ENDROOT
BRANCH   1  12
ATOM      9  C   UNL     1       2.472  -5.435   4.339  0.00  0.00    +0.168 C 
ATOM     10  N   UNL     1       2.126  -6.389   3.537  0.00  0.00    -0.067 NA
ATOM     11  O   UNL     1       2.452  -7.652   4.084  0.00  0.00    -0.369 OA
ATOM     12  C   UNL     1       3.061  -7.401   5.359  0.00  0.00    +0.296 C 
ATOM     13  N   UNL     1       3.060  -5.935   5.486  0.00  0.00    -0.289 N 
ATOM     14  H   UNL     1       3.403  -5.419   6.232  0.00  0.00    +0.151 HD
BRANCH   9  19
ATOM     15  C   UNL     1       1.480  -2.240   2.620  0.00  0.00    +0.034 A 
ATOM     16  C   UNL     1       1.895  -1.295   3.551  0.00  0.00    +0.023 A 
ATOM     17  C   UNL     1       2.494  -1.697   4.730  0.00  0.00    +0.002 A 
ATOM     18  C   UNL     1       2.683  -3.039   4.990  0.00  0.00    +0.011 A 
ATOM     19  C   UNL     1       2.270  -3.995   4.062  0.00  0.00    +0.020 A 
ATOM     20  C   UNL     1       1.660  -3.590   2.876  0.00  0.00    +0.034 A 
BRANCH  15  23
ATOM     21  C   UNL     1      -0.114  -2.566   0.884  0.00  0.00    +0.217 C 
ATOM     22  O   UNL     1      -0.421  -3.628   1.381  0.00  0.00    -0.275 OA
ATOM     23  N   UNL     1       0.874  -1.828   1.428  0.00  0.00    -0.285 N 
ATOM     24  H   UNL     1       1.165  -1.011   0.993  0.00  0.00    +0.155 HD
BRANCH  21  26
ATOM     25  C   UNL     1      -1.903  -3.088  -0.751  0.00  0.00    +0.013 C 
ATOM     26  C   UNL     1      -0.837  -2.070  -0.342  0.00  0.00    +0.093 C 
ENDBRANCH  21  26
ENDBRANCH  15  23
ENDBRANCH   9  19
ENDBRANCH   1  12
BRANCH   7  27
ATOM     27  C   UNL     1      -1.511  -8.274   9.401  0.00  0.00    +0.100 C 
BRANCH  27  28
ATOM     28  C   UNL     1      -2.186  -7.279  10.347  0.00  0.00    +0.042 C 
BRANCH  28  29
ATOM     29  C   UNL     1      -3.012  -8.030  11.359  0.00  0.00    -0.041 C 
ATOM     30  C   UNL     1      -2.635  -8.398  12.605  0.00  0.00    -0.001 A 
ATOM     31  C   UNL     1      -1.390  -8.216  13.361  0.00  0.00    +0.010 A 
ATOM     32  C   UNL     1      -1.308  -8.707  14.619  0.00  0.00    +0.001 A 
ATOM     33  C   UNL     1      -2.381  -9.384  15.216  0.00  0.00    +0.002 A 
ATOM     34  C   UNL     1      -3.556  -9.589  14.585  0.00  0.00    +0.026 A 
ATOM     35  C   UNL     1      -3.752  -9.115  13.259  0.00  0.00    +0.043 A 
ATOM     36  N   UNL     1      -4.780  -9.188  12.449  0.00  0.00    -0.380 N 
ATOM     37  C   UNL     1      -4.433  -8.520  11.190  0.00  0.00    +0.144 C 
ATOM     38  H   UNL     1      -5.630  -9.611  12.650  0.00  0.00    +0.160 HD
ENDBRANCH  28  29
ENDBRANCH  27  28
ENDBRANCH   7  27
TORSDOF 7
