REMARK  Name = ZINC15679733
REMARK  6 active torsions:
REMARK  status: ('A' for Active; 'I' for Inactive)
REMARK    1  A    between atoms: C_1  and  C_2
REMARK    2  A    between atoms: C_2  and  N_55
REMARK    3  A    between atoms: C_5  and  N_8
REMARK    4  A    between atoms: N_8  and  C_9
REMARK    5  A    between atoms: C_9  and  C_10
REMARK    6  A    between atoms: N_21  and  C_22
REMARK                            x       y       z     vdW  Elec       q    Type
REMARK                         _______ _______ _______ _____ _____    ______ ____
ROOT
ATOM      1  N   UNL     1       0.151   0.001   0.067  0.00  0.00    -0.278 N 
ATOM      2  C   UNL     1       0.735  -0.673  -0.943  0.00  0.00    +0.307 C 
ATOM      3  O   UNL     1       1.382  -0.074  -1.780  0.00  0.00    -0.252 OA
ATOM      4  N   UNL     1       0.603  -2.012  -1.025  0.00  0.00    -0.269 N 
ATOM      5  H   UNL     1       0.154  -2.500  -0.317  0.00  0.00    +0.156 HD
ENDROOT
BRANCH   1   8
ATOM      6  C   UNL     1       1.925   3.340   0.313  0.00  0.00    -0.077 C 
ATOM      7  C   UNL     1       1.777   1.817   0.281  0.00  0.00    +0.004 C 
ATOM      8  C   UNL     1       0.294   1.456   0.157  0.00  0.00    +0.074 C 
ATOM      9  C   UNL     1      -0.277   2.105  -1.107  0.00  0.00    +0.004 C 
ATOM     10  C   UNL     1      -0.069   3.619  -1.035  0.00  0.00    -0.077 C 
ATOM     11  N   UNL     1       1.379   3.901  -0.941  0.00  0.00    +0.380 N 
ATOM     12  H   UNL     1       1.856   3.463  -1.738  0.00  0.00    -0.082 HD
BRANCH  11  14
ATOM     13  C   UNL     1       0.810   5.961  -2.140  0.00  0.00    -0.017 C 
ATOM     14  C   UNL     1       1.613   5.359  -0.985  0.00  0.00    -0.082 C 
ENDBRANCH  11  14
ENDBRANCH   1   8
BRANCH   4  15
ATOM     15  C   UNL     1       1.115  -2.700  -2.133  0.00  0.00    +0.035 A 
ATOM     16  C   UNL     1       1.624  -3.982  -1.981  0.00  0.00    +0.026 A 
ATOM     17  C   UNL     1       2.122  -4.661  -3.076  0.00  0.00    +0.040 A 
ATOM     18  C   UNL     1       2.126  -4.058  -4.323  0.00  0.00    +0.124 A 
ATOM     19  C   UNL     1       1.624  -2.776  -4.475  0.00  0.00    +0.040 A 
ATOM     20  C   UNL     1       1.119  -2.097  -3.384  0.00  0.00    +0.026 A 
ATOM     21  F   UNL     1       2.619  -4.721  -5.391  0.00  0.00    -0.205 F 
ENDBRANCH   4  15
BRANCH   1  22
ATOM     22  C   UNL     1      -0.628  -0.722   1.076  0.00  0.00    +0.144 C 
BRANCH  22  23
ATOM     23  C   UNL     1      -2.067  -0.806   0.634  0.00  0.00    -0.026 A 
ATOM     24  C   UNL     1      -2.493  -1.877  -0.129  0.00  0.00    +0.009 A 
ATOM     25  C   UNL     1      -3.811  -1.959  -0.535  0.00  0.00    +0.050 A 
ATOM     26  C   UNL     1      -4.710  -0.966  -0.180  0.00  0.00    +0.166 A 
ATOM     27  C   UNL     1      -4.280   0.113   0.589  0.00  0.00    +0.167 A 
ATOM     28  C   UNL     1      -2.959   0.186   0.998  0.00  0.00    +0.054 A 
ATOM     29  O   UNL     1      -5.341   0.945   0.803  0.00  0.00    -0.453 OA
ATOM     30  C   UNL     1      -6.511   0.161   0.506  0.00  0.00    +0.466 C 
ATOM     31  O   UNL     1      -6.039  -0.810  -0.446  0.00  0.00    -0.453 OA
ENDBRANCH  22  23
ENDBRANCH   1  22
TORSDOF 5
