REMARK  Name = ZINC39918568
REMARK  10 active torsions:
REMARK  status: ('A' for Active; 'I' for Inactive)
REMARK    1  A    between atoms: C_1  and  C_2
REMARK    2  A    between atoms: N_8  and  C_9
REMARK    3  A    between atoms: N_19  and  C_22
REMARK    4  A    between atoms: C_22  and  C_23
REMARK    5  A    between atoms: C_23  and  C_24
REMARK    6  A    between atoms: C_23  and  C_25
REMARK    7  A    between atoms: C_26  and  C_30
REMARK    8  A    between atoms: C_27  and  N_29
REMARK    9  A    between atoms: C_30  and  O_32
REMARK   10  A    between atoms: O_32  and  C_33
REMARK                            x       y       z     vdW  Elec       q    Type
REMARK                         _______ _______ _______ _____ _____    ______ ____
ROOT
ATOM      1  C   UNL     1       0.124   1.490   0.076  0.00  0.00    +0.064 C 
ATOM      2  C   UNL     1       0.009  -0.012   0.048  0.00  0.00    +0.023 A 
ATOM      3  C   UNL     1       0.134  -0.668  -1.125  0.00  0.00    +0.068 A 
ATOM      4  C   UNL     1       0.027  -2.074  -1.157  0.00  0.00    +0.142 A 
ATOM      5  C   UNL     1      -0.204  -2.753   0.021  0.00  0.00    +0.083 A 
ATOM      6  C   UNL     1      -0.327  -2.030   1.215  0.00  0.00    +0.260 A 
ATOM      7  O   UNL     1      -0.532  -2.617   2.265  0.00  0.00    -0.267 OA
ATOM      8  N   UNL     1      -0.215  -0.688   1.206  0.00  0.00    -0.309 N 
ATOM      9  C   UNL     1      -0.322  -4.250   0.030  0.00  0.00    +0.144 C 
ATOM     10  C   UNL     1      -1.737  -4.674   0.269  0.00  0.00    -0.002 A 
ATOM     11  C   UNL     1      -2.889  -4.457  -0.455  0.00  0.00    +0.007 A 
ATOM     12  C   UNL     1      -4.066  -4.998   0.053  0.00  0.00    +0.000 A 
ATOM     13  C   UNL     1      -4.075  -5.720   1.229  0.00  0.00    +0.002 A 
ATOM     14  C   UNL     1      -2.921  -5.942   1.963  0.00  0.00    +0.024 A 
ATOM     15  C   UNL     1      -1.733  -5.404   1.464  0.00  0.00    +0.041 A 
ATOM     16  N   UNL     1      -0.452  -5.470   1.983  0.00  0.00    -0.270 N 
ATOM     17  C   UNL     1       0.441  -4.820   1.209  0.00  0.00    +0.240 C 
ATOM     18  O   UNL     1       1.631  -4.713   1.417  0.00  0.00    -0.274 OA
ATOM     19  C   UNL     1       0.206  -4.831  -1.249  0.00  0.00    +0.117 C 
ATOM     20  C   UNL     1       0.409  -4.050  -2.341  0.00  0.00    +0.196 C 
ATOM     21  O   UNL     1       0.148  -2.732  -2.329  0.00  0.00    -0.441 OA
ENDROOT
BRANCH   8  22
ATOM     22  C   UNL     1      -0.342   0.054   2.462  0.00  0.00    +0.091 C 
ATOM     23  C   UNL     1      -1.492  -0.329   3.396  0.00  0.00    +0.027 C 
ATOM     24  C   UNL     1      -1.547   0.985   2.614  0.00  0.00    +0.027 C 
ENDBRANCH   8  22
BRANCH  20  25
ATOM     25  N   UNL     1       0.894  -4.621  -3.487  0.00  0.00    -0.329 N 
ATOM     26  H   UNL     1       1.015  -5.582  -3.536  0.00  0.00    +0.145 HD
ATOM     27  H   UNL     1       1.116  -4.064  -4.250  0.00  0.00    +0.145 HD
ENDBRANCH  20  25
BRANCH  19  28
ATOM     28  C   UNL     1       0.494  -6.202  -1.318  0.00  0.00    +0.341 C 
ATOM     29  O   UNL     1      -0.407  -7.008  -1.469  0.00  0.00    -0.245 OA
BRANCH  28  30
ATOM     30  O   UNL     1       1.772  -6.630  -1.218  0.00  0.00    -0.465 OA
ATOM     31  C   UNL     1       1.992  -8.040  -1.296  0.00  0.00    +0.280 C 
ENDBRANCH  28  30
ENDBRANCH  19  28
BRANCH  16  32
ATOM     32  C   UNL     1      -0.108  -6.163   3.226  0.00  0.00    +0.116 C 
BRANCH  32  33
ATOM     33  C   UNL     1       0.251  -7.618   2.917  0.00  0.00    +0.001 C 
ATOM     34  C   UNL     1       0.730  -8.308   4.196  0.00  0.00    +0.009 C 
ATOM     35  C   UNL     1      -0.983  -8.344   2.378  0.00  0.00    +0.009 C 
ENDBRANCH  32  33
ENDBRANCH  16  32
TORSDOF 6
