REMARK  Name = ZINC64353700
REMARK  7 active torsions:
REMARK  status: ('A' for Active; 'I' for Inactive)
REMARK    1  A    between atoms: C_4  and  C_7
REMARK    2  A    between atoms: C_7  and  C_9
REMARK    3  A    between atoms: C_7  and  C_25
REMARK    4  A    between atoms: C_9  and  N_10
REMARK    5  A    between atoms: C_11  and  C_13
REMARK    6  A    between atoms: C_13  and  N_14
REMARK    7  A    between atoms: N_17  and  C_20
REMARK                            x       y       z     vdW  Elec       q    Type
REMARK                         _______ _______ _______ _____ _____    ______ ____
ROOT
ATOM      1  C   UNL     1       3.817  -1.592   1.206  0.00  0.00    +0.116 C 
ENDROOT
BRANCH   1   2
ATOM      2  N   UNL     1       3.861  -0.748   2.403  0.00  0.00    -0.313 N 
ATOM      3  C   UNL     1       3.954  -1.314   3.623  0.00  0.00    +0.232 C 
ATOM      4  O   UNL     1       4.003  -2.521   3.730  0.00  0.00    -0.274 OA
ATOM      5  H   UNL     1       3.822   0.217   2.318  0.00  0.00    +0.149 HD
BRANCH   3   6
ATOM      6  C   UNL     1       3.999  -0.446   4.854  0.00  0.00    +0.225 C 
BRANCH   6   7
ATOM      7  N   UNL     1       4.101  -1.293   6.045  0.00  0.00    -0.196 N 
ATOM      8  C   UNL     1       5.245  -1.704   6.619  0.00  0.00    +0.340 C 
ATOM      9  O   UNL     1       6.358  -1.423   6.219  0.00  0.00    -0.249 OA
ATOM     10  N   UNL     1       4.989  -2.467   7.695  0.00  0.00    -0.166 N 
ATOM     11  N   UNL     1       3.633  -2.571   7.847  0.00  0.00    -0.150 NA
ATOM     12  N   UNL     1       3.047  -1.792   6.761  0.00  0.00    -0.154 NA
ATOM     13  H   UNL     1       3.337  -3.535   7.805  0.00  0.00    +0.166 HD
ATOM     14  H   UNL     1       2.469  -1.047   7.120  0.00  0.00    +0.166 HD
BRANCH  10  15
ATOM     15  C   UNL     1       5.949  -3.058   8.521  0.00  0.00    +0.093 A 
ATOM     16  C   UNL     1       5.769  -3.844   9.619  0.00  0.00    +0.033 A 
ATOM     17  C   UNL     1       6.883  -4.320  10.287  0.00  0.00    +0.009 A 
ATOM     18  C   UNL     1       8.115  -3.992   9.830  0.00  0.00    +0.047 A 
ATOM     19  S   UNL     1       7.729  -2.984   8.408  0.00  0.00    -0.080 S 
ENDBRANCH  10  15
ENDBRANCH   6   7
ENDBRANCH   3   6
ENDBRANCH   1   2
BRANCH   1  20
ATOM     20  C   UNL     1       3.711  -0.707  -0.038  0.00  0.00    +0.064 C 
BRANCH  20  21
ATOM     21  C   UNL     1       3.790  -1.566  -1.273  0.00  0.00    -0.033 C 
ATOM     22  C   UNL     1       4.716  -1.494  -2.256  0.00  0.00    -0.000 A 
ATOM     23  C   UNL     1       5.883  -0.628  -2.461  0.00  0.00    +0.010 A 
ATOM     24  C   UNL     1       6.640  -0.798  -3.569  0.00  0.00    +0.001 A 
ATOM     25  C   UNL     1       6.338  -1.778  -4.524  0.00  0.00    +0.002 A 
ATOM     26  C   UNL     1       5.284  -2.612  -4.405  0.00  0.00    +0.026 A 
ATOM     27  C   UNL     1       4.420  -2.522  -3.279  0.00  0.00    +0.043 A 
ATOM     28  N   UNL     1       3.352  -3.203  -2.942  0.00  0.00    -0.380 N 
ATOM     29  C   UNL     1       2.853  -2.687  -1.662  0.00  0.00    +0.145 C 
ATOM     30  H   UNL     1       2.959  -3.929  -3.451  0.00  0.00    +0.160 HD
ENDBRANCH  20  21
BRANCH  20  34
ATOM     31  C   UNL     1      -0.017   1.378   0.010  0.00  0.00    +0.000 A 
ATOM     32  C   UNL     1       1.171   2.086   0.002  0.00  0.00    +0.000 A 
ATOM     33  C   UNL     1       2.377   1.411  -0.013  0.00  0.00    +0.004 A 
ATOM     34  C   UNL     1       2.396   0.029  -0.020  0.00  0.00    -0.039 A 
ATOM     35  C   UNL     1       1.208  -0.679  -0.012  0.00  0.00    +0.004 A 
ATOM     36  C   UNL     1       0.002  -0.004   0.002  0.00  0.00    +0.000 A 
ENDBRANCH  20  34
ENDBRANCH   1  20
TORSDOF 7
