REMARK  Name = ZINC12901773
REMARK  8 active torsions:
REMARK  status: ('A' for Active; 'I' for Inactive)
REMARK    1  A    between atoms: C_1  and  C_2
REMARK    2  A    between atoms: C_7  and  C_32
REMARK    3  A    between atoms: N_12  and  C_16
REMARK    4  A    between atoms: C_16  and  C_17
REMARK    5  A    between atoms: N_19  and  C_20
REMARK    6  A    between atoms: N_19  and  C_25
REMARK    7  A    between atoms: C_20  and  C_21
REMARK    8  A    between atoms: C_21  and  C_22
REMARK                            x       y       z     vdW  Elec       q    Type
REMARK                         _______ _______ _______ _____ _____    ______ ____
ROOT
ATOM      1  C   UNL     1       3.316   2.981   2.461  0.00  0.00    +0.238 C 
ATOM      2  O   UNL     1       2.314   3.439   1.954  0.00  0.00    -0.274 OA
ATOM      3  N   UNL     1       4.441   3.721   2.519  0.00  0.00    -0.270 N 
ENDROOT
BRANCH   3   4
ATOM      4  C   UNL     1       4.484   4.979   1.904  0.00  0.00    +0.036 A 
ATOM      5  C   UNL     1       4.584   6.128   2.678  0.00  0.00    +0.026 A 
ATOM      6  C   UNL     1       4.626   7.367   2.070  0.00  0.00    +0.040 A 
ATOM      7  C   UNL     1       4.568   7.464   0.690  0.00  0.00    +0.124 A 
ATOM      8  C   UNL     1       4.468   6.320  -0.084  0.00  0.00    +0.040 A 
ATOM      9  C   UNL     1       4.432   5.078   0.520  0.00  0.00    +0.026 A 
ATOM     10  F   UNL     1       4.609   8.678   0.097  0.00  0.00    -0.205 F 
ENDBRANCH   3   4
BRANCH   1  11
ATOM     11  C   UNL     1       3.303   1.585   3.027  0.00  0.00    +0.214 C 
BRANCH  11  21
ATOM     12  C   UNL     1      -0.615   2.001   0.943  0.00  0.00    +0.010 C 
ATOM     13  C   UNL     1      -0.745   0.476   0.939  0.00  0.00    +0.019 C 
ATOM     14  C   UNL     1      -2.196   0.087   1.232  0.00  0.00    +0.006 C 
ATOM     15  C   UNL     1      -2.320  -1.438   1.248  0.00  0.00    +0.001 C 
ATOM     16  C   UNL     1      -1.416  -2.015   2.339  0.00  0.00    +0.006 C 
ATOM     17  C   UNL     1       0.038  -1.633   2.049  0.00  0.00    +0.019 C 
ATOM     18  C   UNL     1       0.168  -0.115   2.008  0.00  0.00    +0.118 C 
ATOM     19  C   UNL     1       1.603   0.286   1.757  0.00  0.00    +0.247 C 
ATOM     20  O   UNL     1       2.279   0.025   0.785  0.00  0.00    -0.273 OA
ATOM     21  N   UNL     1       1.974   0.995   2.843  0.00  0.00    -0.215 N 
ATOM     22  C   UNL     1       0.978   1.094   3.732  0.00  0.00    +0.310 C 
ATOM     23  O   UNL     1       1.071   1.685   4.790  0.00  0.00    -0.252 OA
ATOM     24  N   UNL     1      -0.140   0.463   3.322  0.00  0.00    -0.284 N 
ATOM     25  C   UNL     1       0.941  -2.192   3.150  0.00  0.00    +0.010 C 
ATOM     26  H   UNL     1      -0.981   0.404   3.801  0.00  0.00    +0.151 HD
ENDBRANCH  11  21
ENDBRANCH   1  11
BRANCH   3  27
ATOM     27  C   UNL     1       5.618   3.210   3.224  0.00  0.00    +0.123 C 
BRANCH  27  28
ATOM     28  C   UNL     1       6.494   2.420   2.250  0.00  0.00    +0.115 C 
BRANCH  28  29
ATOM     29  C   UNL     1       7.705   1.894   2.975  0.00  0.00    +0.212 C 
ATOM     30  O   UNL     1       7.854   2.128   4.156  0.00  0.00    -0.276 OA
ATOM     31  N   UNL     1       8.623   1.163   2.313  0.00  0.00    -0.329 N 
ATOM     32  H   UNL     1       8.504   0.976   1.368  0.00  0.00    +0.145 HD
ATOM     33  H   UNL     1       9.403   0.825   2.780  0.00  0.00    +0.145 HD
ENDBRANCH  28  29
ENDBRANCH  27  28
ENDBRANCH   3  27
TORSDOF 6
