REMARK  Name = ZINC64538577
REMARK  7 active torsions:
REMARK  status: ('A' for Active; 'I' for Inactive)
REMARK    1  A    between atoms: C_1  and  C_2
REMARK    2  A    between atoms: C_2  and  C_3
REMARK    3  A    between atoms: C_2  and  C_4
REMARK    4  A    between atoms: C_2  and  N_5
REMARK    5  A    between atoms: C_9  and  N_12
REMARK    6  A    between atoms: C_15  and  C_18
REMARK    7  A    between atoms: N_20  and  C_21
REMARK                            x       y       z     vdW  Elec       q    Type
REMARK                         _______ _______ _______ _____ _____    ______ ____
ROOT
ATOM      1  N   UNL     1       2.629  -1.732  -4.618  0.00  0.00    -0.327 N 
ATOM      2  C   UNL     1       2.892  -3.157  -4.857  0.00  0.00    +0.106 C 
ATOM      3  C   UNL     1       4.387  -3.343  -5.136  0.00  0.00    +0.031 C 
ATOM      4  C   UNL     1       4.805  -2.425  -6.287  0.00  0.00    +0.078 C 
ATOM      5  C   UNL     1       4.565  -0.966  -5.892  0.00  0.00    +0.031 C 
ATOM      6  C   UNL     1       3.067  -0.754  -5.624  0.00  0.00    +0.106 C 
ENDROOT
BRANCH   1  11
ATOM      7  N   UNL     1       0.701  -0.508  -1.184  0.00  0.00    -0.223 N 
ATOM      8  C   UNL     1       0.103  -0.293  -2.372  0.00  0.00    +0.288 A 
ATOM      9  O   UNL     1      -0.988   0.255  -2.421  0.00  0.00    -0.265 OA
ATOM     10  C   UNL     1       0.741  -0.701  -3.553  0.00  0.00    +0.129 A 
ATOM     11  C   UNL     1       1.976  -1.318  -3.470  0.00  0.00    +0.074 A 
ATOM     12  C   UNL     1       2.564  -1.522  -2.203  0.00  0.00    +0.157 A 
ATOM     13  N   UNL     1       1.953  -1.129  -1.121  0.00  0.00    -0.174 NA
ATOM     14 CL   UNL     1      -0.009  -0.435  -5.096  0.00  0.00    -0.076 Cl
BRANCH   7  16
ATOM     15  C   UNL     1       0.920  -0.433   1.250  0.00  0.00    +0.036 C 
ATOM     16  C   UNL     1       0.038  -0.083   0.051  0.00  0.00    +0.059 C 
ATOM     17  C   UNL     1      -1.307  -0.800   0.180  0.00  0.00    +0.036 C 
ATOM     18  C   UNL     1      -0.192   1.429   0.011  0.00  0.00    +0.036 C 
ENDBRANCH   7  16
ENDBRANCH   1  11
BRANCH   4  19
ATOM     19  C   UNL     1       6.267  -2.629  -6.587  0.00  0.00    +0.216 C 
ATOM     20  O   UNL     1       6.912  -3.430  -5.944  0.00  0.00    -0.276 OA
ATOM     21  N   UNL     1       6.859  -1.922  -7.570  0.00  0.00    -0.312 N 
ATOM     22  H   UNL     1       6.343  -1.282  -8.085  0.00  0.00    +0.149 HD
BRANCH  21  23
ATOM     23  C   UNL     1       8.281  -2.121  -7.862  0.00  0.00    +0.073 C 
ATOM     24  C   UNL     1       9.120  -1.247  -6.928  0.00  0.00    +0.022 C 
ATOM     25  C   UNL     1      10.605  -1.454  -7.232  0.00  0.00    +0.002 C 
ATOM     26  C   UNL     1      10.887  -1.066  -8.685  0.00  0.00    +0.000 C 
ATOM     27  C   UNL     1      10.048  -1.941  -9.619  0.00  0.00    +0.002 C 
ATOM     28  C   UNL     1       8.563  -1.733  -9.315  0.00  0.00    +0.022 C 
ENDBRANCH  21  23
ENDBRANCH   4  19
TORSDOF 4
