REMARK  Name = ZINC45328339
REMARK  9 active torsions:
REMARK  status: ('A' for Active; 'I' for Inactive)
REMARK    1  A    between atoms: C_1  and  C_2
REMARK    2  A    between atoms: C_7  and  C_9
REMARK    3  A    between atoms: C_7  and  C_10
REMARK    4  A    between atoms: N_13  and  C_17
REMARK    5  A    between atoms: C_17  and  C_18
REMARK    6  A    between atoms: N_20  and  C_21
REMARK    7  A    between atoms: C_24  and  C_27
REMARK    8  A    between atoms: N_29  and  C_30
REMARK    9  A    between atoms: C_30  and  C_31
REMARK                            x       y       z     vdW  Elec       q    Type
REMARK                         _______ _______ _______ _____ _____    ______ ____
ROOT
ATOM      1  C   UNL     1      -2.296  -3.328  -4.358  0.00  0.00    +0.235 C 
ATOM      2  O   UNL     1      -1.960  -2.184  -4.583  0.00  0.00    -0.274 OA
ATOM      3  N   UNL     1      -3.321  -3.876  -5.040  0.00  0.00    -0.284 N 
ATOM      4  H   UNL     1      -3.547  -4.810  -4.909  0.00  0.00    +0.155 HD
ENDROOT
BRANCH   3   5
ATOM      5  C   UNL     1      -4.056  -3.100  -5.935  0.00  0.00    +0.033 A 
ATOM      6  C   UNL     1      -3.421  -2.115  -6.685  0.00  0.00    +0.024 A 
ATOM      7  C   UNL     1      -4.144  -1.347  -7.569  0.00  0.00    +0.015 A 
ATOM      8  C   UNL     1      -5.518  -1.558  -7.715  0.00  0.00    +0.037 A 
ATOM      9  C   UNL     1      -6.153  -2.549  -6.961  0.00  0.00    +0.015 A 
ATOM     10  C   UNL     1      -5.423  -3.316  -6.081  0.00  0.00    +0.024 A 
BRANCH   8  11
ATOM     11  C   UNL     1      -6.296  -0.736  -8.662  0.00  0.00    +0.244 C 
ATOM     12  O   UNL     1      -5.743   0.126  -9.317  0.00  0.00    -0.270 OA
ATOM     13  N   UNL     1      -7.621  -0.941  -8.801  0.00  0.00    -0.303 N 
ATOM     14  H   UNL     1      -8.063  -1.629  -8.278  0.00  0.00    +0.149 HD
BRANCH  13  15
ATOM     15  C   UNL     1      -8.394  -0.126  -9.741  0.00  0.00    +0.217 C 
BRANCH  15  16
ATOM     16  C   UNL     1      -9.861  -0.558  -9.705  0.00  0.00    +0.405 C 
ATOM     17  F   UNL     1     -10.367  -0.386  -8.413  0.00  0.00    -0.169 F 
ATOM     18  F   UNL     1     -10.599   0.220 -10.603  0.00  0.00    -0.169 F 
ATOM     19  F   UNL     1      -9.958  -1.906 -10.068  0.00  0.00    -0.169 F 
ENDBRANCH  15  16
ENDBRANCH  13  15
ENDBRANCH   8  11
ENDBRANCH   3   5
BRANCH   1  20
ATOM     20  C   UNL     1      -1.568  -4.136  -3.315  0.00  0.00    +0.214 C 
BRANCH  20  32
ATOM     21  C   UNL     1      -0.036   1.511   0.039  0.00  0.00    +0.007 C 
ATOM     22  C   UNL     1      -0.008  -0.020   0.021  0.00  0.00    -0.011 C 
ATOM     23  C   UNL     1       0.717  -0.497  -1.240  0.00  0.00    +0.038 C 
ATOM     24  C   UNL     1       0.708  -2.018  -1.293  0.00  0.00    +0.113 C 
ATOM     25  C   UNL     1       1.265  -2.656  -0.036  0.00  0.00    +0.041 C 
ATOM     26  C   UNL     1       0.789  -2.051   1.273  0.00  0.00    -0.032 C 
ATOM     27  C   UNL     1       0.757  -0.527   1.241  0.00  0.00    +0.009 C 
ATOM     28  C   UNL     1       1.774  -2.478   2.382  0.00  0.00    +0.011 C 
ATOM     29  C   UNL     1      -0.591  -2.596   1.652  0.00  0.00    +0.011 C 
ATOM     30  C   UNL     1      -0.667  -2.538  -1.634  0.00  0.00    +0.247 C 
ATOM     31  O   UNL     1      -1.718  -2.298  -1.079  0.00  0.00    -0.273 OA
ATOM     32  N   UNL     1      -0.504  -3.322  -2.721  0.00  0.00    -0.215 N 
ATOM     33  C   UNL     1       0.749  -3.262  -3.185  0.00  0.00    +0.310 C 
ATOM     34  O   UNL     1       1.137  -3.870  -4.164  0.00  0.00    -0.252 OA
ATOM     35  N   UNL     1       1.529  -2.456  -2.445  0.00  0.00    -0.285 N 
ATOM     36  H   UNL     1       2.447  -2.202  -2.618  0.00  0.00    +0.151 HD
ENDBRANCH  20  32
ENDBRANCH   1  20
TORSDOF 6
