REMARK  Name = ZINC13273267
REMARK  9 active torsions:
REMARK  status: ('A' for Active; 'I' for Inactive)
REMARK    1  A    between atoms: C_1  and  C_2
REMARK    2  A    between atoms: C_5  and  C_27
REMARK    3  A    between atoms: C_6  and  N_8
REMARK    4  A    between atoms: C_12  and  S_13
REMARK    5  A    between atoms: S_13  and  C_14
REMARK    6  A    between atoms: C_17  and  S_22
REMARK    7  A    between atoms: C_19  and  C_20
REMARK    8  A    between atoms: S_22  and  N_25
REMARK    9  A    between atoms: N_25  and  C_26
REMARK                            x       y       z     vdW  Elec       q    Type
REMARK                         _______ _______ _______ _____ _____    ______ ____
ROOT
ATOM      1  C   UNL     1       1.255  -0.698  -0.326  0.00  0.00    +0.030 A 
ATOM      2  C   UNL     1       0.336  -0.875   0.702  0.00  0.00    +0.018 A 
ATOM      3  C   UNL     1      -0.827  -1.581   0.474  0.00  0.00    +0.029 A 
ATOM      4  C   UNL     1      -1.092  -2.114  -0.778  0.00  0.00    +0.106 A 
ATOM      5  C   UNL     1      -0.196  -1.946  -1.810  0.00  0.00    +0.044 A 
ATOM      6  C   UNL     1       0.988  -1.233  -1.597  0.00  0.00    +0.079 A 
ENDROOT
BRANCH   6   7
ATOM      7  C   UNL     1       1.951  -1.049  -2.696  0.00  0.00    +0.388 C 
ATOM      8  O   UNL     1       2.978  -0.429  -2.506  0.00  0.00    -0.241 OA
ATOM      9  O   UNL     1       1.695  -1.574  -3.910  0.00  0.00    -0.241 OA
ENDBRANCH   6   7
BRANCH   4  10
ATOM     10  S   UNL     1      -2.583  -3.013  -1.050  0.00  0.00    +0.058 S 
ATOM     11  O   UNL     1      -3.511  -2.565  -0.072  0.00  0.00    -0.153 OA
ATOM     12  O   UNL     1      -2.851  -2.942  -2.444  0.00  0.00    -0.153 OA
BRANCH  10  13
ATOM     13  N   UNL     1      -2.266  -4.602  -0.709  0.00  0.00    -0.193 NA
ATOM     14  C   UNL     1      -1.923  -5.004   0.657  0.00  0.00    +0.127 C 
ATOM     15  H   UNL     1      -2.306  -5.267  -1.415  0.00  0.00    +0.148 HD
ENDBRANCH  10  13
ENDBRANCH   4  10
BRANCH   1  16
ATOM     16  S   UNL     1       2.745   0.197  -0.036  0.00  0.00    -0.049 S 
BRANCH  16  21
ATOM     17  N   UNL     1       5.244  -1.042   0.216  0.00  0.00    -0.276 N 
ATOM     18  C   UNL     1       5.703  -2.330   0.283  0.00  0.00    +0.230 A 
ATOM     19  N   UNL     1       4.667  -3.116   0.193  0.00  0.00    -0.137 NA
ATOM     20  N   UNL     1       3.592  -2.420   0.080  0.00  0.00    -0.122 NA
ATOM     21  C   UNL     1       3.885  -1.141   0.091  0.00  0.00    +0.201 A 
BRANCH  17  27
ATOM     22  C   UNL     1       8.640   1.892  -1.798  0.00  0.00    +0.044 C 
ATOM     23  C   UNL     1       7.660   1.579  -0.696  0.00  0.00    -0.048 A 
ATOM     24  C   UNL     1       7.514   2.451   0.367  0.00  0.00    +0.004 A 
ATOM     25  C   UNL     1       6.615   2.168   1.379  0.00  0.00    +0.005 A 
ATOM     26  C   UNL     1       5.858   1.014   1.329  0.00  0.00    -0.026 A 
ATOM     27  C   UNL     1       6.008   0.133   0.266  0.00  0.00    +0.053 A 
ATOM     28  C   UNL     1       6.910   0.420  -0.749  0.00  0.00    +0.030 A 
ATOM     29  C   UNL     1       4.875   0.708   2.429  0.00  0.00    +0.046 C 
ENDBRANCH  17  27
ENDBRANCH  16  21
ENDBRANCH   1  16
TORSDOF 6
