REMARK  Name = ZINC39007261
REMARK  6 active torsions:
REMARK  status: ('A' for Active; 'I' for Inactive)
REMARK    1  A    between atoms: C_5  and  C_7
REMARK    2  A    between atoms: C_7  and  S_8
REMARK    3  A    between atoms: S_8  and  C_9
REMARK    4  A    between atoms: C_14  and  C_16
REMARK    5  A    between atoms: C_18  and  N_34
REMARK    6  A    between atoms: C_23  and  C_28
REMARK                            x       y       z     vdW  Elec       q    Type
REMARK                         _______ _______ _______ _____ _____    ______ ____
ROOT
ATOM      1  C   UNL     1       1.356 -10.938   1.099  0.00  0.00    +0.124 C 
ATOM      2  C   UNL     1       2.116 -11.696  -0.015  0.00  0.00    -0.024 C 
ATOM      3  C   UNL     1       1.431 -12.938  -0.495  0.00  0.00    -0.053 C 
ATOM      4  C   UNL     1       1.798 -13.688  -1.548  0.00  0.00    +0.002 C 
ATOM      5  C   UNL     1       0.932 -14.806  -1.937  0.00  0.00    +0.023 C 
ATOM      6  C   UNL     1      -0.336 -14.879  -1.458  0.00  0.00    +0.035 C 
ATOM      7  N   UNL     1      -0.786 -13.883  -0.580  0.00  0.00    -0.328 N 
ATOM      8  C   UNL     1       0.206 -13.324   0.342  0.00  0.00    +0.154 C 
ATOM      9  S   UNL     1      -0.335 -11.667   0.936  0.00  0.00    -0.123 S 
ATOM     10  H   UNL     1      -1.708 -13.579  -0.583  0.00  0.00    +0.147 HD
ENDROOT
BRANCH   1  16
ATOM     11  C   UNL     1       1.276  -4.553   1.507  0.00  0.00    +0.160 A 
ATOM     12  N   UNL     1       1.281  -5.298   0.411  0.00  0.00    -0.133 NA
ATOM     13  N   UNL     1       1.297  -6.558   0.461  0.00  0.00    -0.125 NA
ATOM     14  C   UNL     1       1.311  -7.214   1.610  0.00  0.00    +0.189 A 
ATOM     15  N   UNL     1       1.329  -8.584   1.859  0.00  0.00    -0.262 N 
ATOM     16  C   UNL     1       1.336  -9.456   0.830  0.00  0.00    +0.230 C 
ATOM     17  O   UNL     1       1.325  -9.046  -0.311  0.00  0.00    -0.274 OA
ATOM     18  S   UNL     1       1.306  -5.837   2.755  0.00  0.00    -0.024 S 
ATOM     19  H   UNL     1       1.338  -8.912   2.772  0.00  0.00    +0.157 HD
BRANCH  11  20
ATOM     20  S   UNL     1       1.254  -2.800   1.685  0.00  0.00    -0.092 S 
BRANCH  20  21
ATOM     21  C   UNL     1       1.229  -2.186  -0.022  0.00  0.00    +0.113 C 
BRANCH  21  26
ATOM     22  C   UNL     1      -0.017   1.378   0.010  0.00  0.00    +0.000 A 
ATOM     23  C   UNL     1       1.171   2.086   0.002  0.00  0.00    +0.001 A 
ATOM     24  C   UNL     1       2.377   1.412  -0.013  0.00  0.00    +0.020 A 
ATOM     25  C   UNL     1       2.397   0.029  -0.021  0.00  0.00    +0.045 A 
ATOM     26  C   UNL     1       1.208  -0.679  -0.013  0.00  0.00    -0.019 A 
ATOM     27  C   UNL     1       0.002  -0.004   0.002  0.00  0.00    +0.006 A 
ATOM     28 CL   UNL     1       3.912  -0.818  -0.041  0.00  0.00    -0.083 Cl
ENDBRANCH  21  26
ENDBRANCH  20  21
ENDBRANCH  11  20
ENDBRANCH   1  16
BRANCH   6  29
ATOM     29  C   UNL     1      -1.226 -15.989  -1.854  0.00  0.00    -0.001 A 
ATOM     30  C   UNL     1      -2.537 -16.069  -1.368  0.00  0.00    +0.027 A 
ATOM     31  C   UNL     1      -3.334 -17.123  -1.765  0.00  0.00    +0.083 A 
ATOM     32  N   UNL     1      -2.875 -18.046  -2.588  0.00  0.00    -0.367 N 
ATOM     33  C   UNL     1      -1.647 -18.009  -3.069  0.00  0.00    +0.083 A 
ATOM     34  C   UNL     1      -0.784 -16.988  -2.731  0.00  0.00    +0.027 A 
ATOM     35  H   UNL     1      -3.460 -18.775  -2.849  0.00  0.00    +0.165 HD
ENDBRANCH   6  29
BRANCH   2  36
ATOM     36  N   UNL     1       3.443 -12.066   0.494  0.00  0.00    +0.384 N 
ATOM     37  H   UNL     1       3.339 -12.659   1.304  0.00  0.00    -0.089 HD
ATOM     38  H   UNL     1       3.952 -12.562  -0.222  0.00  0.00    -0.089 HD
ATOM     39  H   UNL     1       3.950 -11.232   0.751  0.00  0.00    -0.089 HD
ENDBRANCH   2  36
TORSDOF 6
