REMARK  Name = ZINC08384963
REMARK  3 active torsions:
REMARK  status: ('A' for Active; 'I' for Inactive)
REMARK    1  A    between atoms: N_10  and  N_11
REMARK    2  A    between atoms: C_12  and  C_13
REMARK    3  A    between atoms: C_16  and  O_20
REMARK                            x       y       z     vdW  Elec       q    Type
REMARK                         _______ _______ _______ _____ _____    ______ ____
ROOT
ATOM      1  N   UNL     1      -3.039   7.542   0.073  0.00  0.00    -0.188 NA
ATOM      2  C   UNL     1      -3.339   8.805   0.083  0.00  0.00    +0.138 C 
ENDROOT
BRANCH   1  12
ATOM      3  C   UNL     1       1.175   1.793   0.001  0.00  0.00    +0.002 A 
ATOM      4  C   UNL     1      -0.013   1.076   0.008  0.00  0.00    +0.001 A 
ATOM      5  C   UNL     1      -1.216   1.758   0.017  0.00  0.00    +0.017 A 
ATOM      6  C   UNL     1      -1.216   3.130   0.030  0.00  0.00    +0.041 A 
ATOM      7  C   UNL     1      -0.026   3.894   0.023  0.00  0.00    +0.080 A 
ATOM      8  C   UNL     1       1.184   3.163   0.007  0.00  0.00    +0.029 A 
ATOM      9  N   UNL     1      -0.191   5.234   0.032  0.00  0.00    -0.224 NA
ATOM     10  C   UNL     1      -1.377   5.799   0.047  0.00  0.00    +0.179 A 
ATOM     11  S   UNL     1      -2.472   4.387   0.049  0.00  0.00    -0.051 S 
ATOM     12  N   UNL     1      -1.697   7.142   0.057  0.00  0.00    -0.215 N 
ATOM     13  H   UNL     1      -0.992   7.808   0.054  0.00  0.00    +0.176 HD
ENDBRANCH   1  12
BRANCH   2  14
ATOM     14  C   UNL     1      -4.752   9.227   0.099  0.00  0.00    -0.003 A 
ATOM     15  C   UNL     1      -5.769   8.269   0.098  0.00  0.00    +0.028 A 
ATOM     16  C   UNL     1      -7.089   8.668   0.118  0.00  0.00    +0.061 A 
ATOM     17  C   UNL     1      -7.408  10.020   0.129  0.00  0.00    +0.145 A 
ATOM     18  C   UNL     1      -6.400  10.976   0.125  0.00  0.00    +0.061 A 
ATOM     19  C   UNL     1      -5.077  10.586   0.110  0.00  0.00    +0.028 A 
ATOM     20 BR   UNL     1      -6.842  12.815   0.139  0.00  0.00    -0.046 Br
ATOM     21 BR   UNL     1      -8.467   7.373   0.125  0.00  0.00    -0.046 Br
BRANCH  17  22
ATOM     22  O   UNL     1      -8.710  10.409   0.144  0.00  0.00    -0.505 OA
ATOM     23  H   UNL     1      -9.096  10.526  -0.736  0.00  0.00    +0.292 HD
ENDBRANCH  17  22
ENDBRANCH   2  14
TORSDOF 3
