REMARK  Name = ZINC18200242
REMARK  16 active torsions:
REMARK  status: ('A' for Active; 'I' for Inactive)
REMARK    1  A    between atoms: C_1  and  O_2
REMARK    2  A    between atoms: O_2  and  C_3
REMARK    3  A    between atoms: C_5  and  C_13
REMARK    4  A    between atoms: C_7  and  O_11
REMARK    5  A    between atoms: C_8  and  O_9
REMARK    6  A    between atoms: O_9  and  C_10
REMARK    7  A    between atoms: O_11  and  C_12
REMARK    8  A    between atoms: C_18  and  C_26
REMARK    9  A    between atoms: C_20  and  C_24
REMARK   10  A    between atoms: C_21  and  N_23
REMARK   11  A    between atoms: C_28  and  O_36
REMARK   12  A    between atoms: C_29  and  O_34
REMARK   13  A    between atoms: C_30  and  O_32
REMARK   14  A    between atoms: O_32  and  C_33
REMARK   15  A    between atoms: O_34  and  C_35
REMARK   16  A    between atoms: O_36  and  C_37
REMARK                            x       y       z     vdW  Elec       q    Type
REMARK                         _______ _______ _______ _____ _____    ______ ____
ROOT
ATOM      1  C   UNL     1       3.942   7.603   2.159  0.00  0.00    +0.034 C 
ATOM      2  C   UNL     1       5.180   6.856   2.657  0.00  0.00    +0.083 C 
ATOM      3  C   UNL     1       5.290   5.525   1.950  0.00  0.00    +0.115 C 
ATOM      4  C   UNL     1       4.845   5.379   0.691  0.00  0.00    +0.046 C 
ATOM      5  C   UNL     1       4.972   4.056  -0.024  0.00  0.00    +0.101 C 
ATOM      6  C   UNL     1       5.994   3.195   0.666  0.00  0.00    +0.098 C 
ATOM      7  C   UNL     1       6.373   3.467   1.938  0.00  0.00    +0.198 C 
ATOM      8  O   UNL     1       5.848   4.499   2.618  0.00  0.00    -0.445 OA
ATOM      9  C   UNL     1       4.245   6.450  -0.004  0.00  0.00    +0.164 C 
ATOM     10  O   UNL     1       3.867   6.283  -1.146  0.00  0.00    -0.292 OA
ATOM     11  C   UNL     1       4.067   7.796   0.644  0.00  0.00    +0.088 C 
ENDROOT
BRANCH   1  14
ATOM     12  C   UNL     1       2.669  10.497   4.230  0.00  0.00    +0.165 A 
ATOM     13  C   UNL     1       2.752   9.262   3.606  0.00  0.00    +0.053 A 
ATOM     14  C   UNL     1       3.855   8.947   2.835  0.00  0.00    -0.036 A 
ATOM     15  C   UNL     1       4.882   9.861   2.687  0.00  0.00    +0.053 A 
ATOM     16  C   UNL     1       4.804  11.101   3.303  0.00  0.00    +0.165 A 
ATOM     17  C   UNL     1       3.697  11.420   4.079  0.00  0.00    +0.204 A 
BRANCH  12  19
ATOM     18  C   UNL     1       0.566   9.808   5.101  0.00  0.00    +0.277 C 
ATOM     19  O   UNL     1       1.583  10.805   4.989  0.00  0.00    -0.491 OA
ENDBRANCH  12  19
BRANCH  17  20
ATOM     20  O   UNL     1       3.619  12.634   4.690  0.00  0.00    -0.488 OA
ATOM     21  C   UNL     1       4.164  12.733   6.008  0.00  0.00    +0.277 C 
ENDBRANCH  17  20
BRANCH  16  22
ATOM     22  O   UNL     1       5.813  12.000   3.152  0.00  0.00    -0.491 OA
ATOM     23  C   UNL     1       6.920  11.604   2.340  0.00  0.00    +0.277 C 
ENDBRANCH  16  22
ENDBRANCH   1  14
BRANCH   5  24
ATOM     24  C   UNL     1       3.639   3.352  -0.015  0.00  0.00    -0.027 A 
ATOM     25  C   UNL     1       3.018   3.037  -1.209  0.00  0.00    +0.054 A 
ATOM     26  C   UNL     1       1.792   2.390  -1.205  0.00  0.00    +0.165 A 
ATOM     27  C   UNL     1       1.187   2.059   0.002  0.00  0.00    +0.204 A 
ATOM     28  C   UNL     1       1.812   2.382   1.200  0.00  0.00    +0.165 A 
ATOM     29  C   UNL     1       3.041   3.025   1.188  0.00  0.00    +0.054 A 
BRANCH  28  30
ATOM     30  O   UNL     1       1.222   2.065   2.384  0.00  0.00    -0.491 OA
ATOM     31  C   UNL     1       1.921   2.428   3.575  0.00  0.00    +0.277 C 
ENDBRANCH  28  30
BRANCH  27  32
ATOM     32  O   UNL     1      -0.017   1.425   0.010  0.00  0.00    -0.488 OA
ATOM     33  C   UNL     1       0.002  -0.004   0.002  0.00  0.00    +0.277 C 
ENDBRANCH  27  32
BRANCH  26  34
ATOM     34  O   UNL     1       1.182   2.080  -2.380  0.00  0.00    -0.491 OA
ATOM     35  C   UNL     1       1.861   2.451  -3.581  0.00  0.00    +0.277 C 
ENDBRANCH  26  34
ENDBRANCH   5  24
BRANCH   7  36
ATOM     36  N   UNL     1       7.312   2.670   2.545  0.00  0.00    -0.328 N 
ATOM     37  H   UNL     1       7.697   1.922   2.063  0.00  0.00    +0.145 HD
ATOM     38  H   UNL     1       7.590   2.856   3.456  0.00  0.00    +0.145 HD
ENDBRANCH   7  36
BRANCH   6  39
ATOM     39  C   UNL     1       6.572   2.083  -0.027  0.00  0.00    +0.101 C 
ATOM     40  N   UNL     1       7.030   1.200  -0.576  0.00  0.00    -0.191 NA
ENDBRANCH   6  39
TORSDOF 10
