REMARK  Name = ZINC62217374
REMARK  5 active torsions:
REMARK  status: ('A' for Active; 'I' for Inactive)
REMARK    1  A    between atoms: C_5  and  C_7
REMARK    2  A    between atoms: C_8  and  C_19
REMARK    3  A    between atoms: N_11  and  C_12
REMARK    4  A    between atoms: C_15  and  O_18
REMARK    5  A    between atoms: C_19  and  O_20
REMARK                            x       y       z     vdW  Elec       q    Type
REMARK                         _______ _______ _______ _____ _____    ______ ____
ROOT
ATOM      1  C   UNL     1       1.248  -2.162  -0.023  0.00  0.00    +0.101 A 
ATOM      2  C   UNL     1       1.268  -2.985   1.064  0.00  0.00    +0.116 A 
ATOM      3  N   UNL     1       1.290  -4.248   0.646  0.00  0.00    -0.131 NA
ATOM      4  N   UNL     1       1.284  -4.291  -0.640  0.00  0.00    -0.060 NA
ATOM      5  N   UNL     1       1.252  -2.975  -1.125  0.00  0.00    -0.212 N 
ENDROOT
BRANCH   1  10
ATOM      6  C   UNL     1      -0.017   1.375   0.010  0.00  0.00    +0.001 A 
ATOM      7  C   UNL     1       1.170   2.087   0.002  0.00  0.00    +0.001 A 
ATOM      8  C   UNL     1       2.382   1.421  -0.013  0.00  0.00    +0.020 A 
ATOM      9  C   UNL     1       2.415   0.041  -0.022  0.00  0.00    +0.050 A 
ATOM     10  C   UNL     1       1.221  -0.682  -0.014  0.00  0.00    +0.021 A 
ATOM     11  C   UNL     1       0.002  -0.004   0.002  0.00  0.00    +0.011 A 
ATOM     12 CL   UNL     1       3.937  -0.794  -0.043  0.00  0.00    -0.083 Cl
ENDBRANCH   1  10
BRANCH   5  13
ATOM     13  C   UNL     1       1.231  -2.573  -2.469  0.00  0.00    +0.068 A 
ATOM     14  C   UNL     1       0.521  -1.440  -2.844  0.00  0.00    +0.031 A 
ATOM     15  C   UNL     1       0.501  -1.045  -4.166  0.00  0.00    +0.047 A 
ATOM     16  C   UNL     1       1.190  -1.780  -5.121  0.00  0.00    +0.117 A 
ATOM     17  C   UNL     1       1.899  -2.912  -4.747  0.00  0.00    +0.047 A 
ATOM     18  C   UNL     1       1.924  -3.305  -3.424  0.00  0.00    +0.031 A 
BRANCH  16  19
ATOM     19  O   UNL     1       1.170  -1.390  -6.423  0.00  0.00    -0.507 OA
ATOM     20  H   UNL     1       1.882  -0.782  -6.663  0.00  0.00    +0.292 HD
ENDBRANCH  16  19
ENDBRANCH   5  13
BRANCH   2  21
ATOM     21  C   UNL     1       1.268  -2.537   2.503  0.00  0.00    +0.215 C 
BRANCH  21  22
ATOM     22  O   UNL     1      -0.080  -2.420   2.965  0.00  0.00    -0.389 OA
ATOM     23  H   UNL     1      -0.157  -2.135   3.885  0.00  0.00    +0.210 HD
ENDBRANCH  21  22
ENDBRANCH   2  21
TORSDOF 5
