REMARK  Name = ZINC20265340
REMARK  10 active torsions:
REMARK  status: ('A' for Active; 'I' for Inactive)
REMARK    1  A    between atoms: C_1  and  N_2
REMARK    2  A    between atoms: N_2  and  C_3
REMARK    3  A    between atoms: N_2  and  C_31
REMARK    4  A    between atoms: C_3  and  C_4
REMARK    5  A    between atoms: C_4  and  C_5
REMARK    6  A    between atoms: C_5  and  N_6
REMARK    7  A    between atoms: C_13  and  O_14
REMARK    8  A    between atoms: C_21  and  O_22
REMARK    9  A    between atoms: C_31  and  C_32
REMARK   10  A    between atoms: C_32  and  O_33
REMARK                            x       y       z     vdW  Elec       q    Type
REMARK                         _______ _______ _______ _____ _____    ______ ____
ROOT
ATOM      1  N   UNL     1      -2.420   1.035   0.019  0.00  0.00    -0.384 N 
ATOM      2  C   UNL     1      -1.233   1.751   0.017  0.00  0.00    +0.050 A 
ATOM      3  C   UNL     1      -0.013   1.076   0.035  0.00  0.00    +0.074 A 
ATOM      4  C   UNL     1       1.177   1.776   0.028  0.00  0.00    +0.156 A 
ATOM      5  C   UNL     1       1.168   3.184   0.008  0.00  0.00    +0.118 A 
ATOM      6  C   UNL     1      -0.044   3.875  -0.004  0.00  0.00    +0.059 A 
ATOM      7  C   UNL     1      -1.261   3.151   0.004  0.00  0.00    +0.053 A 
ATOM      8  C   UNL     1      -2.541   3.866  -0.009  0.00  0.00    +0.134 A 
ATOM      9  C   UNL     1      -2.560   5.343  -0.029  0.00  0.00    +0.028 A 
ATOM     10  C   UNL     1      -3.772   6.029  -0.040  0.00  0.00    +0.012 A 
ATOM     11  C   UNL     1      -3.782   7.411  -0.059  0.00  0.00    +0.001 A 
ATOM     12  C   UNL     1      -2.593   8.120  -0.067  0.00  0.00    +0.001 A 
ATOM     13  C   UNL     1      -1.381   7.456  -0.056  0.00  0.00    +0.012 A 
ATOM     14  C   UNL     1      -1.353   6.063  -0.037  0.00  0.00    +0.028 A 
ATOM     15  C   UNL     1      -0.063   5.344  -0.026  0.00  0.00    +0.135 A 
ATOM     16  N   UNL     1       2.368   3.877   0.002  0.00  0.00    -0.240 NA
ATOM     17  C   UNL     1       3.568   3.158   0.014  0.00  0.00    +0.107 A 
ATOM     18  C   UNL     1       4.784   3.826   0.009  0.00  0.00    +0.031 A 
ATOM     19  C   UNL     1       5.965   3.107   0.022  0.00  0.00    +0.002 A 
ATOM     20  C   UNL     1       5.937   1.725   0.040  0.00  0.00    +0.004 A 
ATOM     21  C   UNL     1       4.729   1.053   0.046  0.00  0.00    +0.048 A 
ATOM     22  C   UNL     1       3.539   1.764   0.033  0.00  0.00    +0.154 A 
ATOM     23  O   UNL     1       2.353   1.103   0.040  0.00  0.00    -0.452 OA
ATOM     24  H   UNL     1      -3.380   1.563   0.110  0.00  0.00    +0.160 HD
ENDROOT
BRANCH   8  25
ATOM     25  O   UNL     1      -3.586   3.243  -0.002  0.00  0.00    -0.505 OA
ATOM     26  H   UNL     1      -4.546   3.779  -0.011  0.00  0.00    +0.292 HD
ENDBRANCH   8  25
BRANCH  15  27
ATOM     27  O   UNL     1       0.983   5.967  -0.032  0.00  0.00    -0.505 OA
ATOM     28  H   UNL     1       0.967   7.066  -0.048  0.00  0.00    +0.292 HD
ENDBRANCH  15  27
BRANCH   1  29
ATOM     29  C   UNL     1      -2.395  -0.425  -0.099  0.00  0.00    +0.111 C 
BRANCH  29  30
ATOM     30  C   UNL     1      -3.827  -0.963  -0.071  0.00  0.00    +0.002 C 
BRANCH  30  31
ATOM     31  C   UNL     1      -3.801  -2.488  -0.195  0.00  0.00    -0.077 C 
BRANCH  31  33
ATOM     32  C   UNL     1      -5.800  -2.771   1.141  0.00  0.00    -0.096 C 
ATOM     33  N   UNL     1      -5.176  -3.005  -0.168  0.00  0.00    +0.379 N 
ATOM     34  H   UNL     1      -5.758  -2.456  -0.923  0.00  0.00    -0.082 HD
BRANCH  33  35
ATOM     35  C   UNL     1      -5.209  -4.431  -0.520  0.00  0.00    -0.051 C 
BRANCH  35  36
ATOM     36  C   UNL     1      -6.660  -4.872  -0.725  0.00  0.00    +0.137 C 
BRANCH  36  37
ATOM     37  O   UNL     1      -7.209  -4.190  -1.854  0.00  0.00    -0.397 OA
ATOM     38  H   UNL     1      -8.249  -4.380  -2.158  0.00  0.00    +0.209 HD
ENDBRANCH  36  37
ENDBRANCH  35  36
ENDBRANCH  33  35
ENDBRANCH  31  33
ENDBRANCH  30  31
ENDBRANCH  29  30
ENDBRANCH   1  29
TORSDOF 9
