REMARK  Name = ZINC48078711
REMARK  4 active torsions:
REMARK  status: ('A' for Active; 'I' for Inactive)
REMARK    1  A    between atoms: N_14  and  N_15
REMARK    2  A    between atoms: C_16  and  C_18
REMARK    3  A    between atoms: C_18  and  N_19
REMARK    4  A    between atoms: C_20  and  C_22
REMARK                            x       y       z     vdW  Elec       q    Type
REMARK                         _______ _______ _______ _____ _____    ______ ____
ROOT
ATOM      1  C   UNL     1      -0.016   1.354   0.009  0.00  0.00    +0.223 A 
ATOM      2  N   UNL     1       1.092   2.045   0.003  0.00  0.00    -0.228 NA
ATOM      3  C   UNL     1       2.276   1.439  -0.012  0.00  0.00    +0.116 A 
ATOM      4  C   UNL     1       2.396   0.040  -0.021  0.00  0.00    +0.077 A 
ATOM      5  C   UNL     1       3.760  -0.486  -0.038  0.00  0.00    -0.023 A 
ATOM      6  C   UNL     1       4.764   0.417  -0.043  0.00  0.00    -0.004 A 
ATOM      7  S   UNL     1       3.960   1.997  -0.026  0.00  0.00    -0.073 S 
ATOM      8  C   UNL     1       6.235   0.137  -0.060  0.00  0.00    +0.043 C 
ATOM      9  C   UNL     1       6.452  -1.339   0.302  0.00  0.00    +0.005 C 
ATOM     10  C   UNL     1       5.494  -2.195  -0.531  0.00  0.00    +0.005 C 
ATOM     11  C   UNL     1       4.058  -1.982  -0.051  0.00  0.00    +0.037 C 
ATOM     12  C   UNL     1       1.161  -0.689  -0.013  0.00  0.00    +0.280 A 
ATOM     13  O   UNL     1       1.161  -1.907  -0.019  0.00  0.00    -0.265 OA
ATOM     14  N   UNL     1       0.002  -0.004   0.002  0.00  0.00    -0.212 N 
ENDROOT
BRANCH  14  15
ATOM     15  N   UNL     1      -1.210  -0.707   0.010  0.00  0.00    -0.218 N 
ATOM     16  C   UNL     1      -1.955  -0.777  -1.111  0.00  0.00    +0.248 C 
ATOM     17  O   UNL     1      -1.577  -0.233  -2.126  0.00  0.00    -0.272 OA
ATOM     18  H   UNL     1      -1.513  -1.143   0.822  0.00  0.00    +0.176 HD
BRANCH  16  19
ATOM     19  C   UNL     1      -3.259  -1.533  -1.102  0.00  0.00    +0.201 C 
BRANCH  19  20
ATOM     20  N   UNL     1      -3.874  -1.462  -2.430  0.00  0.00    -0.306 N 
ATOM     21  C   UNL     1      -5.054  -2.070  -2.660  0.00  0.00    +0.217 C 
ATOM     22  O   UNL     1      -5.608  -2.677  -1.767  0.00  0.00    -0.276 OA
ATOM     23  H   UNL     1      -3.431  -0.977  -3.144  0.00  0.00    +0.149 HD
BRANCH  21  24
ATOM     24  C   UNL     1      -5.686  -1.997  -4.026  0.00  0.00    +0.075 C 
ATOM     25  C   UNL     1      -6.021  -0.532  -4.375  0.00  0.00    +0.013 C 
ATOM     26  C   UNL     1      -7.362  -0.621  -5.144  0.00  0.00    +0.001 C 
ATOM     27  C   UNL     1      -8.117  -1.740  -4.384  0.00  0.00    +0.001 C 
ATOM     28  C   UNL     1      -7.020  -2.765  -4.031  0.00  0.00    +0.013 C 
ENDBRANCH  21  24
ENDBRANCH  19  20
ENDBRANCH  16  19
ENDBRANCH  14  15
TORSDOF 4
