REMARK  Name = ZINC17189590
REMARK  5 active torsions:
REMARK  status: ('A' for Active; 'I' for Inactive)
REMARK    1  A    between atoms: C_4  and  C_7
REMARK    2  A    between atoms: C_7  and  S_8
REMARK    3  A    between atoms: S_8  and  C_9
REMARK    4  A    between atoms: C_16  and  C_26
REMARK    5  A    between atoms: C_29  and  O_32
REMARK                            x       y       z     vdW  Elec       q    Type
REMARK                         _______ _______ _______ _____ _____    ______ ____
ROOT
ATOM      1  C   UNL     1       5.786  -1.866   1.477  0.00  0.00    +0.194 A 
ATOM      2  N   UNL     1       6.446  -2.241   2.562  0.00  0.00    -0.202 NA
ATOM      3  C   UNL     1       7.610  -2.892   2.458  0.00  0.00    +0.165 A 
ATOM      4  C   UNL     1       8.102  -3.162   1.177  0.00  0.00    +0.075 A 
ATOM      5  C   UNL     1       7.386  -2.757   0.069  0.00  0.00    +0.280 A 
ATOM      6  N   UNL     1       6.231  -2.117   0.254  0.00  0.00    -0.183 NA
ATOM      7  O   UNL     1       7.845  -3.009  -1.182  0.00  0.00    -0.265 OA
ATOM      8  C   UNL     1       9.415  -3.899   1.057  0.00  0.00    +0.093 C 
ATOM      9  C   UNL     1      10.079  -4.274   2.370  0.00  0.00    +0.028 C 
ATOM     10  C   UNL     1      11.248  -4.932   2.361  0.00  0.00    +0.162 C 
ATOM     11  C   UNL     1      11.938  -5.321   3.641  0.00  0.00    +0.080 C 
ATOM     12  C   UNL     1      10.889  -5.543   4.734  0.00  0.00    +0.014 C 
ATOM     13  C   UNL     1      10.063  -4.265   4.894  0.00  0.00    +0.056 C 
ATOM     14  C   UNL     1       9.430  -3.912   3.567  0.00  0.00    +0.051 C 
ATOM     15  N   UNL     1       8.290  -3.274   3.563  0.00  0.00    -0.232 NA
ATOM     16  O   UNL     1      11.816  -5.253   1.180  0.00  0.00    -0.292 OA
ENDROOT
BRANCH   8  17
ATOM     17  C   UNL     1      10.372  -3.033   0.279  0.00  0.00    -0.035 A 
ATOM     18  C   UNL     1      10.717  -1.782   0.757  0.00  0.00    +0.008 A 
ATOM     19  C   UNL     1      11.594  -0.987   0.045  0.00  0.00    +0.046 A 
ATOM     20  C   UNL     1      12.129  -1.444  -1.151  0.00  0.00    +0.117 A 
ATOM     21  C   UNL     1      11.782  -2.700  -1.628  0.00  0.00    +0.046 A 
ATOM     22  C   UNL     1      10.909  -3.493  -0.910  0.00  0.00    +0.008 A 
BRANCH  20  23
ATOM     23  O   UNL     1      12.991  -0.663  -1.853  0.00  0.00    -0.507 OA
ATOM     24  H   UNL     1      13.920  -0.792  -1.616  0.00  0.00    +0.292 HD
ENDBRANCH  20  23
ENDBRANCH   8  17
BRANCH   1  25
ATOM     25  S   UNL     1       4.257  -1.011   1.666  0.00  0.00    -0.081 S 
BRANCH  25  26
ATOM     26  C   UNL     1       3.711  -0.707  -0.038  0.00  0.00    +0.112 C 
BRANCH  26  30
ATOM     27  C   UNL     1      -0.017   1.378   0.010  0.00  0.00    +0.000 A 
ATOM     28  C   UNL     1       1.171   2.086   0.002  0.00  0.00    +0.000 A 
ATOM     29  C   UNL     1       2.377   1.411  -0.013  0.00  0.00    +0.004 A 
ATOM     30  C   UNL     1       2.396   0.029  -0.020  0.00  0.00    -0.037 A 
ATOM     31  C   UNL     1       1.208  -0.679  -0.012  0.00  0.00    +0.004 A 
ATOM     32  C   UNL     1       0.002  -0.004   0.002  0.00  0.00    +0.000 A 
ENDBRANCH  26  30
ENDBRANCH  25  26
ENDBRANCH   1  25
TORSDOF 5
