REMARK  Name = ZINC10395026
REMARK  6 active torsions:
REMARK  status: ('A' for Active; 'I' for Inactive)
REMARK    1  A    between atoms: C_8  and  C_10
REMARK    2  A    between atoms: C_10  and  C_11
REMARK    3  A    between atoms: C_11  and  C_12
REMARK    4  A    between atoms: C_12  and  O_14
REMARK    5  A    between atoms: O_14  and  C_15
REMARK    6  A    between atoms: C_15  and  C_16
REMARK                            x       y       z     vdW  Elec       q    Type
REMARK                         _______ _______ _______ _____ _____    ______ ____
ROOT
ATOM      1  C   UNL     1       1.113   2.306   4.949  0.00  0.00    +0.170 A 
ATOM      2  N   UNL     1       1.886   1.892   3.961  0.00  0.00    -0.214 NA
ATOM      3  C   UNL     1       1.396   1.533   2.785  0.00  0.00    +0.128 A 
ATOM      4  C   UNL     1      -0.010   1.594   2.575  0.00  0.00    +0.051 A 
ATOM      5  C   UNL     1      -0.771   1.244   1.367  0.00  0.00    -0.025 A 
ATOM      6  C   UNL     1      -2.105   1.407   1.426  0.00  0.00    -0.004 A 
ATOM      7  S   UNL     1      -2.433   1.997   3.067  0.00  0.00    -0.073 S 
ATOM      8  C   UNL     1      -0.768   2.045   3.672  0.00  0.00    +0.114 A 
ATOM      9  N   UNL     1      -0.197   2.383   4.812  0.00  0.00    -0.221 NA
ATOM     10  C   UNL     1      -3.107   1.150   0.343  0.00  0.00    +0.043 C 
ATOM     11  C   UNL     1      -2.857  -0.237  -0.263  0.00  0.00    +0.005 C 
ATOM     12  C   UNL     1      -1.872  -0.085  -1.417  0.00  0.00    +0.001 C 
ATOM     13  C   UNL     1      -0.888   1.045  -1.120  0.00  0.00    +0.005 C 
ATOM     14  C   UNL     1      -0.064   0.721   0.120  0.00  0.00    +0.037 C 
ATOM     15  N   UNL     1       2.239   1.105   1.775  0.00  0.00    -0.343 N 
ATOM     16  H   UNL     1       1.911   0.493   1.098  0.00  0.00    +0.144 HD
ATOM     17  H   UNL     1       3.157   1.416   1.745  0.00  0.00    +0.144 HD
ENDROOT
BRANCH   1  18
ATOM     18  C   UNL     1       1.741   2.699   6.261  0.00  0.00    +0.308 C 
BRANCH  18  19
ATOM     19  O   UNL     1       1.820   1.536   7.127  0.00  0.00    -0.457 OA
BRANCH  19  20
ATOM     20  C   UNL     1       2.359   1.717   8.343  0.00  0.00    +0.308 C 
ATOM     21  O   UNL     1       2.752   2.811   8.673  0.00  0.00    -0.251 OA
BRANCH  20  22
ATOM     22  C   UNL     1       2.475   0.556   9.297  0.00  0.00    +0.127 C 
BRANCH  22  23
ATOM     23  C   UNL     1       3.119   1.030  10.601  0.00  0.00    +0.074 C 
BRANCH  23  31
ATOM     24  C   UNL     1       4.980  -3.903  13.810  0.00  0.00    +0.002 A 
ATOM     25  C   UNL     1       3.814  -3.940  14.562  0.00  0.00    +0.001 A 
ATOM     26  C   UNL     1       2.830  -2.997  14.336  0.00  0.00    +0.017 A 
ATOM     27  C   UNL     1       3.023  -2.039  13.371  0.00  0.00    +0.039 A 
ATOM     28  C   UNL     1       4.200  -1.977  12.590  0.00  0.00    +0.078 A 
ATOM     29  C   UNL     1       5.181  -2.958  12.852  0.00  0.00    +0.029 A 
ATOM     30  N   UNL     1       4.221  -0.972  11.689  0.00  0.00    -0.244 NA
ATOM     31  C   UNL     1       3.234  -0.131  11.555  0.00  0.00    +0.080 A 
ATOM     32  S   UNL     1       2.088  -0.666  12.745  0.00  0.00    -0.072 S 
ENDBRANCH  23  31
ENDBRANCH  22  23
ENDBRANCH  20  22
ENDBRANCH  19  20
ENDBRANCH  18  19
ENDBRANCH   1  18
TORSDOF 6
