REMARK  Name = ZINC06819927
REMARK  4 active torsions:
REMARK  status: ('A' for Active; 'I' for Inactive)
REMARK    1  A    between atoms: C_3  and  C_8
REMARK    2  A    between atoms: N_14  and  C_15
REMARK    3  A    between atoms: C_15  and  C_16
REMARK    4  A    between atoms: C_16  and  C_17
REMARK                            x       y       z     vdW  Elec       q    Type
REMARK                         _______ _______ _______ _____ _____    ______ ____
ROOT
ATOM      1  C   UNL     1       3.545   1.995  -0.037  0.00  0.00    +0.203 C 
ATOM      2  N   UNL     1       3.322   3.286  -0.698  0.00  0.00    -0.336 N 
ATOM      3  C   UNL     1       3.730   3.479  -1.925  0.00  0.00    +0.191 C 
ATOM      4  N   UNL     1       4.399   2.535  -2.609  0.00  0.00    -0.187 NA
ATOM      5  C   UNL     1       4.893   1.475  -1.997  0.00  0.00    +0.185 C 
ATOM      6  N   UNL     1       4.733   1.367  -0.635  0.00  0.00    -0.279 N 
ATOM      7  N   UNL     1       5.550   0.505  -2.701  0.00  0.00    -0.331 N 
ATOM      8  N   UNL     1       3.465   4.688  -2.536  0.00  0.00    -0.329 N 
ATOM      9  H   UNL     1       5.657   0.592  -3.661  0.00  0.00    +0.145 HD
ATOM     10  H   UNL     1       5.910  -0.269  -2.240  0.00  0.00    +0.145 HD
ATOM     11  H   UNL     1       2.983   5.379  -2.055  0.00  0.00    +0.145 HD
ATOM     12  H   UNL     1       3.761   4.846  -3.446  0.00  0.00    +0.145 HD
ATOM     13  H   UNL     1       2.870   4.000  -0.222  0.00  0.00    +0.164 HD
ENDROOT
BRANCH   1  16
ATOM     14  C   UNL     1       0.620  -0.289   0.659  0.00  0.00    +0.002 A 
ATOM     15  C   UNL     1       1.721   0.526   0.846  0.00  0.00    +0.007 A 
ATOM     16  C   UNL     1       2.344   1.107  -0.242  0.00  0.00    -0.006 A 
ATOM     17  C   UNL     1       1.867   0.873  -1.518  0.00  0.00    +0.027 A 
ATOM     18  C   UNL     1       0.765   0.058  -1.706  0.00  0.00    +0.041 A 
ATOM     19  C   UNL     1       0.142  -0.524  -0.616  0.00  0.00    +0.020 A 
ATOM     20 CL   UNL     1       0.165  -0.236  -3.308  0.00  0.00    -0.084 Cl
ENDBRANCH   1  16
BRANCH   6  21
ATOM     21  C   UNL     1       5.711   0.655   0.191  0.00  0.00    +0.115 C 
BRANCH  21  22
ATOM     22  C   UNL     1       5.243  -0.786   0.406  0.00  0.00    +0.054 C 
BRANCH  22  23
ATOM     23  C   UNL     1       6.185  -1.484   1.353  0.00  0.00    -0.046 A 
ATOM     24  C   UNL     1       7.288  -2.155   0.859  0.00  0.00    +0.006 A 
ATOM     25  C   UNL     1       8.153  -2.796   1.727  0.00  0.00    +0.038 A 
ATOM     26  C   UNL     1       7.914  -2.764   3.090  0.00  0.00    +0.123 A 
ATOM     27  C   UNL     1       6.809  -2.092   3.583  0.00  0.00    +0.038 A 
ATOM     28  C   UNL     1       5.948  -1.448   2.714  0.00  0.00    +0.006 A 
ATOM     29  F   UNL     1       8.759  -3.390   3.939  0.00  0.00    -0.205 F 
ENDBRANCH  22  23
ENDBRANCH  21  22
ENDBRANCH   6  21
TORSDOF 4
