REMARK  Name = ZINC15085763
REMARK  2 active torsions:
REMARK  status: ('A' for Active; 'I' for Inactive)
REMARK    1  A    between atoms: C_4  and  C_7
REMARK    2  A    between atoms: N_35  and  O_36
REMARK                            x       y       z     vdW  Elec       q    Type
REMARK                         _______ _______ _______ _____ _____    ______ ____
ROOT
ATOM      1  C   UNL     1      -0.019   1.524   0.010  0.00  0.00    +0.088 C 
ATOM      2  C   UNL     1       0.002  -0.004   0.002  0.00  0.00    +0.101 C 
ATOM      3  C   UNL     1      -1.391  -0.533   0.215  0.00  0.00    +0.012 A 
ATOM      4  C   UNL     1      -2.039  -1.175  -0.824  0.00  0.00    +0.009 A 
ATOM      5  C   UNL     1      -3.320  -1.664  -0.649  0.00  0.00    +0.001 A 
ATOM      6  C   UNL     1      -3.960  -1.509   0.567  0.00  0.00    +0.004 A 
ATOM      7  C   UNL     1      -3.318  -0.870   1.609  0.00  0.00    +0.046 A 
ATOM      8  C   UNL     1      -2.030  -0.383   1.438  0.00  0.00    +0.125 A 
ATOM      9  O   UNL     1      -1.398   0.231   2.472  0.00  0.00    -0.489 OA
ATOM     10  C   UNL     1      -2.037   0.186   3.749  0.00  0.00    +0.257 C 
ATOM     11  C   UNL     1      -1.519  -1.017   4.540  0.00  0.00    +0.201 C 
ATOM     12  O   UNL     1      -0.640  -0.569   5.573  0.00  0.00    -0.373 OA
ATOM     13  C   UNL     1       0.658  -1.163   5.527  0.00  0.00    +0.201 C 
ATOM     14  C   UNL     1       1.666  -0.144   4.990  0.00  0.00    +0.257 C 
ATOM     15  O   UNL     1       1.782  -0.297   3.573  0.00  0.00    -0.489 OA
ATOM     16  C   UNL     1       2.943  -0.824   3.101  0.00  0.00    +0.125 A 
ATOM     17  C   UNL     1       3.837  -1.418   3.983  0.00  0.00    +0.046 A 
ATOM     18  C   UNL     1       5.026  -1.940   3.513  0.00  0.00    +0.004 A 
ATOM     19  C   UNL     1       5.323  -1.881   2.163  0.00  0.00    +0.001 A 
ATOM     20  C   UNL     1       4.430  -1.301   1.283  0.00  0.00    +0.009 A 
ATOM     21  C   UNL     1       3.239  -0.768   1.749  0.00  0.00    +0.011 A 
ATOM     22  C   UNL     1       2.294  -0.123   0.773  0.00  0.00    +0.094 C 
ATOM     23  N   UNL     1       0.901  -0.489   1.058  0.00  0.00    -0.301 NA
ATOM     24  C   UNL     1       2.448   1.398   0.852  0.00  0.00    +0.078 C 
ATOM     25  C   UNL     1       1.391   2.054  -0.000  0.00  0.00    +0.068 C 
ATOM     26  N   UNL     1       1.692   3.060  -0.732  0.00  0.00    -0.096 NA
ATOM     27  H   UNL     1       0.610  -0.044   2.021  0.00  0.00    +0.123 HD
ENDROOT
BRANCH   1  31
ATOM     28  C   UNL     1      -2.091   2.936  -3.448  0.00  0.00    +0.000 A 
ATOM     29  C   UNL     1      -2.554   3.257  -2.186  0.00  0.00    +0.000 A 
ATOM     30  C   UNL     1      -1.883   2.800  -1.066  0.00  0.00    +0.004 A 
ATOM     31  C   UNL     1      -0.750   2.022  -1.210  0.00  0.00    -0.037 A 
ATOM     32  C   UNL     1      -0.284   1.705  -2.472  0.00  0.00    +0.004 A 
ATOM     33  C   UNL     1      -0.958   2.158  -3.591  0.00  0.00    +0.000 A 
ENDBRANCH   1  31
BRANCH  26  34
ATOM     34  O   UNL     1       3.018   3.557  -0.742  0.00  0.00    -0.409 OA
ATOM     35  H   UNL     1       3.276   4.422  -1.371  0.00  0.00    +0.328 HD
ENDBRANCH  26  34
TORSDOF 2
