REMARK  Name = ZINC31685302
REMARK  6 active torsions:
REMARK  status: ('A' for Active; 'I' for Inactive)
REMARK    1  A    between atoms: C_1  and  C_2
REMARK    2  A    between atoms: C_2  and  C_4
REMARK    3  A    between atoms: C_2  and  S_17
REMARK    4  A    between atoms: C_4  and  C_6
REMARK    5  A    between atoms: S_17  and  C_18
REMARK    6  A    between atoms: C_21  and  C_23
REMARK                            x       y       z     vdW  Elec       q    Type
REMARK                         _______ _______ _______ _____ _____    ______ ____
ROOT
ATOM      1  C   UNL     1       3.207  -6.307  -1.370  0.00  0.00    +0.028 C 
ATOM      2  C   UNL     1       3.988  -6.108  -0.069  0.00  0.00    +0.124 C 
ENDROOT
BRANCH   2   3
ATOM      3  C   UNL     1       5.062  -7.159   0.038  0.00  0.00    +0.176 C 
ATOM      4  O   UNL     1       6.189  -6.915  -0.337  0.00  0.00    -0.291 OA
BRANCH   3   5
ATOM      5  C   UNL     1       4.744  -8.480   0.597  0.00  0.00    +0.020 A 
ATOM      6  C   UNL     1       3.443  -8.764   1.030  0.00  0.00    +0.015 A 
ATOM      7  C   UNL     1       3.145 -10.002   1.553  0.00  0.00    +0.048 A 
ATOM      8  C   UNL     1       4.132 -10.973   1.652  0.00  0.00    +0.142 A 
ATOM      9  C   UNL     1       5.433 -10.697   1.222  0.00  0.00    +0.076 A 
ATOM     10  C   UNL     1       5.740  -9.460   0.692  0.00  0.00    +0.038 A 
ATOM     11  N   UNL     1       6.417 -11.691   1.332  0.00  0.00    -0.280 N 
ATOM     12  C   UNL     1       6.034 -12.969   1.543  0.00  0.00    +0.255 C 
ATOM     13  O   UNL     1       6.867 -13.841   1.671  0.00  0.00    -0.272 OA
ATOM     14  C   UNL     1       4.567 -13.306   1.620  0.00  0.00    +0.325 C 
ATOM     15  O   UNL     1       3.846 -12.197   2.164  0.00  0.00    -0.481 OA
ATOM     16  H   UNL     1       7.480 -11.424   1.245  0.00  0.00    +0.155 HD
ENDBRANCH   3   5
ENDBRANCH   2   3
BRANCH   2  17
ATOM     17  S   UNL     1       4.748  -4.465  -0.068  0.00  0.00    -0.055 S 
BRANCH  17  18
ATOM     18  C   UNL     1       3.302  -3.458  -0.048  0.00  0.00    +0.278 A 
ATOM     19  N   UNL     1       2.062  -3.883  -0.038  0.00  0.00    -0.101 NA
ATOM     20  N   UNL     1       1.264  -2.874  -0.020  0.00  0.00    -0.106 NA
ATOM     21  C   UNL     1       1.963  -1.764  -0.026  0.00  0.00    +0.251 A 
ATOM     22  O   UNL     1       3.269  -2.111  -0.041  0.00  0.00    -0.411 OA
BRANCH  21  23
ATOM     23  C   UNL     1       1.423  -0.391  -0.014  0.00  0.00    +0.063 A 
ATOM     24  C   UNL     1       2.140   0.763  -0.014  0.00  0.00    +0.097 A 
ATOM     25  N   UNL     1       1.292   1.832  -0.000  0.00  0.00    -0.360 N 
ATOM     26  H   UNL     1       1.697   2.855   0.001  0.00  0.00    +0.165 HD
ATOM     27  C   UNL     1      -0.017   1.401   0.010  0.00  0.00    +0.047 A 
ATOM     28  C   UNL     1       0.002  -0.004   0.002  0.00  0.00    +0.012 A 
ATOM     29  C   UNL     1      -1.194  -0.718   0.010  0.00  0.00    +0.011 A 
ATOM     30  C   UNL     1      -2.393  -0.040   0.025  0.00  0.00    +0.001 A 
ATOM     31  C   UNL     1      -2.413   1.347   0.034  0.00  0.00    +0.002 A 
ATOM     32  C   UNL     1      -1.238   2.067   0.030  0.00  0.00    +0.026 A 
ENDBRANCH  21  23
ENDBRANCH  17  18
ENDBRANCH   2  17
TORSDOF 5
