REMARK  Name = ZINC67049504
REMARK  6 active torsions:
REMARK  status: ('A' for Active; 'I' for Inactive)
REMARK    1  A    between atoms: C_1  and  C_2
REMARK    2  A    between atoms: C_13  and  C_15
REMARK    3  A    between atoms: N_17  and  C_18
REMARK    4  A    between atoms: C_21  and  N_24
REMARK    5  A    between atoms: N_24  and  C_25
REMARK    6  A    between atoms: C_25  and  C_26
REMARK                            x       y       z     vdW  Elec       q    Type
REMARK                         _______ _______ _______ _____ _____    ______ ____
ROOT
ATOM      1  C   UNL     1       0.578  -2.546   0.203  0.00  0.00    +0.238 C 
ATOM      2  O   UNL     1       0.824  -1.807   1.133  0.00  0.00    -0.273 OA
ATOM      3  N   UNL     1       0.410  -3.866   0.417  0.00  0.00    -0.284 N 
ATOM      4  H   UNL     1       0.134  -4.444  -0.311  0.00  0.00    +0.155 HD
ENDROOT
BRANCH   1  17
ATOM      5  C   UNL     1       3.967  -0.419  -1.077  0.00  0.00    +0.109 C 
ATOM      6  C   UNL     1       2.741  -1.211  -0.701  0.00  0.00    +0.213 C 
ATOM      7  O   UNL     1       2.674  -1.744   0.387  0.00  0.00    -0.276 OA
ATOM      8  N   UNL     1       1.719  -1.326  -1.572  0.00  0.00    -0.285 N 
ATOM      9  C   UNL     1       1.819  -0.802  -2.938  0.00  0.00    +0.144 C 
ATOM     10  C   UNL     1       0.550  -0.070  -3.296  0.00  0.00    -0.027 A 
ATOM     11  C   UNL     1       0.549   0.699  -4.451  0.00  0.00    +0.005 A 
ATOM     12  C   UNL     1      -0.585   1.384  -4.836  0.00  0.00    +0.000 A 
ATOM     13  C   UNL     1      -1.730   1.302  -4.065  0.00  0.00    +0.000 A 
ATOM     14  C   UNL     1      -1.730   0.541  -2.915  0.00  0.00    +0.004 A 
ATOM     15  C   UNL     1      -0.587  -0.145  -2.522  0.00  0.00    -0.040 A 
ATOM     16  C   UNL     1      -0.652  -0.934  -1.240  0.00  0.00    +0.067 C 
ATOM     17  C   UNL     1       0.460  -1.988  -1.192  0.00  0.00    +0.167 C 
ENDBRANCH   1  17
BRANCH   3  18
ATOM     18  C   UNL     1       0.635  -4.403   1.692  0.00  0.00    +0.034 A 
ATOM     19  C   UNL     1       0.303  -3.669   2.823  0.00  0.00    +0.025 A 
ATOM     20  C   UNL     1       0.523  -4.198   4.079  0.00  0.00    +0.025 A 
ATOM     21  C   UNL     1       1.077  -5.465   4.212  0.00  0.00    +0.027 A 
ATOM     22  C   UNL     1       1.409  -6.199   3.080  0.00  0.00    +0.025 A 
ATOM     23  C   UNL     1       1.183  -5.672   1.825  0.00  0.00    +0.025 A 
BRANCH  21  24
ATOM     24  N   UNL     1       1.301  -6.001   5.484  0.00  0.00    -0.344 N 
ATOM     25  H   UNL     1       1.069  -5.488   6.274  0.00  0.00    +0.146 HD
BRANCH  24  26
ATOM     26  C   UNL     1       1.885  -7.337   5.624  0.00  0.00    +0.105 C 
BRANCH  26  27
ATOM     27  C   UNL     1       2.023  -7.681   7.108  0.00  0.00    +0.006 C 
ATOM     28  C   UNL     1       3.086  -6.775   7.764  0.00  0.00    +0.005 C 
ATOM     29  C   UNL     1       3.803  -7.703   8.776  0.00  0.00    +0.000 C 
ATOM     30  C   UNL     1       3.865  -9.052   8.019  0.00  0.00    +0.000 C 
ATOM     31  C   UNL     1       2.518  -9.128   7.270  0.00  0.00    +0.005 C 
ENDBRANCH  26  27
ENDBRANCH  24  26
ENDBRANCH  21  24
ENDBRANCH   3  18
TORSDOF 5
