REMARK  Name = ZINC36206939
REMARK  17 active torsions:
REMARK  status: ('A' for Active; 'I' for Inactive)
REMARK    1  A    between atoms: C_1  and  C_2
REMARK    2  A    between atoms: C_2  and  C_3
REMARK    3  A    between atoms: C_3  and  C_4
REMARK    4  A    between atoms: C_4  and  O_6
REMARK    5  A    between atoms: O_6  and  C_7
REMARK    6  A    between atoms: C_7  and  C_8
REMARK    7  A    between atoms: C_8  and  C_10
REMARK    8  A    between atoms: C_8  and  O_36
REMARK    9  A    between atoms: C_10  and  N_11
REMARK   10  A    between atoms: N_11  and  C_12
REMARK   11  A    between atoms: N_11  and  C_19
REMARK   12  A    between atoms: C_12  and  C_13
REMARK   13  A    between atoms: C_19  and  C_20
REMARK   14  A    between atoms: C_26  and  C_35
REMARK   15  A    between atoms: C_27  and  C_31
REMARK   16  A    between atoms: C_31  and  O_33
REMARK   17  A    between atoms: O_33  and  C_34
REMARK                            x       y       z     vdW  Elec       q    Type
REMARK                         _______ _______ _______ _____ _____    ______ ____
ROOT
ATOM      1  N   UNL     1      -5.312  -6.703   0.066  0.00  0.00    +0.389 N 
ATOM      2  H   UNL     1      -5.950  -6.328   0.752  0.00  0.00    -0.081 HD
ENDROOT
BRANCH   1   3
ATOM      3  C   UNL     1      -4.005  -6.047   0.203  0.00  0.00    -0.043 C 
BRANCH   3   4
ATOM      4  C   UNL     1      -4.205  -4.538   0.354  0.00  0.00    +0.136 C 
BRANCH   4   5
ATOM      5  O   UNL     1      -4.715  -4.000  -0.867  0.00  0.00    -0.390 OA
ATOM      6  H   UNL     1      -4.153  -4.167  -1.636  0.00  0.00    +0.210 HD
ENDBRANCH   4   5
BRANCH   4   7
ATOM      7  C   UNL     1      -2.864  -3.877   0.681  0.00  0.00    +0.261 C 
BRANCH   7   8
ATOM      8  O   UNL     1      -3.070  -2.486   0.937  0.00  0.00    -0.462 OA
BRANCH   8   9
ATOM      9  C   UNL     1      -1.985  -1.756   1.242  0.00  0.00    +0.307 C 
ATOM     10  O   UNL     1      -0.898  -2.280   1.290  0.00  0.00    -0.251 OA
BRANCH   9  11
ATOM     11  C   UNL     1      -2.124  -0.282   1.524  0.00  0.00    +0.120 C 
BRANCH  11  13
ATOM     12  C   UNL     1      -0.889   1.805   2.129  0.00  0.00    +0.004 C 
ATOM     13  C   UNL     1      -0.749   0.308   1.842  0.00  0.00    +0.008 C 
ENDBRANCH  11  13
ENDBRANCH   9  11
ENDBRANCH   8   9
ENDBRANCH   7   8
ENDBRANCH   4   7
ENDBRANCH   3   4
ENDBRANCH   1   3
BRANCH   1  14
ATOM     14  C   UNL     1      -5.844  -6.460  -1.281  0.00  0.00    -0.042 C 
BRANCH  14  15
ATOM     15  C   UNL     1      -4.985  -7.170  -2.296  0.00  0.00    -0.064 A 
ATOM     16  C   UNL     1      -3.859  -6.549  -2.804  0.00  0.00    +0.002 A 
ATOM     17  C   UNL     1      -3.071  -7.200  -3.734  0.00  0.00    +0.000 A 
ATOM     18  C   UNL     1      -3.408  -8.472  -4.156  0.00  0.00    +0.000 A 
ATOM     19  C   UNL     1      -4.533  -9.094  -3.648  0.00  0.00    +0.000 A 
ATOM     20  C   UNL     1      -5.319  -8.444  -2.714  0.00  0.00    +0.002 A 
ENDBRANCH  14  15
ENDBRANCH   1  14
BRANCH   1  21
ATOM     21  C   UNL     1      -5.160  -8.149   0.279  0.00  0.00    -0.003 C 
BRANCH  21  22
ATOM     22  C   UNL     1      -6.519  -8.798   0.310  0.00  0.00    +0.094 A 
ATOM     23  N   UNL     1      -6.605 -10.136   0.512  0.00  0.00    -0.312 N 
ATOM     24  H   UNL     1      -5.792 -10.651   0.632  0.00  0.00    +0.170 HD
ATOM     25  C   UNL     1      -7.796 -10.764   0.549  0.00  0.00    +0.260 A 
ATOM     26  O   UNL     1      -7.863 -11.967   0.732  0.00  0.00    -0.267 OA
ATOM     27  C   UNL     1      -9.023  -9.956   0.363  0.00  0.00    +0.076 A 
ATOM     28  C   UNL     1     -10.357 -10.365   0.360  0.00  0.00    -0.015 A 
ATOM     29  C   UNL     1     -11.349  -9.446   0.169  0.00  0.00    +0.102 A 
ATOM     30  S   UNL     1     -10.442  -7.920  -0.021  0.00  0.00    -0.062 S 
ATOM     31  C   UNL     1      -8.802  -8.574   0.161  0.00  0.00    +0.116 A 
ATOM     32  N   UNL     1      -7.580  -8.055   0.148  0.00  0.00    -0.229 NA
ATOM     33  C   UNL     1     -10.703 -11.817   0.567  0.00  0.00    +0.046 C 
BRANCH  29  34
ATOM     34  C   UNL     1     -12.797  -9.659   0.130  0.00  0.00    +0.346 C 
ATOM     35  O   UNL     1     -13.252 -10.777   0.280  0.00  0.00    -0.244 OA
BRANCH  34  36
ATOM     36  O   UNL     1     -13.627  -8.615  -0.072  0.00  0.00    -0.464 OA
ATOM     37  C   UNL     1     -15.028  -8.896  -0.098  0.00  0.00    +0.280 C 
ENDBRANCH  34  36
ENDBRANCH  29  34
ENDBRANCH  21  22
ENDBRANCH   1  21
TORSDOF 14
