REMARK  Name = ZINC39634951
REMARK  8 active torsions:
REMARK  status: ('A' for Active; 'I' for Inactive)
REMARK    1  A    between atoms: C_1  and  O_2
REMARK    2  A    between atoms: O_2  and  C_3
REMARK    3  A    between atoms: C_6  and  C_9
REMARK    4  A    between atoms: C_9  and  C_10
REMARK    5  A    between atoms: C_10  and  N_11
REMARK    6  A    between atoms: C_12  and  C_14
REMARK    7  A    between atoms: C_25  and  C_27
REMARK    8  A    between atoms: C_30  and  C_33
REMARK                            x       y       z     vdW  Elec       q    Type
REMARK                         _______ _______ _______ _____ _____    ______ ____
ROOT
ATOM      1  C   UNL     1      -8.092  -4.927  -2.693  0.00  0.00    +0.100 C 
ATOM      2  C   UNL     1      -8.262  -6.295  -1.996  0.00  0.00    +0.121 C 
ATOM      3  N   UNL     1      -9.247  -7.021  -2.832  0.00  0.00    -0.296 N 
ATOM      4  C   UNL     1      -8.882  -6.667  -4.224  0.00  0.00    +0.115 C 
ATOM      5  C   UNL     1      -8.499  -5.175  -4.156  0.00  0.00    -0.004 C 
ATOM      6  C   UNL     1      -7.325  -4.889  -5.087  0.00  0.00    -0.010 C 
ATOM      7  C   UNL     1      -7.770  -5.086  -6.538  0.00  0.00    -0.082 C 
ATOM      8  N   UNL     1      -8.889  -4.183  -6.836  0.00  0.00    +0.379 N 
ATOM      9  C   UNL     1     -10.046  -4.526  -6.001  0.00  0.00    -0.082 C 
ATOM     10  C   UNL     1      -9.696  -4.305  -4.526  0.00  0.00    -0.010 C 
ATOM     11  C   UNL     1     -10.249  -7.823  -2.420  0.00  0.00    +0.247 C 
ATOM     12  O   UNL     1     -10.505  -7.915  -1.235  0.00  0.00    -0.270 OA
ATOM     13  H   UNL     1      -8.610  -3.232  -6.648  0.00  0.00    -0.086 HD
ATOM     14  H   UNL     1      -9.140  -4.271  -7.809  0.00  0.00    -0.086 HD
ENDROOT
BRANCH  11  15
ATOM     15  C   UNL     1     -11.037  -8.589  -3.408  0.00  0.00    +0.037 A 
ATOM     16  C   UNL     1     -10.516  -8.840  -4.678  0.00  0.00    +0.013 A 
ATOM     17  C   UNL     1     -11.256  -9.556  -5.596  0.00  0.00    +0.013 A 
ATOM     18  C   UNL     1     -12.514 -10.025  -5.259  0.00  0.00    +0.055 A 
ATOM     19  C   UNL     1     -13.037  -9.780  -4.002  0.00  0.00    +0.013 A 
ATOM     20  C   UNL     1     -12.304  -9.070  -3.073  0.00  0.00    +0.013 A 
BRANCH  18  21
ATOM     21  C   UNL     1     -13.317 -10.806  -6.267  0.00  0.00    +0.417 C 
ATOM     22  F   UNL     1     -13.029 -12.169  -6.137  0.00  0.00    -0.166 F 
ATOM     23  F   UNL     1     -14.681 -10.594  -6.041  0.00  0.00    -0.166 F 
ATOM     24  F   UNL     1     -12.987 -10.381  -7.558  0.00  0.00    -0.166 F 
ENDBRANCH  18  21
ENDBRANCH  11  15
BRANCH   1  26
ATOM     25  N   UNL     1      -6.367  -3.158  -2.584  0.00  0.00    -0.315 N 
ATOM     26  C   UNL     1      -6.657  -4.474  -2.618  0.00  0.00    +0.218 C 
ATOM     27  O   UNL     1      -5.763  -5.293  -2.587  0.00  0.00    -0.275 OA
ATOM     28  H   UNL     1      -7.081  -2.503  -2.609  0.00  0.00    +0.149 HD
BRANCH  25  29
ATOM     29  C   UNL     1      -4.971  -2.718  -2.511  0.00  0.00    +0.109 C 
BRANCH  29  30
ATOM     30  C   UNL     1      -4.920  -1.189  -2.486  0.00  0.00    +0.054 C 
BRANCH  30  34
ATOM     31  C   UNL     1      -0.850   0.096  -2.271  0.00  0.00    +0.120 A 
ATOM     32  C   UNL     1      -1.454  -0.095  -3.505  0.00  0.00    +0.046 A 
ATOM     33  C   UNL     1      -2.769  -0.510  -3.572  0.00  0.00    +0.007 A 
ATOM     34  C   UNL     1      -3.484  -0.736  -2.410  0.00  0.00    -0.046 A 
ATOM     35  C   UNL     1      -2.885  -0.545  -1.179  0.00  0.00    +0.007 A 
ATOM     36  C   UNL     1      -1.567  -0.136  -1.106  0.00  0.00    +0.046 A 
BRANCH  31  38
ATOM     37  C   UNL     1       1.122   0.725  -3.442  0.00  0.00    +0.277 C 
ATOM     38  O   UNL     1       0.445   0.505  -2.203  0.00  0.00    -0.495 OA
ENDBRANCH  31  38
ENDBRANCH  30  34
ENDBRANCH  29  30
ENDBRANCH  25  29
ENDBRANCH   1  26
TORSDOF 7
