REMARK  Name = ZINC04774056
REMARK  0 active torsions:
REMARK  status: ('A' for Active; 'I' for Inactive)
REMARK                            x       y       z     vdW  Elec       q    Type
REMARK                         _______ _______ _______ _____ _____    ______ ____
ROOT
ATOM      1  C   UNL     1       2.974   1.750  -6.947  0.00  0.00    +0.002 A 
ATOM      2  C   UNL     1       1.613   1.625  -7.154  0.00  0.00    +0.004 A 
ATOM      3  C   UNL     1       0.726   1.904  -6.130  0.00  0.00    +0.047 A 
ATOM      4  C   UNL     1       1.201   2.308  -4.893  0.00  0.00    +0.141 A 
ATOM      5  C   UNL     1       2.573   2.434  -4.684  0.00  0.00    +0.069 A 
ATOM      6  C   UNL     1       3.456   2.153  -5.716  0.00  0.00    +0.026 A 
ATOM      7  N   UNL     1       3.060   2.848  -3.436  0.00  0.00    -0.339 N 
ATOM      8  C   UNL     1       4.511   2.913  -3.222  0.00  0.00    +0.129 C 
ATOM      9  C   UNL     1       4.800   3.732  -1.961  0.00  0.00    +0.178 C 
ATOM     10  O   UNL     1       4.491   2.951  -0.805  0.00  0.00    -0.377 OA
ATOM     11  C   UNL     1       4.765   3.608   0.434  0.00  0.00    +0.178 C 
ATOM     12  C   UNL     1       4.280   2.737   1.594  0.00  0.00    +0.129 C 
ATOM     13  N   UNL     1       2.801   2.766   1.626  0.00  0.00    -0.339 N 
ATOM     14  C   UNL     1       2.191   2.372   2.836  0.00  0.00    +0.069 A 
ATOM     15  C   UNL     1       2.973   2.037   3.929  0.00  0.00    +0.026 A 
ATOM     16  C   UNL     1       2.372   1.657   5.116  0.00  0.00    +0.002 A 
ATOM     17  C   UNL     1       0.993   1.610   5.211  0.00  0.00    +0.004 A 
ATOM     18  C   UNL     1       0.208   1.940   4.123  0.00  0.00    +0.047 A 
ATOM     19  C   UNL     1       0.803   2.321   2.930  0.00  0.00    +0.141 A 
ATOM     20  O   UNL     1       0.029   2.639   1.858  0.00  0.00    -0.492 OA
ATOM     21  C   UNL     1      -0.728   1.579   1.267  0.00  0.00    +0.210 C 
ATOM     22  C   UNL     1      -0.013   1.086   0.008  0.00  0.00    -0.041 C 
ATOM     23  C   UNL     1      -0.324   0.808  -2.374  0.00  0.00    -0.041 C 
ATOM     24  C   UNL     1      -0.684   1.599  -3.632  0.00  0.00    +0.210 C 
ATOM     25  O   UNL     1       0.327   2.578  -3.886  0.00  0.00    -0.492 OA
ATOM     26  H   UNL     1       2.447   3.089  -2.723  0.00  0.00    +0.146 HD
ATOM     27  H   UNL     1       2.279   3.041   0.857  0.00  0.00    +0.146 HD
ATOM     28  N   UNL     1      -0.728   1.579  -1.183  0.00  0.00    +0.383 N 
ATOM     29  H   UNL     1      -0.503   2.570  -1.328  0.00  0.00    -0.086 HD
ATOM     30  H   UNL     1      -1.740   1.474  -1.039  0.00  0.00    -0.086 HD
ENDROOT
TORSDOF 0
