REMARK  Name = ZINC01083299
REMARK  8 active torsions:
REMARK  status: ('A' for Active; 'I' for Inactive)
REMARK    1  A    between atoms: C_1  and  C_2
REMARK    2  A    between atoms: C_3  and  C_12
REMARK    3  A    between atoms: N_10  and  C_11
REMARK    4  A    between atoms: N_13  and  N_14
REMARK    5  A    between atoms: C_15  and  C_17
REMARK    6  A    between atoms: C_17  and  C_18
REMARK    7  A    between atoms: C_17  and  C_24
REMARK    8  A    between atoms: C_17  and  O_30
REMARK                            x       y       z     vdW  Elec       q    Type
REMARK                         _______ _______ _______ _____ _____    ______ ____
ROOT
ATOM      1  N   UNL     1       4.914   7.071  -2.168  0.00  0.00    -0.204 N 
ATOM      2  C   UNL     1       5.548   7.940  -1.356  0.00  0.00    +0.273 C 
ATOM      3  O   UNL     1       6.585   8.458  -1.713  0.00  0.00    -0.270 OA
ATOM      4  H   UNL     1       4.084   6.657  -1.882  0.00  0.00    +0.177 HD
ENDROOT
BRANCH   1   6
ATOM      5  C   UNL     1       4.843   5.926  -4.206  0.00  0.00    +0.140 C 
ATOM      6  N   UNL     1       5.454   6.764  -3.424  0.00  0.00    -0.188 NA
BRANCH   5   9
ATOM      7  C   UNL     1       3.613   3.967  -6.282  0.00  0.00    +0.064 C 
ATOM      8  C   UNL     1       4.890   4.751  -6.448  0.00  0.00    +0.025 A 
ATOM      9  C   UNL     1       5.411   5.604  -5.525  0.00  0.00    +0.023 A 
ATOM     10  C   UNL     1       6.654   6.142  -6.105  0.00  0.00    +0.009 A 
ATOM     11  C   UNL     1       7.619   7.043  -5.657  0.00  0.00    +0.010 A 
ATOM     12  C   UNL     1       8.694   7.345  -6.462  0.00  0.00    +0.001 A 
ATOM     13  C   UNL     1       8.820   6.759  -7.714  0.00  0.00    +0.002 A 
ATOM     14  C   UNL     1       7.871   5.872  -8.171  0.00  0.00    +0.026 A 
ATOM     15  C   UNL     1       6.780   5.548  -7.371  0.00  0.00    +0.050 A 
ATOM     16  N   UNL     1       5.697   4.713  -7.546  0.00  0.00    -0.346 N 
ATOM     17  C   UNL     1       5.449   3.901  -8.740  0.00  0.00    +0.149 C 
ENDBRANCH   5   9
ENDBRANCH   1   6
BRANCH   2  18
ATOM     18  C   UNL     1       4.967   8.270  -0.005  0.00  0.00    +0.194 C 
BRANCH  18  19
ATOM     19  C   UNL     1       6.068   8.724   0.918  0.00  0.00    -0.003 A 
ATOM     20  C   UNL     1       6.388   7.973   2.034  0.00  0.00    +0.007 A 
ATOM     21  C   UNL     1       7.401   8.386   2.878  0.00  0.00    +0.000 A 
ATOM     22  C   UNL     1       8.089   9.556   2.612  0.00  0.00    +0.000 A 
ATOM     23  C   UNL     1       7.765  10.310   1.499  0.00  0.00    +0.000 A 
ATOM     24  C   UNL     1       6.755   9.893   0.652  0.00  0.00    +0.007 A 
ENDBRANCH  18  19
BRANCH  18  25
ATOM     25  C   UNL     1       3.949   9.372  -0.151  0.00  0.00    -0.003 A 
ATOM     26  C   UNL     1       4.193  10.430  -1.007  0.00  0.00    +0.007 A 
ATOM     27  C   UNL     1       3.257  11.438  -1.145  0.00  0.00    +0.000 A 
ATOM     28  C   UNL     1       2.081  11.392  -0.419  0.00  0.00    +0.000 A 
ATOM     29  C   UNL     1       1.839  10.337   0.440  0.00  0.00    +0.000 A 
ATOM     30  C   UNL     1       2.773   9.327   0.574  0.00  0.00    +0.007 A 
ENDBRANCH  18  25
BRANCH  18  31
ATOM     31  O   UNL     1       4.337   7.109   0.539  0.00  0.00    -0.371 OA
ATOM     32  H   UNL     1       4.934   6.358   0.661  0.00  0.00    +0.212 HD
ENDBRANCH  18  31
ENDBRANCH   2  18
TORSDOF 6
