REMARK  Name = ZINC12482360
REMARK  7 active torsions:
REMARK  status: ('A' for Active; 'I' for Inactive)
REMARK    1  A    between atoms: N_11  and  C_12
REMARK    2  A    between atoms: C_18  and  C_20
REMARK    3  A    between atoms: C_20  and  C_21
REMARK    4  A    between atoms: C_26  and  C_28
REMARK    5  A    between atoms: C_28  and  C_29
REMARK    6  A    between atoms: C_31  and  C_34
REMARK    7  A    between atoms: C_34  and  C_35
REMARK                            x       y       z     vdW  Elec       q    Type
REMARK                         _______ _______ _______ _____ _____    ______ ____
ROOT
ATOM      1  C   UNL     1      -4.604  -0.659  -3.308  0.00  0.00    -0.002 C 
ATOM      2  C   UNL     1      -4.547   0.292  -4.507  0.00  0.00    -0.015 C 
ATOM      3  C   UNL     1      -5.018  -0.448  -5.761  0.00  0.00    -0.082 C 
ATOM      4  C   UNL     1      -6.463  -1.880  -4.443  0.00  0.00    -0.079 C 
ATOM      5  C   UNL     1      -6.034  -1.184  -3.149  0.00  0.00    -0.019 C 
ATOM      6  N   UNL     1      -6.401  -0.926  -5.567  0.00  0.00    +0.379 N 
ATOM      7  H   UNL     1      -6.721  -1.391  -6.424  0.00  0.00    -0.086 HD
ATOM      8  H   UNL     1      -7.010  -0.124  -5.364  0.00  0.00    -0.086 HD
ENDROOT
BRANCH   1   9
ATOM      9  C   UNL     1      -4.192   0.092  -2.040  0.00  0.00    +0.099 C 
BRANCH   9  16
ATOM     10  C   UNL     1      -0.730   1.580   1.266  0.00  0.00    +0.095 C 
ATOM     11  C   UNL     1      -0.013   1.086   0.008  0.00  0.00    +0.044 C 
ATOM     12  C   UNL     1      -0.755   1.594  -1.232  0.00  0.00    +0.110 C 
ATOM     13  N   UNL     1      -2.163   1.185  -1.141  0.00  0.00    -0.301 N 
ATOM     14  C   UNL     1      -2.923   1.530   0.068  0.00  0.00    +0.110 C 
ATOM     15  C   UNL     1      -2.156   1.023   1.294  0.00  0.00    +0.044 C 
ATOM     16  C   UNL     1      -2.747   0.505  -2.148  0.00  0.00    +0.216 C 
ATOM     17  O   UNL     1      -2.109   0.226  -3.141  0.00  0.00    -0.276 OA
BRANCH  10  28
ATOM     18  C   UNL     1       1.849   3.010   5.635  0.00  0.00    +0.002 A 
ATOM     19  C   UNL     1       1.262   3.846   4.701  0.00  0.00    +0.002 A 
ATOM     20  C   UNL     1       0.618   3.317   3.600  0.00  0.00    +0.028 A 
ATOM     21  C   UNL     1       0.563   1.942   3.427  0.00  0.00    +0.070 A 
ATOM     22  C   UNL     1       1.149   1.099   4.373  0.00  0.00    +0.067 A 
ATOM     23  C   UNL     1       1.794   1.640   5.475  0.00  0.00    +0.028 A 
ATOM     24  N   UNL     1       0.929  -0.206   3.939  0.00  0.00    -0.306 N 
ATOM     25  H   UNL     1       1.224  -1.012   4.392  0.00  0.00    +0.170 HD
ATOM     26  C   UNL     1       0.235  -0.159   2.786  0.00  0.00    +0.328 A 
ATOM     27  O   UNL     1      -0.121  -1.128   2.143  0.00  0.00    -0.247 OA
ATOM     28  N   UNL     1      -0.004   1.124   2.454  0.00  0.00    -0.289 N 
ENDBRANCH  10  28
ENDBRANCH   9  16
ENDBRANCH   1   9
BRANCH   5  29
ATOM     29  C   UNL     1      -6.979  -0.015  -2.862  0.00  0.00    +0.061 C 
BRANCH  29  30
ATOM     30  C   UNL     1      -8.362  -0.544  -2.585  0.00  0.00    +0.084 A 
ATOM     31  C   UNL     1      -9.149  -0.298  -1.436  0.00  0.00    +0.071 A 
ATOM     32  C   UNL     1     -10.292  -0.987  -1.669  0.00  0.00    +0.138 A 
ATOM     33  O   UNL     1     -10.142  -1.580  -2.861  0.00  0.00    -0.359 OA
ATOM     34  N   UNL     1      -9.068  -1.324  -3.353  0.00  0.00    -0.083 NA
BRANCH  32  35
ATOM     35  C   UNL     1     -11.493  -1.074  -0.762  0.00  0.00    +0.080 C 
BRANCH  35  36
ATOM     36  C   UNL     1     -12.472   0.052  -1.102  0.00  0.00    -0.004 C 
ATOM     37  C   UNL     1     -11.824   1.403  -0.788  0.00  0.00    +0.004 C 
ATOM     38  C   UNL     1     -12.803   2.529  -1.128  0.00  0.00    +0.000 C 
ATOM     39  C   UNL     1     -14.076   2.367  -0.295  0.00  0.00    +0.000 C 
ATOM     40  C   UNL     1     -14.723   1.017  -0.609  0.00  0.00    +0.000 C 
ATOM     41  C   UNL     1     -13.745  -0.109  -0.269  0.00  0.00    +0.004 C 
ENDBRANCH  35  36
ENDBRANCH  32  35
ENDBRANCH  29  30
ENDBRANCH   5  29
TORSDOF 7
