REMARK  Name = ZINC64610200
REMARK  6 active torsions:
REMARK  status: ('A' for Active; 'I' for Inactive)
REMARK    1  A    between atoms: C_1  and  C_2
REMARK    2  A    between atoms: C_5  and  N_8
REMARK    3  A    between atoms: C_12  and  N_15
REMARK    4  A    between atoms: N_15  and  C_16
REMARK    5  A    between atoms: N_22  and  C_27
REMARK    6  A    between atoms: N_25  and  C_26
REMARK                            x       y       z     vdW  Elec       q    Type
REMARK                         _______ _______ _______ _____ _____    ______ ____
ROOT
ATOM      1  N   UNL     1       0.059  -4.172  -0.021  0.00  0.00    -0.209 N 
ATOM      2  C   UNL     1      -0.030  -4.892  -1.146  0.00  0.00    +0.228 C 
ATOM      3  O   UNL     1      -0.134  -4.436  -2.265  0.00  0.00    -0.275 OA
ATOM      4  C   UNL     1       0.020  -6.364  -0.801  0.00  0.00    +0.128 C 
ATOM      5  C   UNL     1       0.155  -6.371   0.735  0.00  0.00    +0.166 C 
ATOM      6  C   UNL     1       0.172  -4.902   1.096  0.00  0.00    +0.247 C 
ATOM      7  O   UNL     1       0.271  -4.455   2.219  0.00  0.00    -0.273 OA
ENDROOT
BRANCH   1  12
ATOM      8  C   UNL     1      -0.016   1.503   0.009  0.00  0.00    +0.044 C 
ATOM      9  C   UNL     1       0.004  -0.004   0.001  0.00  0.00    -0.050 A 
ATOM     10  C   UNL     1       1.156  -0.681   0.357  0.00  0.00    +0.005 A 
ATOM     11  C   UNL     1       1.177  -2.062   0.351  0.00  0.00    +0.024 A 
ATOM     12  C   UNL     1       0.040  -2.771  -0.013  0.00  0.00    +0.044 A 
ATOM     13  C   UNL     1      -1.115  -2.088  -0.370  0.00  0.00    +0.024 A 
ATOM     14  C   UNL     1      -1.132  -0.707  -0.357  0.00  0.00    +0.005 A 
ENDBRANCH   1  12
BRANCH   5  15
ATOM     15  N   UNL     1      -0.992  -7.044   1.350  0.00  0.00    -0.332 N 
ATOM     16  H   UNL     1      -1.839  -7.086   0.880  0.00  0.00    +0.147 HD
BRANCH  15  17
ATOM     17  C   UNL     1      -0.864  -7.628   2.616  0.00  0.00    +0.030 A 
ATOM     18  C   UNL     1       0.350  -7.562   3.290  0.00  0.00    +0.025 A 
ATOM     19  C   UNL     1       0.482  -8.136   4.539  0.00  0.00    +0.030 A 
ATOM     20  C   UNL     1      -0.599  -8.779   5.123  0.00  0.00    +0.070 A 
ATOM     21  C   UNL     1      -1.819  -8.846   4.449  0.00  0.00    +0.071 A 
ATOM     22  C   UNL     1      -1.950  -8.265   3.197  0.00  0.00    +0.051 A 
ATOM     23  N   UNL     1      -2.698  -9.542   5.274  0.00  0.00    -0.295 N 
ATOM     24  C   UNL     1      -2.044  -9.883   6.400  0.00  0.00    +0.330 A 
ATOM     25  O   UNL     1      -2.527 -10.501   7.331  0.00  0.00    -0.246 OA
ATOM     26  N   UNL     1      -0.775  -9.438   6.341  0.00  0.00    -0.295 N 
ATOM     27  C   UNL     1       0.246  -9.614   7.377  0.00  0.00    +0.154 C 
ATOM     28  C   UNL     1      -4.098  -9.850   4.970  0.00  0.00    +0.154 C 
ENDBRANCH  15  17
ENDBRANCH   5  15
TORSDOF 3
