REMARK  Name = ZINC65074698
REMARK  5 active torsions:
REMARK  status: ('A' for Active; 'I' for Inactive)
REMARK    1  A    between atoms: C_1  and  C_2
REMARK    2  A    between atoms: N_4  and  C_5
REMARK    3  A    between atoms: C_8  and  S_11
REMARK    4  A    between atoms: S_11  and  N_14
REMARK    5  A    between atoms: N_25  and  C_26
REMARK                            x       y       z     vdW  Elec       q    Type
REMARK                         _______ _______ _______ _____ _____    ______ ____
ROOT
ATOM      1  N   UNL     1      -0.878  -7.002   1.964  0.00  0.00    -0.176 NA
ATOM      2  C   UNL     1       0.365  -7.106   2.740  0.00  0.00    +0.111 C 
ATOM      3  C   UNL     1       0.406  -8.476   3.424  0.00  0.00    +0.047 C 
ATOM      4  C   UNL     1      -0.867  -8.667   4.252  0.00  0.00    +0.075 C 
ATOM      5  C   UNL     1      -2.087  -8.626   3.327  0.00  0.00    +0.047 C 
ATOM      6  C   UNL     1      -2.157  -7.253   2.643  0.00  0.00    +0.111 C 
ATOM      7  C   UNL     1      -0.814  -9.994   4.955  0.00  0.00    +0.089 C 
ATOM      8  N   UNL     1      -0.552 -10.124   6.200  0.00  0.00    -0.374 N 
ATOM      9  C   UNL     1      -0.282  -9.003   7.095  0.00  0.00    +0.129 C 
ATOM     10  C   UNL     1       0.056  -7.752   6.281  0.00  0.00    +0.102 C 
ATOM     11  N   UNL     1      -0.971  -7.582   5.238  0.00  0.00    -0.303 NA
ATOM     12  N   UNL     1      -1.061 -11.125   4.223  0.00  0.00    -0.330 N 
ATOM     13  H   UNL     1      -0.888  -6.680   4.794  0.00  0.00    +0.123 HD
ATOM     14  H   UNL     1      -1.263 -11.056   3.277  0.00  0.00    +0.147 HD
ATOM     15  H   UNL     1      -0.532 -11.020   6.572  0.00  0.00    +0.161 HD
ENDROOT
BRANCH  12  16
ATOM     16  C   UNL     1      -1.019 -12.440   4.870  0.00  0.00    +0.071 C 
ATOM     17  C   UNL     1       0.448 -12.907   4.956  0.00  0.00    +0.022 C 
ATOM     18  C   UNL     1       0.553 -13.955   6.031  0.00  0.00    +0.002 C 
ATOM     19  C   UNL     1       0.429 -15.386   5.473  0.00  0.00    +0.000 C 
ATOM     20  C   UNL     1      -0.670 -15.517   4.402  0.00  0.00    +0.000 C 
ATOM     21  C   UNL     1      -1.920 -14.760   4.764  0.00  0.00    +0.002 C 
ATOM     22  C   UNL     1      -1.853 -13.363   4.114  0.00  0.00    +0.022 C 
ENDBRANCH  12  16
BRANCH   1  23
ATOM     23  S   UNL     1      -0.840  -6.603   0.357  0.00  0.00    +0.061 S 
ATOM     24  O   UNL     1      -2.038  -7.108  -0.216  0.00  0.00    -0.153 OA
ATOM     25  O   UNL     1       0.447  -6.970  -0.121  0.00  0.00    -0.153 OA
BRANCH  23  29
ATOM     26  C   UNL     1      -1.081  -2.089   0.091  0.00  0.00    +0.033 A 
ATOM     27  C   UNL     1       0.155  -2.716   0.178  0.00  0.00    +0.025 A 
ATOM     28  C   UNL     1       0.225  -4.092   0.259  0.00  0.00    +0.030 A 
ATOM     29  C   UNL     1      -0.934  -4.847   0.254  0.00  0.00    +0.106 A 
ATOM     30  C   UNL     1      -2.166  -4.226   0.168  0.00  0.00    +0.030 A 
ATOM     31  C   UNL     1      -2.244  -2.849   0.093  0.00  0.00    +0.025 A 
BRANCH  26  35
ATOM     32  C   UNL     1      -2.194   1.470   0.609  0.00  0.00    +0.109 C 
ATOM     33  C   UNL     1      -2.169  -0.037   0.608  0.00  0.00    +0.214 C 
ATOM     34  O   UNL     1      -3.061  -0.658   1.145  0.00  0.00    -0.276 OA
ATOM     35  N   UNL     1      -1.156  -0.694   0.009  0.00  0.00    -0.286 N 
ATOM     36  H   UNL     1      -0.478  -0.200  -0.478  0.00  0.00    +0.155 HD
ENDBRANCH  26  35
ENDBRANCH  23  29
ENDBRANCH   1  23
TORSDOF 4
