REMARK  Name = ZINC08635960
REMARK  7 active torsions:
REMARK  status: ('A' for Active; 'I' for Inactive)
REMARK    1  A    between atoms: C_1  and  S_2
REMARK    2  A    between atoms: S_2  and  C_3
REMARK    3  A    between atoms: C_7  and  N_9
REMARK    4  A    between atoms: N_12  and  C_13
REMARK    5  A    between atoms: C_13  and  C_14
REMARK    6  A    between atoms: C_22  and  C_24
REMARK    7  A    between atoms: C_24  and  N_74
REMARK                            x       y       z     vdW  Elec       q    Type
REMARK                         _______ _______ _______ _____ _____    ______ ____
ROOT
ATOM      1  C   UNL     1       1.121   3.432   4.971  0.00  0.00    -0.051 C 
ATOM      2  C   UNL     1       1.426   1.932   4.928  0.00  0.00    -0.010 C 
ATOM      3  C   UNL     1       2.216   1.624   3.650  0.00  0.00    -0.015 C 
ATOM      4  C   UNL     1       3.508   2.450   3.661  0.00  0.00    -0.015 C 
ATOM      5  C   UNL     1       3.144   3.936   3.739  0.00  0.00    -0.078 C 
ATOM      6  C   UNL     1       1.069   3.545   2.551  0.00  0.00    -0.076 C 
ATOM      7  C   UNL     1       1.374   2.049   2.440  0.00  0.00    -0.041 C 
ATOM      8  N   UNL     1       1.676   4.106   3.778  0.00  0.00    +0.383 N 
ATOM      9  H   UNL     1       1.458   5.108   3.829  0.00  0.00    -0.081 HD
ENDROOT
BRANCH   1  10
ATOM     10  C   UNL     1      -0.394   3.644   5.002  0.00  0.00    +0.090 C 
BRANCH  10  14
ATOM     11  N   UNL     1      -2.238   6.822   4.853  0.00  0.00    -0.269 N 
ATOM     12  C   UNL     1      -1.967   5.504   4.929  0.00  0.00    +0.304 C 
ATOM     13  O   UNL     1      -2.876   4.700   5.007  0.00  0.00    -0.253 OA
ATOM     14  N   UNL     1      -0.688   5.077   4.919  0.00  0.00    -0.301 N 
ATOM     15  H   UNL     1      -1.513   7.467   4.859  0.00  0.00    +0.156 HD
ATOM     16  H   UNL     1       0.037   5.718   4.857  0.00  0.00    +0.150 HD
BRANCH  11  21
ATOM     17  C   UNL     1      -5.880   7.015   5.353  0.00  0.00    +0.009 A 
ATOM     18  C   UNL     1      -6.188   8.136   4.589  0.00  0.00    +0.015 A 
ATOM     19  C   UNL     1      -5.188   8.812   3.919  0.00  0.00    +0.003 A 
ATOM     20  C   UNL     1      -3.878   8.381   4.009  0.00  0.00    +0.023 A 
ATOM     21  C   UNL     1      -3.564   7.260   4.766  0.00  0.00    +0.036 A 
ATOM     22  C   UNL     1      -4.566   6.577   5.441  0.00  0.00    +0.038 A 
BRANCH  17  24
ATOM     23  C   UNL     1      -8.662   7.078   5.797  0.00  0.00    +0.090 C 
ATOM     24  S   UNL     1      -7.157   6.153   6.208  0.00  0.00    -0.129 S 
ENDBRANCH  17  24
ENDBRANCH  11  21
ENDBRANCH  10  14
ENDBRANCH   1  10
BRANCH   7  25
ATOM     25  C   UNL     1       0.064   1.258   2.424  0.00  0.00    -0.077 C 
BRANCH  25  39
ATOM     26  C   UNL     1      -2.041   1.045   1.260  0.00  0.00    -0.074 C 
ATOM     27  C   UNL     1      -2.844   1.412   0.022  0.00  0.00    -0.007 C 
ATOM     28  C   UNL     1      -2.114   0.974  -1.251  0.00  0.00    +0.011 C 
ATOM     29  C   UNL     1      -0.725   1.621  -1.231  0.00  0.00    +0.020 C 
ATOM     30  C   UNL     1       0.025   1.101   0.007  0.00  0.00    -0.069 C 
ATOM     31  C   UNL     1      -0.876   3.118  -1.076  0.00  0.00    +0.023 A 
ATOM     32  C   UNL     1       0.116   3.901  -1.576  0.00  0.00    +0.022 A 
ATOM     33  C   UNL     1       0.075   5.291  -1.415  0.00  0.00    +0.007 A 
ATOM     34  C   UNL     1      -0.966   5.843  -0.729  0.00  0.00    +0.070 A 
ATOM     35  C   UNL     1      -1.973   5.007  -0.227  0.00  0.00    +0.251 A 
ATOM     36  O   UNL     1      -2.884   5.487   0.429  0.00  0.00    -0.268 OA
ATOM     37  N   UNL     1      -1.947   3.672  -0.462  0.00  0.00    -0.312 N 
ATOM     38  C   UNL     1      -3.119   2.904  -0.042  0.00  0.00    +0.126 C 
ATOM     39  N   UNL     1      -0.688   1.611   1.200  0.00  0.00    +0.380 N 
ATOM     40  H   UNL     1      -0.758   2.633   1.135  0.00  0.00    -0.082 HD
ENDBRANCH  25  39
ENDBRANCH   7  25
TORSDOF 6
