REMARK  Name = ZINC03997670
REMARK  7 active torsions:
REMARK  status: ('A' for Active; 'I' for Inactive)
REMARK    1  A    between atoms: C_1  and  C_2
REMARK    2  A    between atoms: C_6  and  S_8
REMARK    3  A    between atoms: S_8  and  N_11
REMARK    4  A    between atoms: N_11  and  C_12
REMARK    5  A    between atoms: C_15  and  C_23
REMARK    6  A    between atoms: C_19  and  C_21
REMARK    7  A    between atoms: C_19  and  C_22
REMARK                            x       y       z     vdW  Elec       q    Type
REMARK                         _______ _______ _______ _____ _____    ______ ____
ROOT
ATOM      1  N   UNL     1       1.644  -3.200   3.123  0.00  0.00    -0.213 N 
ATOM      2  H   UNL     1       2.011  -4.097   3.157  0.00  0.00    +0.174 HD
ENDROOT
BRANCH   1   3
ATOM      3  C   UNL     1       2.478  -2.095   3.327  0.00  0.00    +0.090 A 
ATOM      4  C   UNL     1       1.996  -0.978   3.992  0.00  0.00    +0.028 A 
ATOM      5  C   UNL     1       2.814   0.117   4.197  0.00  0.00    +0.006 A 
ATOM      6  C   UNL     1       4.118   0.099   3.733  0.00  0.00    -0.044 A 
ATOM      7  C   UNL     1       4.600  -1.009   3.068  0.00  0.00    +0.003 A 
ATOM      8  C   UNL     1       3.798  -2.121   2.866  0.00  0.00    +0.147 A 
ATOM      9  O   UNL     1       4.477  -3.109   2.218  0.00  0.00    -0.484 OA
ATOM     10  C   UNL     1       5.629  -2.544   1.570  0.00  0.00    +0.109 C 
ATOM     11  C   UNL     1       5.949  -1.314   2.446  0.00  0.00    +0.086 C 
ATOM     12  C   UNL     1       6.793  -3.537   1.571  0.00  0.00    +0.056 C 
ATOM     13  C   UNL     1       5.290  -2.106   0.144  0.00  0.00    +0.056 C 
ATOM     14  C   UNL     1       5.011   1.292   3.954  0.00  0.00    +0.044 C 
ENDBRANCH   1   3
BRANCH   1  15
ATOM     15  S   UNL     1       0.030  -2.975   2.824  0.00  0.00    +0.072 S 
ATOM     16  O   UNL     1      -0.468  -2.160   3.876  0.00  0.00    -0.150 OA
ATOM     17  O   UNL     1      -0.510  -4.257   2.531  0.00  0.00    -0.150 OA
BRANCH  15  23
ATOM     18  C   UNL     1      -0.265   1.606   0.326  0.00  0.00    +0.044 C 
ATOM     19  C   UNL     1      -0.231   0.101   0.253  0.00  0.00    -0.049 A 
ATOM     20  C   UNL     1      -0.300  -0.533  -0.973  0.00  0.00    +0.003 A 
ATOM     21  C   UNL     1      -0.269  -1.913  -1.040  0.00  0.00    +0.002 A 
ATOM     22  C   UNL     1      -0.168  -2.659   0.120  0.00  0.00    +0.029 A 
ATOM     23  C   UNL     1      -0.098  -2.025   1.346  0.00  0.00    +0.109 A 
ATOM     24  C   UNL     1      -0.124  -0.644   1.412  0.00  0.00    +0.032 A 
ENDBRANCH  15  23
ENDBRANCH   1  15
TORSDOF 3
