REMARK  Name = ZINC16477592
REMARK  7 active torsions:
REMARK  status: ('A' for Active; 'I' for Inactive)
REMARK    1  A    between atoms: C_4  and  C_7
REMARK    2  A    between atoms: C_7  and  C_9
REMARK    3  A    between atoms: C_7  and  N_17
REMARK    4  A    between atoms: C_14  and  N_15
REMARK    5  A    between atoms: N_17  and  S_18
REMARK    6  A    between atoms: S_18  and  C_21
REMARK    7  A    between atoms: C_24  and  N_27
REMARK                            x       y       z     vdW  Elec       q    Type
REMARK                         _______ _______ _______ _____ _____    ______ ____
ROOT
ATOM      1  C   UNL     1       2.405   1.991  -1.160  0.00  0.00    +0.138 C 
ENDROOT
BRANCH   1   2
ATOM      2  C   UNL     1       3.837   1.855  -0.711  0.00  0.00    -0.003 A 
ATOM      3  C   UNL     1       4.212   2.292   0.545  0.00  0.00    +0.027 A 
ATOM      4  C   UNL     1       5.526   2.168   0.958  0.00  0.00    +0.041 A 
ATOM      5  C   UNL     1       6.469   1.605   0.114  0.00  0.00    +0.022 A 
ATOM      6  C   UNL     1       6.099   1.167  -1.142  0.00  0.00    +0.024 A 
ATOM      7  C   UNL     1       4.779   1.285  -1.557  0.00  0.00    +0.030 A 
ATOM      8 CL   UNL     1       5.995   2.719   2.536  0.00  0.00    -0.084 Cl
BRANCH   7   9
ATOM      9  N   UNL     1       4.401   0.837  -2.825  0.00  0.00    -0.358 N 
ATOM     10  H   UNL     1       3.480   0.923  -3.116  0.00  0.00    +0.142 HD
ATOM     11  H   UNL     1       5.060   0.439  -3.415  0.00  0.00    +0.142 HD
ENDBRANCH   7   9
ENDBRANCH   1   2
BRANCH   1  15
ATOM     12  C   UNL     1       1.917   5.674  -3.268  0.00  0.00    +0.000 A 
ATOM     13  C   UNL     1       2.061   4.491  -3.968  0.00  0.00    +0.000 A 
ATOM     14  C   UNL     1       2.218   3.299  -3.286  0.00  0.00    +0.005 A 
ATOM     15  C   UNL     1       2.233   3.291  -1.904  0.00  0.00    -0.024 A 
ATOM     16  C   UNL     1       2.083   4.473  -1.204  0.00  0.00    +0.005 A 
ATOM     17  C   UNL     1       1.930   5.666  -1.886  0.00  0.00    +0.000 A 
ENDBRANCH   1  15
BRANCH   1  18
ATOM     18  N   UNL     1       1.522   1.978   0.009  0.00  0.00    -0.178 NA
ATOM     19  H   UNL     1       1.803   2.405   0.834  0.00  0.00    +0.149 HD
BRANCH  18  20
ATOM     20  S   UNL     1       0.046   1.232  -0.075  0.00  0.00    +0.059 S 
ATOM     21  O   UNL     1      -0.580   1.706  -1.260  0.00  0.00    -0.153 OA
ATOM     22  O   UNL     1      -0.550   1.365   1.207  0.00  0.00    -0.153 OA
BRANCH  20  23
ATOM     23  C   UNL     1       0.344  -0.488  -0.316  0.00  0.00    +0.105 A 
ATOM     24  C   UNL     1       0.441  -1.000  -1.597  0.00  0.00    +0.031 A 
ATOM     25  C   UNL     1       0.679  -2.348  -1.785  0.00  0.00    +0.034 A 
ATOM     26  C   UNL     1       0.810  -3.187  -0.694  0.00  0.00    +0.126 A 
ATOM     27  C   UNL     1       0.709  -2.675   0.586  0.00  0.00    +0.034 A 
ATOM     28  C   UNL     1       0.475  -1.326   0.775  0.00  0.00    +0.031 A 
BRANCH  26  29
ATOM     29  N   UNL     1       1.061  -4.631  -0.896  0.00  0.00    +0.056 N 
ATOM     30  O   UNL     1       1.177  -5.370   0.065  0.00  0.00    -0.126 OA
ATOM     31  O   UNL     1       1.150  -5.082  -2.024  0.00  0.00    -0.126 OA
ENDBRANCH  26  29
ENDBRANCH  20  23
ENDBRANCH  18  20
ENDBRANCH   1  18
TORSDOF 7
