REMARK  Name = ZINC50208948
REMARK  7 active torsions:
REMARK  status: ('A' for Active; 'I' for Inactive)
REMARK    1  A    between atoms: C_1  and  C_2
REMARK    2  A    between atoms: C_2  and  N_3
REMARK    3  A    between atoms: C_4  and  C_6
REMARK    4  A    between atoms: C_6  and  N_7
REMARK    5  A    between atoms: N_7  and  C_8
REMARK    6  A    between atoms: N_11  and  C_12
REMARK    7  A    between atoms: C_17  and  C_18
REMARK                            x       y       z     vdW  Elec       q    Type
REMARK                         _______ _______ _______ _____ _____    ______ ____
ROOT
ATOM      1  N   UNL     1      -2.964  -3.836   0.018  0.00  0.00    -0.280 N 
ATOM      2  C   UNL     1      -2.924  -4.578   1.280  0.00  0.00    +0.134 C 
ATOM      3  C   UNL     1      -2.983  -4.500  -1.154  0.00  0.00    +0.307 C 
ATOM      4  O   UNL     1      -3.016  -3.884  -2.202  0.00  0.00    -0.252 OA
ATOM      5  N   UNL     1      -2.966  -5.848  -1.165  0.00  0.00    -0.269 N 
ATOM      6  H   UNL     1      -2.875  -6.339  -0.334  0.00  0.00    +0.156 HD
ENDROOT
BRANCH   5   7
ATOM      7  C   UNL     1      -3.079  -6.535  -2.370  0.00  0.00    +0.049 A 
ATOM      8  C   UNL     1      -2.507  -6.018  -3.525  0.00  0.00    +0.025 A 
ATOM      9  C   UNL     1      -2.620  -6.701  -4.719  0.00  0.00    +0.017 A 
ATOM     10  C   UNL     1      -3.305  -7.906  -4.777  0.00  0.00    +0.019 A 
ATOM     11  C   UNL     1      -3.880  -8.435  -3.642  0.00  0.00    +0.032 A 
ATOM     12  C   UNL     1      -3.768  -7.758  -2.423  0.00  0.00    +0.085 A 
ATOM     13 BR   UNL     1      -3.450  -8.826  -6.422  0.00  0.00    -0.050 Br
BRANCH  12  14
ATOM     14  C   UNL     1      -4.374  -8.320  -1.206  0.00  0.00    +0.388 C 
ATOM     15  O   UNL     1      -4.887  -9.430  -1.235  0.00  0.00    -0.241 OA
ATOM     16  O   UNL     1      -4.363  -7.677  -0.165  0.00  0.00    -0.241 OA
ENDBRANCH  12  14
ENDBRANCH   5   7
BRANCH   1  17
ATOM     17  C   UNL     1      -2.982  -2.371   0.030  0.00  0.00    +0.204 C 
BRANCH  17  19
ATOM     18  N   UNL     1      -1.339  -0.522   0.006  0.00  0.00    -0.314 N 
ATOM     19  C   UNL     1      -1.568  -1.851   0.001  0.00  0.00    +0.230 C 
ATOM     20  O   UNL     1      -0.637  -2.627  -0.028  0.00  0.00    -0.274 OA
ATOM     21  H   UNL     1      -2.084   0.098   0.029  0.00  0.00    +0.149 HD
BRANCH  18  23
ATOM     22  C   UNL     1       0.017   1.513  -0.010  0.00  0.00    +0.024 C 
ATOM     23  C   UNL     1       0.036  -0.017  -0.023  0.00  0.00    +0.101 C 
ENDBRANCH  18  23
ENDBRANCH  17  19
ENDBRANCH   1  17
TORSDOF 5
