REMARK  Name = ZINC43218973
REMARK  14 active torsions:
REMARK  status: ('A' for Active; 'I' for Inactive)
REMARK    1  A    between atoms: C_1  and  C_2
REMARK    2  A    between atoms: C_2  and  C_3
REMARK    3  A    between atoms: C_2  and  C_4
REMARK    4  A    between atoms: C_2  and  N_5
REMARK    5  A    between atoms: C_10  and  C_27
REMARK    6  A    between atoms: C_13  and  C_18
REMARK    7  A    between atoms: C_13  and  C_24
REMARK    8  A    between atoms: C_29  and  O_39
REMARK    9  A    between atoms: C_31  and  O_37
REMARK   10  A    between atoms: C_32  and  C_33
REMARK   11  A    between atoms: C_33  and  O_35
REMARK   12  A    between atoms: O_35  and  C_36
REMARK   13  A    between atoms: O_37  and  C_38
REMARK   14  A    between atoms: O_39  and  C_40
REMARK                            x       y       z     vdW  Elec       q    Type
REMARK                         _______ _______ _______ _____ _____    ______ ____
ROOT
ATOM      1  N   UNL     1       0.981  -0.399  -1.093  0.00  0.00    -0.236 N 
ATOM      2  C   UNL     1       0.259  -1.173  -1.968  0.00  0.00    +0.225 C 
ATOM      3  O   UNL     1      -0.939  -1.359  -1.976  0.00  0.00    -0.275 OA
ATOM      4  C   UNL     1       1.240  -1.715  -2.875  0.00  0.00    +0.077 C 
ATOM      5  C   UNL     1       1.341  -2.305  -4.221  0.00  0.00    -0.025 C 
ATOM      6  N   UNL     1       2.828  -2.348  -4.435  0.00  0.00    +0.398 N 
ATOM      7  C   UNL     1       3.449  -1.324  -3.542  0.00  0.00    +0.074 C 
ATOM      8  C   UNL     1       2.266  -0.518  -2.986  0.00  0.00    +0.090 C 
ATOM      9  C   UNL     1       2.256  -0.164  -1.524  0.00  0.00    +0.226 C 
ATOM     10  O   UNL     1       3.188   0.243  -0.865  0.00  0.00    -0.275 OA
ATOM     11  H   UNL     1       3.181  -3.264  -4.201  0.00  0.00    -0.083 HD
ATOM     12  H   UNL     1       3.041  -2.136  -5.398  0.00  0.00    -0.083 HD
ENDROOT
BRANCH   7  13
ATOM     13  C   UNL     1       4.221  -1.995  -2.436  0.00  0.00    -0.047 A 
ATOM     14  C   UNL     1       5.220  -1.306  -1.774  0.00  0.00    +0.003 A 
ATOM     15  C   UNL     1       5.928  -1.922  -0.759  0.00  0.00    +0.000 A 
ATOM     16  C   UNL     1       5.638  -3.227  -0.406  0.00  0.00    +0.000 A 
ATOM     17  C   UNL     1       4.638  -3.916  -1.068  0.00  0.00    +0.000 A 
ATOM     18  C   UNL     1       3.927  -3.298  -2.080  0.00  0.00    +0.003 A 
ENDBRANCH   7  13
BRANCH   5  19
ATOM     19  C   UNL     1       0.753  -3.692  -4.245  0.00  0.00    -0.040 A 
ATOM     20  C   UNL     1       0.504  -4.356  -3.066  0.00  0.00    +0.048 A 
ATOM     21  C   UNL     1      -0.039  -5.637  -3.083  0.00  0.00    +0.124 A 
ATOM     22  C   UNL     1      -0.334  -6.256  -4.289  0.00  0.00    +0.092 A 
ATOM     23  C   UNL     1      -0.089  -5.599  -5.483  0.00  0.00    +0.138 A 
ATOM     24  C   UNL     1       0.453  -4.304  -5.467  0.00  0.00    +0.102 A 
BRANCH  24  25
ATOM     25  C   UNL     1       0.712  -3.596  -6.731  0.00  0.00    +0.343 C 
ATOM     26  O   UNL     1       1.753  -3.782  -7.330  0.00  0.00    -0.245 OA
BRANCH  25  27
ATOM     27  O   UNL     1      -0.206  -2.741  -7.224  0.00  0.00    -0.464 OA
ATOM     28  C   UNL     1       0.111  -2.089  -8.456  0.00  0.00    +0.280 C 
ENDBRANCH  25  27
ENDBRANCH  24  25
BRANCH  23  29
ATOM     29  O   UNL     1      -0.377  -6.202  -6.663  0.00  0.00    -0.494 OA
ATOM     30  C   UNL     1      -0.932  -7.518  -6.601  0.00  0.00    +0.277 C 
ENDBRANCH  23  29
BRANCH  21  31
ATOM     31  O   UNL     1      -0.280  -6.284  -1.915  0.00  0.00    -0.495 OA
ATOM     32  C   UNL     1      -0.838  -7.597  -2.004  0.00  0.00    +0.277 C 
ENDBRANCH  21  31
ENDBRANCH   5  19
BRANCH   1  34
ATOM     33  C   UNL     1       0.493   1.653   0.145  0.00  0.00    +0.031 C 
ATOM     34  C   UNL     1       0.440   0.125   0.164  0.00  0.00    +0.036 C 
ATOM     35  C   UNL     1       1.273  -0.400   1.335  0.00  0.00    +0.031 C 
ATOM     36  C   UNL     1      -1.011  -0.334   0.325  0.00  0.00    +0.031 C 
ENDBRANCH   1  34
BRANCH   7  37
ATOM     37  C   UNL     1       4.354  -0.419  -4.337  0.00  0.00    +0.350 C 
ATOM     38  O   UNL     1       4.507  -0.607  -5.532  0.00  0.00    -0.248 OA
ATOM     39  O   UNL     1       4.933   0.501  -3.785  0.00  0.00    -0.248 OA
ENDBRANCH   7  37
TORSDOF 8
