REMARK  Name = ZINC13041078
REMARK  14 active torsions:
REMARK  status: ('A' for Active; 'I' for Inactive)
REMARK    1  A    between atoms: C_1  and  C_2
REMARK    2  A    between atoms: C_2  and  O_3
REMARK    3  A    between atoms: O_3  and  C_4
REMARK    4  A    between atoms: C_4  and  C_6
REMARK    5  A    between atoms: C_10  and  N_11
REMARK    6  A    between atoms: C_12  and  C_14
REMARK    7  A    between atoms: C_14  and  C_16
REMARK    8  A    between atoms: C_14  and  N_66
REMARK    9  A    between atoms: C_17  and  N_66
REMARK   10  A    between atoms: C_18  and  C_19
REMARK   11  A    between atoms: C_18  and  N_66
REMARK   12  A    between atoms: N_21  and  C_22
REMARK   13  A    between atoms: C_25  and  C_28
REMARK   14  A    between atoms: C_30  and  C_34
REMARK                            x       y       z     vdW  Elec       q    Type
REMARK                         _______ _______ _______ _____ _____    ______ ____
ROOT
ATOM      1  N   UNL     1      -2.216  -6.562  -0.010  0.00  0.00    -0.281 N 
ATOM      2  C   UNL     1      -3.555  -6.716  -0.016  0.00  0.00    +0.204 C 
ATOM      3  O   UNL     1      -4.260  -5.875  -0.532  0.00  0.00    -0.277 OA
ATOM      4  H   UNL     1      -1.653  -7.235   0.402  0.00  0.00    +0.155 HD
ENDROOT
BRANCH   1   9
ATOM      5  C   UNL     1      -0.300  -5.109  -0.688  0.00  0.00    +0.091 A 
ATOM      6  C   UNL     1       0.038  -3.864  -1.357  0.00  0.00    -0.021 A 
ATOM      7  C   UNL     1      -1.015  -3.157  -1.822  0.00  0.00    -0.004 A 
ATOM      8  S   UNL     1      -2.435  -4.118  -1.384  0.00  0.00    -0.077 S 
ATOM      9  C   UNL     1      -1.645  -5.443  -0.594  0.00  0.00    +0.086 A 
ATOM     10  C   UNL     1      -0.973  -1.848  -2.549  0.00  0.00    +0.046 C 
ATOM     11  C   UNL     1       0.467  -1.604  -3.022  0.00  0.00    -0.009 C 
ATOM     12  C   UNL     1       1.421  -1.864  -1.853  0.00  0.00    +0.008 C 
ATOM     13  C   UNL     1       1.464  -3.361  -1.540  0.00  0.00    +0.037 C 
ATOM     14  C   UNL     1       0.613  -0.154  -3.491  0.00  0.00    +0.008 C 
BRANCH   5  15
ATOM     15  C   UNL     1       0.739  -5.980  -0.133  0.00  0.00    +0.342 C 
ATOM     16  O   UNL     1       1.107  -5.831   1.016  0.00  0.00    -0.245 OA
BRANCH  15  17
ATOM     17  O   UNL     1       1.287  -6.947  -0.897  0.00  0.00    -0.461 OA
BRANCH  17  19
ATOM     18  C   UNL     1       2.810  -8.806  -1.293  0.00  0.00    +0.048 C 
ATOM     19  C   UNL     1       2.311  -7.772  -0.281  0.00  0.00    +0.229 C 
ENDBRANCH  17  19
ENDBRANCH  15  17
ENDBRANCH   5  15
ENDBRANCH   1   9
BRANCH   2  20
ATOM     20  C   UNL     1      -4.176  -7.934   0.619  0.00  0.00    +0.017 C 
ATOM     21  C   UNL     1      -3.936  -7.901   2.129  0.00  0.00    -0.004 C 
BRANCH  20  23
ATOM     22  C   UNL     1      -6.203  -9.258   0.646  0.00  0.00    -0.094 C 
ATOM     23  N   UNL     1      -5.625  -7.936   0.325  0.00  0.00    +0.391 N 
ATOM     24  H   UNL     1      -5.763  -7.745  -0.675  0.00  0.00    -0.080 HD
BRANCH  23  25
ATOM     25  C   UNL     1      -6.302  -6.884   1.112  0.00  0.00    +0.020 C 
BRANCH  25  26
ATOM     26  C   UNL     1      -7.726  -6.760   0.635  0.00  0.00    +0.201 C 
ATOM     27  O   UNL     1      -8.134  -7.482  -0.250  0.00  0.00    -0.278 OA
ATOM     28  N   UNL     1      -8.546  -5.848   1.193  0.00  0.00    -0.287 N 
ATOM     29  H   UNL     1      -8.244  -5.322   1.950  0.00  0.00    +0.155 HD
BRANCH  28  30
ATOM     30  C   UNL     1      -9.834  -5.659   0.679  0.00  0.00    +0.033 A 
ATOM     31  C   UNL     1     -10.069  -5.804  -0.682  0.00  0.00    +0.023 A 
ATOM     32  C   UNL     1     -11.342  -5.623  -1.185  0.00  0.00    +0.005 A 
ATOM     33  C   UNL     1     -12.381  -5.284  -0.336  0.00  0.00    -0.050 A 
ATOM     34  C   UNL     1     -12.149  -5.133   1.019  0.00  0.00    +0.005 A 
ATOM     35  C   UNL     1     -10.879  -5.319   1.529  0.00  0.00    +0.023 A 
ATOM     36  C   UNL     1     -13.768  -5.080  -0.889  0.00  0.00    +0.044 C 
ENDBRANCH  28  30
ENDBRANCH  25  26
ENDBRANCH  23  25
ENDBRANCH  20  23
ENDBRANCH   2  20
TORSDOF 9
