REMARK  Name = ZINC36751144
REMARK  15 active torsions:
REMARK  status: ('A' for Active; 'I' for Inactive)
REMARK    1  A    between atoms: C_1  and  C_2
REMARK    2  A    between atoms: C_2  and  N_3
REMARK    3  A    between atoms: N_3  and  C_4
REMARK    4  A    between atoms: N_3  and  C_6
REMARK    5  A    between atoms: C_4  and  C_5
REMARK    6  A    between atoms: C_6  and  C_8
REMARK    7  A    between atoms: C_6  and  C_28
REMARK    8  A    between atoms: C_8  and  N_9
REMARK    9  A    between atoms: C_10  and  C_12
REMARK   10  A    between atoms: C_12  and  N_13
REMARK   11  A    between atoms: C_16  and  C_20
REMARK   12  A    between atoms: C_16  and  C_21
REMARK   13  A    between atoms: C_24  and  C_27
REMARK   14  A    between atoms: C_32  and  O_34
REMARK   15  A    between atoms: O_34  and  C_35
REMARK                            x       y       z     vdW  Elec       q    Type
REMARK                         _______ _______ _______ _____ _____    ______ ____
ROOT
ATOM      1  N   UNL     1       1.450   0.928  -1.085  0.00  0.00    -0.315 N 
ATOM      2  C   UNL     1       2.410   1.874  -1.114  0.00  0.00    +0.231 C 
ATOM      3  O   UNL     1       3.156   1.952  -2.067  0.00  0.00    -0.274 OA
ATOM      4  H   UNL     1       0.808   0.910  -0.358  0.00  0.00    +0.149 HD
ENDROOT
BRANCH   1   5
ATOM      5  C   UNL     1       1.377  -0.074  -2.151  0.00  0.00    +0.093 C 
BRANCH   5   6
ATOM      6  C   UNL     1       0.136  -0.945  -1.949  0.00  0.00    -0.020 C 
BRANCH   6   7
ATOM      7  C   UNL     1       0.143  -2.071  -2.950  0.00  0.00    -0.056 A 
ATOM      8  C   UNL     1       1.340  -2.509  -3.488  0.00  0.00    +0.002 A 
ATOM      9  C   UNL     1       1.351  -3.542  -4.406  0.00  0.00    +0.004 A 
ATOM     10  C   UNL     1       0.165  -4.140  -4.789  0.00  0.00    +0.045 A 
ATOM     11  C   UNL     1      -1.036  -3.704  -4.250  0.00  0.00    +0.120 A 
ATOM     12  C   UNL     1      -1.044  -2.670  -3.324  0.00  0.00    +0.047 A 
BRANCH  11  13
ATOM     13  O   UNL     1      -2.203  -4.291  -4.624  0.00  0.00    -0.495 OA
ATOM     14  C   UNL     1      -2.119  -5.352  -5.577  0.00  0.00    +0.277 C 
ENDBRANCH  11  13
ENDBRANCH   6   7
BRANCH   6  15
ATOM     15  N   UNL     1       0.142  -1.498  -0.588  0.00  0.00    +0.385 N 
ATOM     16  H   UNL     1       0.220  -0.746   0.080  0.00  0.00    -0.081 HD
BRANCH  15  18
ATOM     17  C   UNL     1      -2.286  -1.259  -0.372  0.00  0.00    -0.017 C 
ATOM     18  C   UNL     1      -1.107  -2.235  -0.353  0.00  0.00    -0.081 C 
ENDBRANCH  15  18
BRANCH  15  19
ATOM     19  C   UNL     1       1.284  -2.409  -0.436  0.00  0.00    -0.081 C 
ATOM     20  C   UNL     1       2.507  -1.620   0.035  0.00  0.00    -0.017 C 
ENDBRANCH  15  19
ENDBRANCH   6  15
ENDBRANCH   5   6
ENDBRANCH   1   5
BRANCH   2  21
ATOM     21  C   UNL     1       2.555   2.835   0.038  0.00  0.00    +0.213 C 
BRANCH  21  22
ATOM     22  N   UNL     1       3.579   3.832  -0.284  0.00  0.00    -0.215 N 
ATOM     23  C   UNL     1       4.890   3.688  -0.006  0.00  0.00    +0.251 C 
ATOM     24  O   UNL     1       5.424   2.744   0.537  0.00  0.00    -0.272 OA
ATOM     25  C   UNL     1       5.558   4.950  -0.514  0.00  0.00    +0.135 C 
ATOM     26  N   UNL     1       4.441   5.732  -1.072  0.00  0.00    -0.281 N 
ATOM     27  C   UNL     1       3.330   4.995  -0.896  0.00  0.00    +0.310 C 
ATOM     28  O   UNL     1       2.222   5.349  -1.249  0.00  0.00    -0.252 OA
ATOM     29  C   UNL     1       6.579   4.617  -1.604  0.00  0.00    +0.047 C 
ATOM     30  H   UNL     1       4.497   6.606  -1.489  0.00  0.00    +0.152 HD
BRANCH  25  31
ATOM     31  C   UNL     1       6.214   5.696   0.619  0.00  0.00    -0.015 A 
ATOM     32  C   UNL     1       6.708   5.003   1.708  0.00  0.00    +0.006 A 
ATOM     33  C   UNL     1       7.310   5.688   2.748  0.00  0.00    +0.004 A 
ATOM     34  C   UNL     1       7.418   7.065   2.697  0.00  0.00    -0.050 A 
ATOM     35  C   UNL     1       6.925   7.757   1.607  0.00  0.00    +0.004 A 
ATOM     36  C   UNL     1       6.327   7.073   0.566  0.00  0.00    +0.006 A 
ATOM     37  C   UNL     1       8.073   7.811   3.831  0.00  0.00    +0.044 C 
ENDBRANCH  25  31
ENDBRANCH  21  22
ENDBRANCH   2  21
TORSDOF 10
