REMARK  Name = ZINC14197867
REMARK  8 active torsions:
REMARK  status: ('A' for Active; 'I' for Inactive)
REMARK    1  A    between atoms: C_1  and  C_2
REMARK    2  A    between atoms: C_2  and  C_4
REMARK    3  A    between atoms: C_2  and  N_43
REMARK    4  A    between atoms: C_9  and  C_10
REMARK    5  A    between atoms: C_9  and  N_43
REMARK    6  A    between atoms: N_12  and  C_13
REMARK    7  A    between atoms: C_13  and  C_14
REMARK    8  A    between atoms: C_17  and  C_19
REMARK                            x       y       z     vdW  Elec       q    Type
REMARK                         _______ _______ _______ _____ _____    ______ ____
ROOT
ATOM      1  C   UNL     1       3.413   6.733  -2.291  0.00  0.00    +0.196 C 
ATOM      2  O   UNL     1       4.074   5.742  -2.514  0.00  0.00    -0.278 OA
ATOM      3  N   UNL     1       3.744   7.907  -2.864  0.00  0.00    -0.310 N 
ATOM      4  H   UNL     1       3.215   8.700  -2.686  0.00  0.00    +0.149 HD
ENDROOT
BRANCH   1   5
ATOM      5  C   UNL     1       2.220   6.653  -1.372  0.00  0.00    +0.016 C 
BRANCH   5   6
ATOM      6  N   UNL     1       2.079   5.269  -0.883  0.00  0.00    +0.389 N 
ATOM      7  H   UNL     1       1.946   4.639  -1.683  0.00  0.00    -0.084 HD
ATOM      8  H   UNL     1       2.930   5.001  -0.375  0.00  0.00    -0.084 HD
BRANCH   6  10
ATOM      9  C   UNL     1       1.336   5.552   1.438  0.00  0.00    -0.008 C 
ATOM     10  C   UNL     1       0.918   5.160   0.020  0.00  0.00    -0.037 C 
BRANCH  10  11
ATOM     11  C   UNL     1       0.421   3.738   0.017  0.00  0.00    -0.024 A 
ATOM     12  C   UNL     1      -0.855   3.279   0.027  0.00  0.00    +0.009 A 
ATOM     13  C   UNL     1      -1.077   1.915   0.017  0.00  0.00    +0.008 A 
ATOM     14  C   UNL     1      -0.013   1.076   0.008  0.00  0.00    +0.045 A 
ATOM     15  S   UNL     1       1.359   2.219   0.001  0.00  0.00    -0.103 S 
ENDBRANCH  10  11
ENDBRANCH   6  10
ENDBRANCH   5   6
ENDBRANCH   1   5
BRANCH   3  16
ATOM     16  C   UNL     1       4.903   7.985  -3.757  0.00  0.00    +0.178 C 
BRANCH  16  17
ATOM     17  C   UNL     1       5.054   9.397  -4.261  0.00  0.00    +0.123 A 
ATOM     18  C   UNL     1       5.775  10.370  -3.670  0.00  0.00    +0.047 A 
ATOM     19  C   UNL     1       5.645  11.524  -4.468  0.00  0.00    +0.050 A 
ATOM     20  C   UNL     1       4.843  11.188  -5.514  0.00  0.00    +0.135 A 
ATOM     21  O   UNL     1       4.497   9.894  -5.378  0.00  0.00    -0.458 OA
BRANCH  20  22
ATOM     22  C   UNL     1       4.429  12.087  -6.612  0.00  0.00    +0.017 A 
ATOM     23  C   UNL     1       4.862  13.414  -6.633  0.00  0.00    +0.013 A 
ATOM     24  C   UNL     1       4.476  14.246  -7.663  0.00  0.00    +0.021 A 
ATOM     25  C   UNL     1       3.652  13.770  -8.669  0.00  0.00    +0.041 A 
ATOM     26  C   UNL     1       3.215  12.456  -8.651  0.00  0.00    +0.021 A 
ATOM     27  C   UNL     1       3.599  11.613  -7.629  0.00  0.00    +0.013 A 
ATOM     28 CL   UNL     1       3.164  14.826  -9.958  0.00  0.00    -0.084 Cl
ENDBRANCH  20  22
ENDBRANCH  16  17
ENDBRANCH   3  16
TORSDOF 7
