REMARK  Name = ZINC22852504
REMARK  7 active torsions:
REMARK  status: ('A' for Active; 'I' for Inactive)
REMARK    1  A    between atoms: C_1  and  O_2
REMARK    2  A    between atoms: O_2  and  C_3
REMARK    3  A    between atoms: C_7  and  C_9
REMARK    4  A    between atoms: C_9  and  C_11
REMARK    5  A    between atoms: C_9  and  N_25
REMARK    6  A    between atoms: C_17  and  C_19
REMARK    7  A    between atoms: C_28  and  O_31
REMARK                            x       y       z     vdW  Elec       q    Type
REMARK                         _______ _______ _______ _____ _____    ______ ____
ROOT
ATOM      1  C   UNL     1      -2.540  -4.171   0.015  0.00  0.00    +0.006 C 
ENDROOT
BRANCH   1   2
ATOM      2  C   UNL     1      -2.797  -4.664   1.416  0.00  0.00    +0.050 A 
ATOM      3  C   UNL     1      -2.003  -5.388   2.215  0.00  0.00    +0.282 A 
ATOM      4  N   UNL     1      -2.416  -5.746   3.475  0.00  0.00    -0.169 N 
ATOM      5  C   UNL     1      -3.660  -5.331   3.865  0.00  0.00    +0.200 A 
ATOM      6  S   UNL     1      -4.237  -4.430   2.446  0.00  0.00    -0.050 S 
ATOM      7  N   UNL     1      -3.903  -5.747   5.076  0.00  0.00    -0.197 NA
ATOM      8  C   UNL     1      -2.848  -6.441   5.526  0.00  0.00    +0.218 A 
ATOM      9  N   UNL     1      -1.922  -6.468   4.592  0.00  0.00    -0.138 NA
ATOM     10  O   UNL     1      -0.776  -5.773   1.774  0.00  0.00    -0.265 OA
BRANCH   8  11
ATOM     11  C   UNL     1      -2.743  -7.073   6.858  0.00  0.00    +0.173 A 
ATOM     12  C   UNL     1      -3.696  -7.056   7.827  0.00  0.00    +0.053 A 
ATOM     13  C   UNL     1      -3.176  -7.777   8.920  0.00  0.00    +0.042 A 
ATOM     14  C   UNL     1      -1.944  -8.195   8.568  0.00  0.00    +0.196 A 
ATOM     15  O   UNL     1      -1.688  -7.772   7.319  0.00  0.00    -0.460 OA
ENDBRANCH   8  11
ENDBRANCH   1   2
BRANCH   1  16
ATOM     16  N   UNL     1      -3.626  -4.617  -0.868  0.00  0.00    +0.388 N 
ATOM     17  C   UNL     1      -3.378  -4.128  -2.230  0.00  0.00    -0.075 C 
ATOM     18  C   UNL     1      -4.547  -4.520  -3.136  0.00  0.00    +0.013 C 
ATOM     19  C   UNL     1      -4.681  -6.045  -3.156  0.00  0.00    +0.111 C 
ATOM     20  C   UNL     1      -4.864  -6.551  -1.722  0.00  0.00    +0.013 C 
ATOM     21  C   UNL     1      -3.683  -6.083  -0.868  0.00  0.00    -0.075 C 
ATOM     22  H   UNL     1      -4.503  -4.246  -0.534  0.00  0.00    -0.080 HD
BRANCH  19  23
ATOM     23  O   UNL     1      -5.816  -6.415  -3.942  0.00  0.00    -0.392 OA
ATOM     24  H   UNL     1      -5.961  -7.370  -3.998  0.00  0.00    +0.210 HD
ENDBRANCH  19  23
ENDBRANCH   1  16
BRANCH   1  29
ATOM     25  C   UNL     1      -1.200  -0.637   0.010  0.00  0.00    +0.120 A 
ATOM     26  C   UNL     1      -2.375   0.101   0.019  0.00  0.00    +0.045 A 
ATOM     27  C   UNL     1      -3.596  -0.545   0.027  0.00  0.00    +0.004 A 
ATOM     28  C   UNL     1      -3.648  -1.927   0.026  0.00  0.00    +0.002 A 
ATOM     29  C   UNL     1      -2.479  -2.665   0.017  0.00  0.00    -0.053 A 
ATOM     30  C   UNL     1      -1.255  -2.023   0.003  0.00  0.00    +0.048 A 
BRANCH  25  32
ATOM     31  C   UNL     1      -0.017   1.425   0.010  0.00  0.00    +0.277 C 
ATOM     32  O   UNL     1       0.002  -0.004   0.002  0.00  0.00    -0.495 OA
ENDBRANCH  25  32
ENDBRANCH   1  29
TORSDOF 6
