REMARK  Name = ZINC39632065
REMARK  13 active torsions:
REMARK  status: ('A' for Active; 'I' for Inactive)
REMARK    1  A    between atoms: C_1  and  C_2
REMARK    2  A    between atoms: C_3  and  C_8
REMARK    3  A    between atoms: C_4  and  C_7
REMARK    4  A    between atoms: C_12  and  C_21
REMARK    5  A    between atoms: N_23  and  C_24
REMARK    6  A    between atoms: C_24  and  C_26
REMARK    7  A    between atoms: C_24  and  C_27
REMARK    8  A    between atoms: C_27  and  C_28
REMARK    9  A    between atoms: C_28  and  C_29
REMARK   10  A    between atoms: C_29  and  C_30
REMARK   11  A    between atoms: C_30  and  C_31
REMARK   12  A    between atoms: C_30  and  C_32
REMARK   13  A    between atoms: C_30  and  O_33
REMARK                            x       y       z     vdW  Elec       q    Type
REMARK                         _______ _______ _______ _____ _____    ______ ____
ROOT
ATOM      1  C   UNL     1       0.021  -0.420  -2.705  0.00  0.00    +0.252 C 
ATOM      2  O   UNL     1       1.055  -0.181  -3.297  0.00  0.00    -0.270 OA
ATOM      3  N   UNL     1      -1.166  -0.219  -3.313  0.00  0.00    -0.296 N 
ATOM      4  C   UNL     1      -2.521  -0.444  -2.757  0.00  0.00    +0.121 C 
ATOM      5  C   UNL     1      -3.361   0.741  -3.283  0.00  0.00    +0.100 C 
ATOM      6  C   UNL     1      -2.627   1.209  -4.551  0.00  0.00    -0.004 C 
ATOM      7  C   UNL     1      -1.409   0.284  -4.686  0.00  0.00    +0.115 C 
ATOM      8  C   UNL     1      -3.536   1.069  -5.769  0.00  0.00    -0.010 C 
ATOM      9  C   UNL     1      -2.806   1.595  -7.008  0.00  0.00    -0.082 C 
ATOM     10  N   UNL     1      -2.441   3.002  -6.803  0.00  0.00    +0.379 N 
ATOM     11  C   UNL     1      -1.494   3.117  -5.688  0.00  0.00    -0.082 C 
ATOM     12  C   UNL     1      -2.169   2.656  -4.393  0.00  0.00    -0.010 C 
ATOM     13  H   UNL     1      -2.015   3.363  -7.643  0.00  0.00    -0.086 HD
ATOM     14  H   UNL     1      -3.272   3.536  -6.594  0.00  0.00    -0.086 HD
ENDROOT
BRANCH   1  17
ATOM     15  C   UNL     1       0.028   1.374  -0.010  0.00  0.00    +0.070 C 
ATOM     16  C   UNL     1       0.067  -0.130  -0.097  0.00  0.00    +0.093 A 
ATOM     17  C   UNL     1       0.063  -0.930  -1.323  0.00  0.00    +0.101 A 
ATOM     18  C   UNL     1       0.107  -2.240  -0.939  0.00  0.00    +0.147 A 
ATOM     19  O   UNL     1       0.136  -2.279   0.395  0.00  0.00    -0.359 OA
ATOM     20  N   UNL     1       0.115  -0.960   0.902  0.00  0.00    -0.083 NA
ATOM     21  C   UNL     1       0.120  -3.432  -1.861  0.00  0.00    +0.090 C 
ENDBRANCH   1  17
BRANCH   5  22
ATOM     22  C   UNL     1      -4.757   0.286  -3.619  0.00  0.00    +0.218 C 
ATOM     23  O   UNL     1      -4.947  -0.842  -4.021  0.00  0.00    -0.275 OA
ATOM     24  N   UNL     1      -5.795   1.133  -3.473  0.00  0.00    -0.312 N 
ATOM     25  H   UNL     1      -5.643   2.036  -3.152  0.00  0.00    +0.149 HD
BRANCH  24  26
ATOM     26  C   UNL     1      -7.153   0.691  -3.800  0.00  0.00    +0.070 C 
ATOM     27  C   UNL     1      -7.760  -0.027  -2.593  0.00  0.00    +0.028 C 
BRANCH  26  28
ATOM     28  C   UNL     1      -8.013   1.905  -4.156  0.00  0.00    +0.022 C 
BRANCH  28  29
ATOM     29  C   UNL     1      -7.479   2.551  -5.436  0.00  0.00    +0.005 C 
BRANCH  29  30
ATOM     30  C   UNL     1      -8.339   3.766  -5.792  0.00  0.00    +0.034 C 
BRANCH  30  31
ATOM     31  C   UNL     1      -7.805   4.411  -7.072  0.00  0.00    +0.061 C 
ATOM     32  C   UNL     1      -8.585   5.695  -7.360  0.00  0.00    +0.041 C 
ATOM     33  C   UNL     1      -6.322   4.745  -6.894  0.00  0.00    +0.041 C 
BRANCH  31  34
ATOM     34  O   UNL     1      -7.961   3.504  -8.165  0.00  0.00    -0.389 OA
ATOM     35  H   UNL     1      -7.643   3.848  -9.010  0.00  0.00    +0.210 HD
ENDBRANCH  31  34
ENDBRANCH  30  31
ENDBRANCH  29  30
ENDBRANCH  28  29
ENDBRANCH  26  28
ENDBRANCH  24  26
ENDBRANCH   5  22
TORSDOF 8
