REMARK  Name = ZINC33113903
REMARK  5 active torsions:
REMARK  status: ('A' for Active; 'I' for Inactive)
REMARK    1  A    between atoms: C_5  and  C_7
REMARK    2  A    between atoms: C_7  and  N_8
REMARK    3  A    between atoms: N_8  and  C_9
REMARK    4  A    between atoms: C_11  and  C_13
REMARK    5  A    between atoms: C_19  and  C_21
REMARK                            x       y       z     vdW  Elec       q    Type
REMARK                         _______ _______ _______ _____ _____    ______ ____
ROOT
ATOM      1  C   UNL     1       1.754  -5.083   4.614  0.00  0.00    +0.020 C 
ATOM      2  C   UNL     1       0.628  -5.994   5.108  0.00  0.00    +0.027 C 
ATOM      3  C   UNL     1       0.906  -7.432   4.659  0.00  0.00    +0.108 C 
ATOM      4  N   UNL     1       2.245  -7.822   5.121  0.00  0.00    -0.296 N 
ATOM      5  C   UNL     1       3.388  -6.965   4.778  0.00  0.00    +0.108 C 
ATOM      6  C   UNL     1       3.083  -5.532   5.226  0.00  0.00    +0.027 C 
ATOM      7  C   UNL     1       2.421  -8.944   5.846  0.00  0.00    +0.263 C 
ATOM      8  O   UNL     1       1.456  -9.578   6.230  0.00  0.00    -0.268 OA
ENDROOT
BRANCH   7   9
ATOM      9  C   UNL     1       3.779  -9.402   6.175  0.00  0.00    +0.103 A 
ATOM     10  C   UNL     1       4.110 -10.195   7.227  0.00  0.00    +0.041 A 
ATOM     11  C   UNL     1       5.511 -10.402   7.188  0.00  0.00    +0.002 A 
ATOM     12  C   UNL     1       6.400 -11.119   7.998  0.00  0.00    +0.030 A 
ATOM     13  C   UNL     1       7.732 -11.131   7.699  0.00  0.00    +0.042 A 
ATOM     14  C   UNL     1       8.216 -10.437   6.595  0.00  0.00    +0.022 A 
ATOM     15  C   UNL     1       7.361  -9.725   5.784  0.00  0.00    +0.027 A 
ATOM     16  C   UNL     1       5.998  -9.698   6.069  0.00  0.00    +0.047 A 
ATOM     17  N   UNL     1       4.921  -9.098   5.460  0.00  0.00    -0.351 N 
ATOM     18  H   UNL     1       4.958  -8.550   4.660  0.00  0.00    +0.166 HD
ATOM     19 CL   UNL     1       8.832 -12.020   8.706  0.00  0.00    -0.084 Cl
ENDBRANCH   7   9
BRANCH   1  22
ATOM     20  C   UNL     1       1.333  -2.717   4.102  0.00  0.00    +0.233 C 
ATOM     21  O   UNL     1       1.455  -3.031   2.788  0.00  0.00    -0.271 OA
ATOM     22  C   UNL     1       1.467  -3.662   5.026  0.00  0.00    +0.044 C 
BRANCH  20  23
ATOM     23  N   UNL     1       1.069  -1.407   4.481  0.00  0.00    -0.308 N 
ATOM     24  H   UNL     1       0.982  -1.183   5.420  0.00  0.00    +0.149 HD
BRANCH  23  25
ATOM     25  C   UNL     1       0.921  -0.365   3.462  0.00  0.00    +0.141 C 
BRANCH  25  30
ATOM     26  C   UNL     1      -0.911   2.648   4.809  0.00  0.00    +0.000 A 
ATOM     27  C   UNL     1       0.126   3.380   5.358  0.00  0.00    +0.001 A 
ATOM     28  C   UNL     1       1.421   2.900   5.293  0.00  0.00    +0.020 A 
ATOM     29  C   UNL     1       1.679   1.687   4.679  0.00  0.00    +0.046 A 
ATOM     30  C   UNL     1       0.641   0.956   4.131  0.00  0.00    -0.012 A 
ATOM     31  C   UNL     1      -0.654   1.437   4.196  0.00  0.00    +0.006 A 
ATOM     32 CL   UNL     1       3.305   1.085   4.597  0.00  0.00    -0.083 Cl
ENDBRANCH  25  30
ENDBRANCH  23  25
ENDBRANCH  20  23
ENDBRANCH   1  22
TORSDOF 5
