REMARK  Name = ZINC20207786
REMARK  10 active torsions:
REMARK  status: ('A' for Active; 'I' for Inactive)
REMARK    1  A    between atoms: C_1  and  C_2
REMARK    2  A    between atoms: C_2  and  O_3
REMARK    3  A    between atoms: O_3  and  C_4
REMARK    4  A    between atoms: C_6  and  C_19
REMARK    5  A    between atoms: C_9  and  O_10
REMARK    6  A    between atoms: O_10  and  C_11
REMARK    7  A    between atoms: C_11  and  C_12
REMARK    8  A    between atoms: C_17  and  C_18
REMARK    9  A    between atoms: C_29  and  S_31
REMARK   10  A    between atoms: S_31  and  C_34
REMARK                            x       y       z     vdW  Elec       q    Type
REMARK                         _______ _______ _______ _____ _____    ______ ____
ROOT
ATOM      1  C   UNL     1      -1.292  -1.813  -0.264  0.00  0.00    +0.162 A 
ATOM      2  C   UNL     1      -0.215  -2.671  -0.346  0.00  0.00    +0.057 A 
ATOM      3  C   UNL     1      -0.394  -4.040  -0.101  0.00  0.00    -0.021 A 
ATOM      4  C   UNL     1      -1.667  -4.528   0.226  0.00  0.00    +0.012 A 
ATOM      5  C   UNL     1      -2.735  -3.664   0.305  0.00  0.00    +0.050 A 
ATOM      6  C   UNL     1      -2.555  -2.307   0.067  0.00  0.00    +0.162 A 
ENDROOT
BRANCH   3   7
ATOM      7  C   UNL     1       0.745  -4.957  -0.186  0.00  0.00    +0.024 C 
ATOM      8  C   UNL     1       0.557  -6.250  -0.619  0.00  0.00    +0.081 C 
ATOM      9  C   UNL     1      -0.745  -6.708  -1.183  0.00  0.00    +0.153 C 
ATOM     10  N   UNL     1      -1.538  -5.935  -1.875  0.00  0.00    -0.283 NA
ATOM     11  N   UNL     1      -1.035  -8.059  -0.896  0.00  0.00    -0.150 N 
ATOM     12  C   UNL     1       0.026  -8.892  -0.614  0.00  0.00    +0.182 C 
ATOM     13  N   UNL     1       1.287  -8.563  -0.483  0.00  0.00    -0.152 NA
ATOM     14  C   UNL     1       1.641  -7.262  -0.555  0.00  0.00    +0.273 C 
ATOM     15  O   UNL     1       2.814  -6.927  -0.564  0.00  0.00    -0.268 OA
ATOM     16  S   UNL     1      -0.770 -10.469  -0.461  0.00  0.00    -0.015 S 
ATOM     17  C   UNL     1      -2.452  -9.905  -0.679  0.00  0.00    +0.235 C 
ATOM     18  N   UNL     1      -2.290  -8.629  -0.884  0.00  0.00    -0.145 NA
ATOM     19  H   UNL     1      -2.375  -6.283  -2.220  0.00  0.00    +0.188 HD
BRANCH  17  20
ATOM     20  S   UNL     1      -3.946 -10.836  -0.628  0.00  0.00    +0.019 S 
ATOM     21  O   UNL     1      -3.687 -11.888   0.291  0.00  0.00    -0.168 OA
ATOM     22  O   UNL     1      -4.962  -9.878  -0.364  0.00  0.00    -0.168 OA
ATOM     23  C   UNL     1      -4.137 -11.504  -2.304  0.00  0.00    +0.202 C 
ENDBRANCH  17  20
ENDBRANCH   3   7
BRANCH   1  24
ATOM     24  O   UNL     1      -1.122  -0.485  -0.501  0.00  0.00    -0.489 OA
BRANCH  24  26
ATOM     25  C   UNL     1       0.191   1.464  -1.064  0.00  0.00    +0.048 C 
ATOM     26  C   UNL     1       0.197  -0.049  -0.835  0.00  0.00    +0.226 C 
ENDBRANCH  24  26
ENDBRANCH   1  24
BRANCH   6  27
ATOM     27  O   UNL     1      -3.611  -1.459   0.151  0.00  0.00    -0.484 OA
BRANCH  27  28
ATOM     28  C   UNL     1      -4.876  -2.030   0.494  0.00  0.00    +0.265 C 
BRANCH  28  29
ATOM     29  C   UNL     1      -5.921  -0.945   0.541  0.00  0.00    -0.007 A 
ATOM     30  C   UNL     1      -5.572   0.364   0.265  0.00  0.00    +0.007 A 
ATOM     31  C   UNL     1      -6.530   1.358   0.308  0.00  0.00    +0.000 A 
ATOM     32  C   UNL     1      -7.839   1.044   0.626  0.00  0.00    +0.000 A 
ATOM     33  C   UNL     1      -8.188  -0.264   0.901  0.00  0.00    +0.004 A 
ATOM     34  C   UNL     1      -7.230  -1.260   0.854  0.00  0.00    -0.044 A 
ATOM     35  C   UNL     1      -7.612  -2.688   1.149  0.00  0.00    +0.044 C 
ENDBRANCH  28  29
ENDBRANCH  27  28
ENDBRANCH   6  27
TORSDOF 7
