REMARK  Name = ZINC39886209
REMARK  5 active torsions:
REMARK  status: ('A' for Active; 'I' for Inactive)
REMARK    1  A    between atoms: C_3  and  O_25
REMARK    2  A    between atoms: C_6  and  C_7
REMARK    3  A    between atoms: N_10  and  C_11
REMARK    4  A    between atoms: C_14  and  S_17
REMARK    5  A    between atoms: S_17  and  N_20
REMARK                            x       y       z     vdW  Elec       q    Type
REMARK                         _______ _______ _______ _____ _____    ______ ____
ROOT
ATOM      1  C   UNL     1      -1.258  -0.758   0.011  0.00  0.00    +0.026 C 
ATOM      2  C   UNL     1      -1.240  -2.111  -0.099  0.00  0.00    +0.058 C 
ATOM      3  C   UNL     1      -2.368  -3.057  -0.220  0.00  0.00    +0.140 C 
ATOM      4  N   UNL     1      -3.619  -2.651  -0.234  0.00  0.00    -0.231 NA
ATOM      5  N   UNL     1      -2.036  -4.371  -0.314  0.00  0.00    -0.260 N 
ATOM      6  C   UNL     1      -0.747  -4.760  -0.297  0.00  0.00    +0.282 C 
ATOM      7  O   UNL     1      -0.301  -5.889  -0.372  0.00  0.00    -0.262 OA
ATOM      8  S   UNL     1       0.153  -3.227  -0.145  0.00  0.00    -0.028 S 
ATOM      9  H   UNL     1      -2.737  -5.037  -0.395  0.00  0.00    +0.157 HD
ENDROOT
BRANCH   1  15
ATOM     10  C   UNL     1       1.153  -0.596  -0.576  0.00  0.00    +0.011 A 
ATOM     11  C   UNL     1       2.327   0.120  -0.636  0.00  0.00    +0.046 A 
ATOM     12  C   UNL     1       2.367   1.433  -0.183  0.00  0.00    +0.117 A 
ATOM     13  C   UNL     1       1.224   2.031   0.334  0.00  0.00    +0.046 A 
ATOM     14  C   UNL     1       0.044   1.324   0.399  0.00  0.00    +0.011 A 
ATOM     15  C   UNL     1      -0.003   0.001  -0.056  0.00  0.00    -0.024 A 
BRANCH  12  16
ATOM     16  O   UNL     1       3.528   2.135  -0.245  0.00  0.00    -0.507 OA
ATOM     17  H   UNL     1       3.649   2.624  -1.070  0.00  0.00    +0.292 HD
ENDBRANCH  12  16
ENDBRANCH   1  15
BRANCH   4  18
ATOM     18  C   UNL     1      -4.631  -3.561  -0.347  0.00  0.00    +0.066 A 
ATOM     19  C   UNL     1      -4.543  -4.597  -1.282  0.00  0.00    +0.030 A 
ATOM     20  C   UNL     1      -5.569  -5.512  -1.390  0.00  0.00    +0.030 A 
ATOM     21  C   UNL     1      -6.683  -5.407  -0.576  0.00  0.00    +0.105 A 
ATOM     22  C   UNL     1      -6.777  -4.385   0.351  0.00  0.00    +0.030 A 
ATOM     23  C   UNL     1      -5.757  -3.465   0.475  0.00  0.00    +0.030 A 
BRANCH  21  24
ATOM     24  S   UNL     1      -7.989  -6.582  -0.722  0.00  0.00    +0.056 S 
ATOM     25  O   UNL     1      -9.161  -5.949  -0.228  0.00  0.00    -0.153 OA
ATOM     26  O   UNL     1      -7.908  -7.118  -2.035  0.00  0.00    -0.153 OA
BRANCH  24  27
ATOM     27  N   UNL     1      -7.648  -7.824   0.319  0.00  0.00    -0.204 NA
ATOM     28  H   UNL     1      -6.843  -7.797   0.859  0.00  0.00    +0.144 HD
ATOM     29  H   UNL     1      -8.253  -8.579   0.387  0.00  0.00    +0.144 HD
ENDBRANCH  24  27
ENDBRANCH  21  24
ENDBRANCH   4  18
TORSDOF 5
