REMARK  Name = ZINC12972139
REMARK  6 active torsions:
REMARK  status: ('A' for Active; 'I' for Inactive)
REMARK    1  A    between atoms: C_3  and  S_8
REMARK    2  A    between atoms: S_8  and  N_11
REMARK    3  A    between atoms: C_18  and  C_20
REMARK    4  A    between atoms: C_20  and  C_21
REMARK    5  A    between atoms: C_21  and  N_22
REMARK    6  A    between atoms: N_25  and  C_26
REMARK                            x       y       z     vdW  Elec       q    Type
REMARK                         _______ _______ _______ _____ _____    ______ ____
ROOT
ATOM      1  N   UNL     1      -3.020   7.008  -2.260  0.00  0.00    -0.175 NA
ATOM      2  C   UNL     1      -1.945   7.844  -1.810  0.00  0.00    +0.111 C 
ATOM      3  C   UNL     1      -0.814   6.933  -1.304  0.00  0.00    +0.036 C 
ATOM      4  C   UNL     1      -1.095   6.408   0.042  0.00  0.00    +0.109 C 
ATOM      5  N   UNL     1      -2.369   5.650   0.044  0.00  0.00    -0.300 N 
ATOM      6  C   UNL     1      -3.623   6.350   0.048  0.00  0.00    +0.125 C 
ATOM      7  C   UNL     1      -4.155   6.632  -1.373  0.00  0.00    +0.128 C 
ATOM      8  C   UNL     1      -2.351   4.302   0.037  0.00  0.00    +0.217 C 
ATOM      9  O   UNL     1      -3.393   3.682   0.038  0.00  0.00    -0.276 OA
ENDROOT
BRANCH   1  10
ATOM     10  S   UNL     1      -2.997   6.442  -3.816  0.00  0.00    +0.061 S 
ATOM     11  O   UNL     1      -4.345   6.155  -4.164  0.00  0.00    -0.153 OA
ATOM     12  O   UNL     1      -2.193   7.344  -4.564  0.00  0.00    -0.153 OA
BRANCH  10  15
ATOM     13  C   UNL     1      -2.173   2.517  -3.584  0.00  0.00    +0.040 A 
ATOM     14  C   UNL     1      -2.842   3.726  -3.598  0.00  0.00    +0.031 A 
ATOM     15  C   UNL     1      -2.142   4.902  -3.798  0.00  0.00    +0.106 A 
ATOM     16  C   UNL     1      -0.774   4.869  -3.989  0.00  0.00    +0.031 A 
ATOM     17  C   UNL     1      -0.102   3.661  -3.970  0.00  0.00    +0.040 A 
ATOM     18  C   UNL     1      -0.801   2.483  -3.770  0.00  0.00    +0.124 A 
ATOM     19  F   UNL     1      -0.146   1.302  -3.756  0.00  0.00    -0.205 F 
ENDBRANCH  10  15
ENDBRANCH   1  10
BRANCH   8  20
ATOM     20  C   UNL     1      -1.036   3.567   0.026  0.00  0.00    +0.114 C 
BRANCH  20  21
ATOM     21  C   UNL     1      -1.295   2.059   0.019  0.00  0.00    +0.115 C 
BRANCH  21  22
ATOM     22  N   UNL     1      -0.016   1.344   0.009  0.00  0.00    -0.299 N 
ATOM     23  C   UNL     1       0.002  -0.004   0.002  0.00  0.00    +0.300 C 
ATOM     24  O   UNL     1      -1.042  -0.626   0.009  0.00  0.00    -0.253 OA
ATOM     25  N   UNL     1       1.178  -0.662  -0.013  0.00  0.00    -0.297 N 
ATOM     26  H   UNL     1       0.817   1.840   0.004  0.00  0.00    +0.150 HD
ATOM     27  H   UNL     1       2.012  -0.166  -0.018  0.00  0.00    +0.151 HD
BRANCH  25  28
ATOM     28  C   UNL     1       1.198  -2.127  -0.021  0.00  0.00    +0.074 C 
ATOM     29  C   UNL     1       1.093  -2.646   1.415  0.00  0.00    +0.022 C 
ATOM     30  C   UNL     1       1.114  -4.176   1.406  0.00  0.00    +0.002 C 
ATOM     31  C   UNL     1       2.422  -4.665   0.781  0.00  0.00    +0.000 C 
ATOM     32  C   UNL     1       2.527  -4.146  -0.654  0.00  0.00    +0.002 C 
ATOM     33  C   UNL     1       2.506  -2.616  -0.646  0.00  0.00    +0.022 C 
ENDBRANCH  25  28
ENDBRANCH  21  22
ENDBRANCH  20  21
ENDBRANCH   8  20
TORSDOF 6
