REMARK  Name = ZINC64774140
REMARK  7 active torsions:
REMARK  status: ('A' for Active; 'I' for Inactive)
REMARK    1  A    between atoms: C_5  and  C_7
REMARK    2  A    between atoms: C_7  and  S_8
REMARK    3  A    between atoms: S_8  and  C_9
REMARK    4  A    between atoms: C_15  and  C_23
REMARK    5  A    between atoms: C_26  and  O_29
REMARK    6  A    between atoms: O_29  and  C_30
REMARK    7  A    between atoms: C_30  and  C_31
REMARK                            x       y       z     vdW  Elec       q    Type
REMARK                         _______ _______ _______ _____ _____    ______ ____
ROOT
ATOM      1  C   UNL     1       1.253  -4.667   2.116  0.00  0.00    +0.182 C 
ATOM      2  N   UNL     1       1.162  -4.973   0.834  0.00  0.00    -0.154 NA
ATOM      3  C   UNL     1       1.111  -6.237   0.408  0.00  0.00    +0.249 C 
ATOM      4  O   UNL     1       1.054  -6.510  -0.776  0.00  0.00    -0.273 OA
ATOM      5  C   UNL     1       1.128  -7.315   1.472  0.00  0.00    +0.148 C 
ATOM      6  C   UNL     1       2.281  -8.272   1.166  0.00  0.00    +0.047 C 
ATOM      7  C   UNL     1       2.203  -9.457   2.132  0.00  0.00    +0.105 C 
ATOM      8  C   UNL     1       2.040  -8.988   3.548  0.00  0.00    +0.219 C 
ATOM      9  O   UNL     1       2.308  -9.755   4.447  0.00  0.00    -0.275 OA
ATOM     10  N   UNL     1       1.611  -7.754   3.864  0.00  0.00    -0.273 N 
ATOM     11  C   UNL     1       1.341  -6.836   2.896  0.00  0.00    +0.117 C 
ATOM     12  N   UNL     1       1.373  -5.552   3.113  0.00  0.00    -0.212 NA
ATOM     13  H   UNL     1       1.478  -7.516   4.795  0.00  0.00    +0.156 HD
ENDROOT
BRANCH   6  14
ATOM     14  C   UNL     1       3.595  -7.555   1.346  0.00  0.00    -0.042 A 
ATOM     15  C   UNL     1       4.077  -7.307   2.618  0.00  0.00    +0.007 A 
ATOM     16  C   UNL     1       5.280  -6.650   2.785  0.00  0.00    +0.046 A 
ATOM     17  C   UNL     1       6.005  -6.239   1.676  0.00  0.00    +0.121 A 
ATOM     18  C   UNL     1       5.519  -6.489   0.401  0.00  0.00    +0.046 A 
ATOM     19  C   UNL     1       4.318  -7.151   0.239  0.00  0.00    +0.007 A 
BRANCH  17  20
ATOM     20  O   UNL     1       7.189  -5.591   1.839  0.00  0.00    -0.483 OA
BRANCH  20  21
ATOM     21  C   UNL     1       7.881  -5.197   0.652  0.00  0.00    +0.324 C 
BRANCH  21  22
ATOM     22  C   UNL     1       9.163  -4.499   1.027  0.00  0.00    +0.248 C 
ATOM     23  O   UNL     1       9.455  -4.353   2.195  0.00  0.00    -0.272 OA
ATOM     24  N   UNL     1       9.984  -4.036   0.064  0.00  0.00    -0.327 N 
ATOM     25  H   UNL     1       9.751  -4.153  -0.871  0.00  0.00    +0.145 HD
ATOM     26  H   UNL     1      10.809  -3.587   0.304  0.00  0.00    +0.145 HD
ENDBRANCH  21  22
ENDBRANCH  20  21
ENDBRANCH  17  20
ENDBRANCH   6  14
BRANCH   1  27
ATOM     27  S   UNL     1       1.221  -2.959   2.547  0.00  0.00    -0.084 S 
BRANCH  27  28
ATOM     28  C   UNL     1       1.051  -2.108   0.954  0.00  0.00    +0.115 C 
BRANCH  28  33
ATOM     29  C   UNL     1      -0.237   1.383   1.596  0.00  0.00    +0.000 A 
ATOM     30  C   UNL     1       0.936   2.115   1.599  0.00  0.00    +0.003 A 
ATOM     31  C   UNL     1       2.147   1.482   1.394  0.00  0.00    +0.038 A 
ATOM     32  C   UNL     1       2.186   0.114   1.185  0.00  0.00    +0.127 A 
ATOM     33  C   UNL     1       1.011  -0.618   1.182  0.00  0.00    -0.002 A 
ATOM     34  C   UNL     1      -0.199   0.017   1.387  0.00  0.00    +0.007 A 
ATOM     35  F   UNL     1       3.369  -0.506   0.984  0.00  0.00    -0.205 F 
ENDBRANCH  28  33
ENDBRANCH  27  28
ENDBRANCH   1  27
TORSDOF 7
