REMARK  Name = ZINC19988133
REMARK  7 active torsions:
REMARK  status: ('A' for Active; 'I' for Inactive)
REMARK    1  A    between atoms: C_1  and  C_2
REMARK    2  A    between atoms: C_5  and  C_9
REMARK    3  A    between atoms: C_6  and  C_8
REMARK    4  A    between atoms: N_16  and  C_19
REMARK    5  A    between atoms: C_19  and  C_20
REMARK    6  A    between atoms: N_22  and  N_23
REMARK    7  A    between atoms: C_24  and  C_26
REMARK                            x       y       z     vdW  Elec       q    Type
REMARK                         _______ _______ _______ _____ _____    ______ ____
ROOT
ATOM      1  C   UNL     1      -0.285   5.261   0.033  0.00  0.00    +0.004 A 
ATOM      2  C   UNL     1      -1.562   5.715   0.047  0.00  0.00    +0.056 A 
ATOM      3  S   UNL     1      -2.531   4.219   0.048  0.00  0.00    -0.076 S 
ATOM      4  C   UNL     1      -1.213   3.031   0.030  0.00  0.00    +0.116 A 
ATOM      5  C   UNL     1      -0.052   3.822   0.023  0.00  0.00    +0.080 A 
ATOM      6  C   UNL     1       1.186   3.105   0.007  0.00  0.00    +0.263 A 
ATOM      7  O   UNL     1       2.248   3.704   0.001  0.00  0.00    -0.267 OA
ATOM      8  N   UNL     1       1.161   1.759   0.000  0.00  0.00    -0.290 N 
ATOM      9  C   UNL     1      -0.013   1.076   0.008  0.00  0.00    +0.203 A 
ATOM     10  N   UNL     1      -1.159   1.702   0.017  0.00  0.00    -0.230 NA
ENDROOT
BRANCH   1  15
ATOM     11  C   UNL     1       4.138   8.948   0.012  0.00  0.00    +0.044 C 
ATOM     12  C   UNL     1       2.981   7.983   0.018  0.00  0.00    -0.050 A 
ATOM     13  C   UNL     1       2.136   7.926   1.112  0.00  0.00    +0.004 A 
ATOM     14  C   UNL     1       1.075   7.045   1.123  0.00  0.00    +0.009 A 
ATOM     15  C   UNL     1       0.854   6.210   0.027  0.00  0.00    -0.014 A 
ATOM     16  C   UNL     1       1.711   6.269  -1.071  0.00  0.00    -0.042 A 
ATOM     17  C   UNL     1       2.767   7.158  -1.072  0.00  0.00    +0.007 A 
ATOM     18  C   UNL     1       1.482   5.367  -2.256  0.00  0.00    +0.044 C 
ENDBRANCH   1  15
BRANCH   8  19
ATOM     19  C   UNL     1       2.424   1.017  -0.016  0.00  0.00    +0.223 C 
BRANCH  19  20
ATOM     20  C   UNL     1       2.843   0.771  -1.442  0.00  0.00    +0.249 C 
ATOM     21  O   UNL     1       2.155   1.175  -2.355  0.00  0.00    -0.272 OA
ATOM     22  N   UNL     1       3.983   0.101  -1.704  0.00  0.00    -0.233 N 
ATOM     23  H   UNL     1       4.607  -0.266  -0.876  0.00  0.00    +0.173 HD
BRANCH  22  24
ATOM     24  N   UNL     1       4.373  -0.128  -3.030  0.00  0.00    -0.235 N 
ATOM     25  C   UNL     1       5.513  -0.798  -3.291  0.00  0.00    +0.226 C 
ATOM     26  O   UNL     1       6.201  -1.202  -2.378  0.00  0.00    -0.275 OA
ATOM     27  C   UNL     1       5.932  -1.044  -4.717  0.00  0.00    +0.110 C 
ATOM     28  H   UNL     1       3.748   0.239  -3.858  0.00  0.00    +0.173 HD
ENDBRANCH  22  24
ENDBRANCH  19  20
ENDBRANCH   8  19
TORSDOF 4
