REMARK  Name = ZINC39663833
REMARK  11 active torsions:
REMARK  status: ('A' for Active; 'I' for Inactive)
REMARK    1  A    between atoms: C_1  and  N_2
REMARK    2  A    between atoms: C_6  and  C_7
REMARK    3  A    between atoms: C_11  and  C_20
REMARK    4  A    between atoms: N_22  and  C_23
REMARK    5  A    between atoms: C_23  and  C_24
REMARK    6  A    between atoms: C_24  and  C_26
REMARK    7  A    between atoms: C_24  and  N_34
REMARK    8  A    between atoms: C_29  and  O_32
REMARK    9  A    between atoms: O_32  and  C_33
REMARK   10  A    between atoms: N_34  and  C_35
REMARK   11  A    between atoms: N_34  and  C_36
REMARK                            x       y       z     vdW  Elec       q    Type
REMARK                         _______ _______ _______ _____ _____    ______ ____
ROOT
ATOM      1  C   UNL     1      -0.203  -0.372   2.574  0.00  0.00    +0.263 C 
ATOM      2  O   UNL     1      -0.140  -1.175   3.486  0.00  0.00    -0.268 OA
ATOM      3  N   UNL     1      -0.403   0.934   2.839  0.00  0.00    -0.295 N 
ATOM      4  C   UNL     1      -0.648   2.029   1.871  0.00  0.00    +0.121 C 
ATOM      5  C   UNL     1      -1.714   2.918   2.550  0.00  0.00    +0.100 C 
ATOM      6  C   UNL     1      -1.563   2.633   4.054  0.00  0.00    -0.004 C 
ATOM      7  C   UNL     1      -0.434   1.598   4.164  0.00  0.00    +0.115 C 
ATOM      8  C   UNL     1      -2.858   2.054   4.614  0.00  0.00    -0.010 C 
ATOM      9  C   UNL     1      -2.702   1.832   6.122  0.00  0.00    -0.082 C 
ATOM     10  N   UNL     1      -2.390   3.108   6.776  0.00  0.00    +0.379 N 
ATOM     11  C   UNL     1      -1.097   3.613   6.299  0.00  0.00    -0.082 C 
ATOM     12  C   UNL     1      -1.185   3.910   4.799  0.00  0.00    -0.010 C 
ATOM     13  H   UNL     1      -3.112   3.780   6.561  0.00  0.00    -0.086 HD
ATOM     14  H   UNL     1      -2.348   2.971   7.775  0.00  0.00    -0.086 HD
ENDROOT
BRANCH   1  20
ATOM     15  C   UNL     1      -0.087  -3.317   1.620  0.00  0.00    +0.149 C 
ATOM     16  N   UNL     1      -0.010  -2.134   0.760  0.00  0.00    -0.346 N 
ATOM     17  C   UNL     1       0.119  -2.145  -0.590  0.00  0.00    +0.086 A 
ATOM     18  C   UNL     1       0.155  -0.866  -1.036  0.00  0.00    +0.020 A 
ATOM     19  C   UNL     1       0.046  -0.021   0.073  0.00  0.00    +0.032 A 
ATOM     20  C   UNL     1      -0.062  -0.827   1.187  0.00  0.00    +0.104 A 
ENDBRANCH   1  20
BRANCH   5  21
ATOM     21  C   UNL     1      -1.446   4.373   2.260  0.00  0.00    +0.218 C 
ATOM     22  O   UNL     1      -0.304   4.773   2.170  0.00  0.00    -0.275 OA
ATOM     23  N   UNL     1      -2.475   5.229   2.101  0.00  0.00    -0.316 N 
ATOM     24  H   UNL     1      -3.387   4.909   2.174  0.00  0.00    +0.149 HD
BRANCH  23  25
ATOM     25  C   UNL     1      -2.214   6.643   1.819  0.00  0.00    +0.093 C 
BRANCH  25  26
ATOM     26  C   UNL     1      -3.536   7.413   1.808  0.00  0.00    -0.021 C 
BRANCH  26  27
ATOM     27  C   UNL     1      -4.432   6.856   0.731  0.00  0.00    -0.059 A 
ATOM     28  C   UNL     1      -4.238   7.226  -0.587  0.00  0.00    +0.005 A 
ATOM     29  C   UNL     1      -5.059   6.718  -1.575  0.00  0.00    +0.046 A 
ATOM     30  C   UNL     1      -6.077   5.836  -1.245  0.00  0.00    +0.120 A 
ATOM     31  C   UNL     1      -6.269   5.466   0.078  0.00  0.00    +0.046 A 
ATOM     32  C   UNL     1      -5.443   5.973   1.063  0.00  0.00    +0.005 A 
BRANCH  30  33
ATOM     33  O   UNL     1      -6.885   5.335  -2.216  0.00  0.00    -0.495 OA
ATOM     34  C   UNL     1      -7.912   4.432  -1.803  0.00  0.00    +0.277 C 
ENDBRANCH  30  33
ENDBRANCH  26  27
BRANCH  26  35
ATOM     35  N   UNL     1      -3.274   8.833   1.541  0.00  0.00    +0.382 N 
ATOM     36  C   UNL     1      -4.528   9.591   1.645  0.00  0.00    -0.096 C 
ATOM     37  C   UNL     1      -2.309   9.346   2.524  0.00  0.00    -0.096 C 
ATOM     38  H   UNL     1      -2.894   8.936   0.612  0.00  0.00    -0.082 HD
ENDBRANCH  26  35
ENDBRANCH  25  26
ENDBRANCH  23  25
ENDBRANCH   5  21
TORSDOF 7
