REMARK  Name = ZINC16025118
REMARK  6 active torsions:
REMARK  status: ('A' for Active; 'I' for Inactive)
REMARK    1  A    between atoms: C_1  and  C_2
REMARK    2  A    between atoms: C_2  and  C_3
REMARK    3  A    between atoms: C_3  and  C_5
REMARK    4  A    between atoms: C_3  and  N_6
REMARK    5  A    between atoms: C_11  and  C_29
REMARK    6  A    between atoms: C_29  and  C_30
REMARK                            x       y       z     vdW  Elec       q    Type
REMARK                         _______ _______ _______ _____ _____    ______ ____
ROOT
ATOM      1  N   UNL     1       2.148  -0.104   1.172  0.00  0.00    -0.239 N 
ATOM      2  C   UNL     1       2.959  -0.473   0.174  0.00  0.00    +0.227 C 
ATOM      3  O   UNL     1       2.640  -1.166  -0.768  0.00  0.00    -0.275 OA
ATOM      4  C   UNL     1       4.335   0.111   0.403  0.00  0.00    +0.107 C 
ATOM      5  C   UNL     1       5.322  -1.032   0.724  0.00  0.00    +0.076 C 
ATOM      6  N   UNL     1       6.094  -0.549   1.899  0.00  0.00    -0.295 NA
ATOM      7  C   UNL     1       5.096   0.155   2.724  0.00  0.00    +0.136 C 
ATOM      8  C   UNL     1       4.171   0.902   1.730  0.00  0.00    +0.122 C 
ATOM      9  C   UNL     1       2.723   0.672   2.098  0.00  0.00    +0.228 C 
ATOM     10  O   UNL     1       2.170   1.118   3.080  0.00  0.00    -0.275 OA
ATOM     11  C   UNL     1       5.749   1.109   3.684  0.00  0.00    +0.005 A 
ATOM     12  C   UNL     1       6.576   2.198   3.522  0.00  0.00    +0.008 A 
ATOM     13  C   UNL     1       7.029   2.895   4.628  0.00  0.00    +0.002 A 
ATOM     14  C   UNL     1       6.650   2.494   5.896  0.00  0.00    +0.022 A 
ATOM     15  C   UNL     1       5.822   1.403   6.064  0.00  0.00    +0.062 A 
ATOM     16  C   UNL     1       5.361   0.696   4.954  0.00  0.00    +0.057 A 
ATOM     17  N   UNL     1       4.528  -0.422   4.865  0.00  0.00    -0.282 N 
ATOM     18  C   UNL     1       4.324  -0.803   3.590  0.00  0.00    +0.243 C 
ATOM     19  O   UNL     1       3.649  -1.737   3.212  0.00  0.00    -0.273 OA
ATOM     20 CL   UNL     1       5.353   0.909   7.660  0.00  0.00    -0.082 Cl
ATOM     21  H   UNL     1       6.502  -1.321   2.405  0.00  0.00    +0.124 HD
ATOM     22  H   UNL     1       4.142  -0.872   5.633  0.00  0.00    +0.155 HD
ENDROOT
BRANCH   1  23
ATOM     23  C   UNL     1       0.742  -0.511   1.242  0.00  0.00    +0.081 C 
ATOM     24  C   UNL     1       0.655  -2.037   1.299  0.00  0.00    +0.028 C 
BRANCH  23  26
ATOM     25  C   UNL     1      -0.019   1.526   0.010  0.00  0.00    +0.006 C 
ATOM     26  C   UNL     1       0.002  -0.004   0.002  0.00  0.00    +0.019 C 
ENDBRANCH  23  26
ENDBRANCH   1  23
BRANCH   5  27
ATOM     27  C   UNL     1       6.254  -1.279  -0.464  0.00  0.00    +0.115 C 
BRANCH  27  28
ATOM     28  C   UNL     1       7.125  -2.475  -0.178  0.00  0.00    +0.212 C 
ATOM     29  O   UNL     1       7.011  -3.071   0.872  0.00  0.00    -0.276 OA
ATOM     30  N   UNL     1       8.030  -2.883  -1.089  0.00  0.00    -0.329 N 
ATOM     31  H   UNL     1       8.121  -2.406  -1.929  0.00  0.00    +0.145 HD
ATOM     32  H   UNL     1       8.591  -3.653  -0.905  0.00  0.00    +0.145 HD
ENDBRANCH  27  28
ENDBRANCH   5  27
TORSDOF 4
