REMARK  Name = ZINC39456171
REMARK  3 active torsions:
REMARK  status: ('A' for Active; 'I' for Inactive)
REMARK    1  A    between atoms: C_4  and  S_7
REMARK    2  A    between atoms: S_7  and  C_10
REMARK    3  A    between atoms: C_26  and  O_27
REMARK                            x       y       z     vdW  Elec       q    Type
REMARK                         _______ _______ _______ _____ _____    ______ ____
ROOT
ATOM      1  C   UNL     1       4.359  -1.068   1.707  0.00  0.00    +0.227 C 
ATOM      2  C   UNL     1       5.686  -1.827   1.818  0.00  0.00    +0.127 C 
ATOM      3  C   UNL     1       5.492  -3.243   1.341  0.00  0.00    +0.186 C 
ATOM      4  O   UNL     1       6.422  -3.840   0.837  0.00  0.00    -0.290 OA
ATOM      5  C   UNL     1       4.239  -3.883   1.474  0.00  0.00    +0.122 A 
ATOM      6  C   UNL     1       3.165  -3.187   1.992  0.00  0.00    +0.083 A 
ATOM      7  C   UNL     1       1.859  -3.854   2.138  0.00  0.00    +0.100 A 
ATOM      8  C   UNL     1       1.754  -5.208   1.724  0.00  0.00    +0.068 A 
ATOM      9  C   UNL     1       0.546  -5.883   1.837  0.00  0.00    +0.029 A 
ATOM     10  C   UNL     1      -0.546  -5.184   2.369  0.00  0.00    +0.043 A 
ATOM     11  C   UNL     1      -0.364  -3.788   2.777  0.00  0.00    +0.075 A 
ATOM     12  N   UNL     1       0.826  -3.203   2.639  0.00  0.00    -0.244 NA
ATOM     13  C   UNL     1      -1.464  -3.094   3.311  0.00  0.00    +0.028 A 
ATOM     14  C   UNL     1      -2.666  -3.722   3.437  0.00  0.00    +0.006 A 
ATOM     15  C   UNL     1      -2.847  -5.045   3.051  0.00  0.00    +0.046 A 
ATOM     16  C   UNL     1      -1.812  -5.784   2.521  0.00  0.00    +0.126 A 
ATOM     17  C   UNL     1       2.944  -5.876   1.174  0.00  0.00    +0.271 A 
ATOM     18  O   UNL     1       2.877  -7.036   0.812  0.00  0.00    -0.266 OA
ATOM     19  N   UNL     1       4.106  -5.208   1.072  0.00  0.00    -0.237 N 
ATOM     20 BR   UNL     1       5.580  -6.081   0.373  0.00  0.00    +0.058 Br
ATOM     21  N   UNL     1       3.315  -1.865   2.368  0.00  0.00    -0.319 N 
ATOM     22  H   UNL     1       2.747  -1.474   3.051  0.00  0.00    +0.148 HD
ENDROOT
BRANCH   1  23
ATOM     23  S   UNL     1       3.934  -0.832  -0.041  0.00  0.00    +0.016 S 
ATOM     24  O   UNL     1       3.641  -2.083  -0.647  0.00  0.00    -0.168 OA
ATOM     25  O   UNL     1       4.846   0.072  -0.648  0.00  0.00    -0.168 OA
BRANCH  23  29
ATOM     26  C   UNL     1      -0.017   1.378   0.010  0.00  0.00    +0.000 A 
ATOM     27  C   UNL     1       1.171   2.086   0.002  0.00  0.00    +0.002 A 
ATOM     28  C   UNL     1       2.377   1.411  -0.013  0.00  0.00    +0.027 A 
ATOM     29  C   UNL     1       2.396   0.029  -0.020  0.00  0.00    +0.090 A 
ATOM     30  C   UNL     1       1.208  -0.679  -0.012  0.00  0.00    +0.027 A 
ATOM     31  C   UNL     1       0.002  -0.004   0.002  0.00  0.00    +0.002 A 
ENDBRANCH  23  29
ENDBRANCH   1  23
BRANCH  16  32
ATOM     32  O   UNL     1      -2.009  -7.075   2.149  0.00  0.00    -0.506 OA
ATOM     33  H   UNL     1      -1.842  -7.716   2.853  0.00  0.00    +0.292 HD
ENDBRANCH  16  32
TORSDOF 3
