REMARK  Name = ZINC64626126
REMARK  5 active torsions:
REMARK  status: ('A' for Active; 'I' for Inactive)
REMARK    1  A    between atoms: C_6  and  C_7
REMARK    2  A    between atoms: C_7  and  C_8
REMARK    3  A    between atoms: C_7  and  O_25
REMARK    4  A    between atoms: C_8  and  N_9
REMARK    5  A    between atoms: C_13  and  C_15
REMARK                            x       y       z     vdW  Elec       q    Type
REMARK                         _______ _______ _______ _____ _____    ______ ____
ROOT
ATOM      1  N   UNL     1      -3.008  -1.725   1.357  0.00  0.00    +0.382 N 
ATOM      2  C   UNL     1      -4.008  -1.154   0.446  0.00  0.00    -0.079 C 
ATOM      3  C   UNL     1      -5.182  -2.123   0.300  0.00  0.00    -0.018 C 
ATOM      4  C   UNL     1      -5.817  -2.358   1.674  0.00  0.00    +0.007 C 
ATOM      5  C   UNL     1      -4.748  -2.884   2.636  0.00  0.00    +0.040 C 
ATOM      6  C   UNL     1      -3.589  -1.886   2.696  0.00  0.00    -0.067 C 
ATOM      7  H   UNL     1      -2.713  -2.625   1.009  0.00  0.00    -0.082 HD
ENDROOT
BRANCH   5   8
ATOM      8  C   UNL     1      -5.344  -3.045   4.011  0.00  0.00    +0.135 A 
ATOM      9  N   UNL     1      -5.882  -2.103   4.739  0.00  0.00    -0.134 NA
ATOM     10  N   UNL     1      -6.295  -2.599   5.853  0.00  0.00    -0.134 NA
ATOM     11  C   UNL     1      -6.043  -3.876   5.883  0.00  0.00    +0.133 A 
ATOM     12  N   UNL     1      -5.427  -4.193   4.719  0.00  0.00    -0.315 N 
ATOM     13  C   UNL     1      -4.937  -5.514   4.325  0.00  0.00    +0.125 C 
ATOM     14  C   UNL     1      -5.779  -6.594   5.011  0.00  0.00    +0.022 C 
ATOM     15  C   UNL     1      -5.166  -6.940   6.367  0.00  0.00    +0.002 C 
ATOM     16  C   UNL     1      -5.153  -5.715   7.277  0.00  0.00    +0.008 C 
ATOM     17  C   UNL     1      -6.374  -4.845   6.988  0.00  0.00    +0.076 C 
ENDBRANCH   5   8
BRANCH   1  18
ATOM     18  C   UNL     1      -1.848  -0.827   1.434  0.00  0.00    -0.042 C 
BRANCH  18  19
ATOM     19  C   UNL     1      -0.741  -1.493   2.253  0.00  0.00    +0.128 C 
BRANCH  19  25
ATOM     20  C   UNL     1       1.329  -0.469   1.290  0.00  0.00    +0.010 A 
ATOM     21  C   UNL     1       2.417   0.380   1.371  0.00  0.00    +0.050 A 
ATOM     22  C   UNL     1       2.622   1.139   2.514  0.00  0.00    +0.162 A 
ATOM     23  C   UNL     1       1.729   1.045   3.575  0.00  0.00    +0.162 A 
ATOM     24  C   UNL     1       0.640   0.190   3.487  0.00  0.00    +0.055 A 
ATOM     25  C   UNL     1       0.443  -0.565   2.346  0.00  0.00    -0.017 A 
ATOM     26  O   UNL     1       1.907   1.786   4.702  0.00  0.00    -0.485 OA
ATOM     27  C   UNL     1       3.208   2.350   4.904  0.00  0.00    +0.270 C 
ATOM     28  C   UNL     1       3.664   2.988   3.585  0.00  0.00    +0.270 C 
ATOM     29  O   UNL     1       3.699   1.967   2.581  0.00  0.00    -0.485 OA
ENDBRANCH  19  25
BRANCH  19  30
ATOM     30  O   UNL     1      -0.344  -2.709   1.618  0.00  0.00    -0.389 OA
ATOM     31  H   UNL     1      -0.003  -2.591   0.721  0.00  0.00    +0.210 HD
ENDBRANCH  19  30
ENDBRANCH  18  19
ENDBRANCH   1  18
TORSDOF 5
