REMARK  Name = ZINC19893924
REMARK  2 active torsions:
REMARK  status: ('A' for Active; 'I' for Inactive)
REMARK    1  A    between atoms: C_4  and  C_8
REMARK    2  A    between atoms: C_19  and  N_24
REMARK                            x       y       z     vdW  Elec       q    Type
REMARK                         _______ _______ _______ _____ _____    ______ ____
ROOT
ATOM      1  C   UNL     1      -5.048   5.423   0.083  0.00  0.00    +0.108 C 
ATOM      2  C   UNL     1      -3.837   5.901   0.864  0.00  0.00    +0.029 C 
ATOM      3  C   UNL     1      -3.562   7.411   0.873  0.00  0.00    +0.033 C 
ATOM      4  C   UNL     1      -2.040   7.446   1.028  0.00  0.00    -0.030 C 
ATOM      5  C   UNL     1      -1.509   6.326   0.552  0.00  0.00    -0.023 C 
ATOM      6  C   UNL     1      -2.601   5.474   0.016  0.00  0.00    +0.049 C 
ATOM      7  C   UNL     1      -2.525   3.998   0.033  0.00  0.00    -0.017 A 
ATOM      8  C   UNL     1      -1.325   3.319   0.032  0.00  0.00    +0.038 A 
ATOM      9  C   UNL     1      -1.306   1.936   0.019  0.00  0.00    +0.127 A 
ATOM     10  C   UNL     1      -2.494   1.229   0.021  0.00  0.00    +0.034 A 
ATOM     11  C   UNL     1      -3.700   1.899   0.037  0.00  0.00    +0.025 A 
ATOM     12  C   UNL     1      -3.731   3.288   0.046  0.00  0.00    +0.032 A 
ATOM     13  N   UNL     1      -4.966   3.946   0.082  0.00  0.00    -0.336 N 
ATOM     14  H   UNL     1      -5.886   3.345   0.111  0.00  0.00    +0.147 HD
ENDROOT
BRANCH   1  18
ATOM     15  C   UNL     1      -8.643   6.701   2.007  0.00  0.00    +0.003 A 
ATOM     16  C   UNL     1      -8.255   7.280   0.813  0.00  0.00    +0.020 A 
ATOM     17  C   UNL     1      -7.091   6.867   0.190  0.00  0.00    +0.047 A 
ATOM     18  C   UNL     1      -6.316   5.874   0.761  0.00  0.00    +0.010 A 
ATOM     19  C   UNL     1      -6.707   5.291   1.953  0.00  0.00    +0.047 A 
ATOM     20  C   UNL     1      -7.868   5.710   2.579  0.00  0.00    +0.020 A 
ATOM     21 CL   UNL     1      -5.738   4.041   2.668  0.00  0.00    -0.083 Cl
ATOM     22 CL   UNL     1      -6.604   7.594  -1.310  0.00  0.00    -0.083 Cl
ENDBRANCH   1  18
BRANCH   9  23
ATOM     23  N   UNL     1      -0.014   1.214   0.009  0.00  0.00    +0.056 N 
ATOM     24  O   UNL     1       0.002  -0.004   0.002  0.00  0.00    -0.126 OA
ATOM     25  O   UNL     1       1.032   1.837   0.002  0.00  0.00    -0.126 OA
ENDBRANCH   9  23
TORSDOF 2
