REMARK  Name = ZINC32099629
REMARK  7 active torsions:
REMARK  status: ('A' for Active; 'I' for Inactive)
REMARK    1  A    between atoms: C_1  and  C_2
REMARK    2  A    between atoms: C_6  and  N_8
REMARK    3  A    between atoms: C_12  and  C_13
REMARK    4  A    between atoms: C_16  and  C_18
REMARK    5  A    between atoms: C_21  and  S_24
REMARK    6  A    between atoms: S_24  and  N_27
REMARK    7  A    between atoms: C_28  and  C_30
REMARK                            x       y       z     vdW  Elec       q    Type
REMARK                         _______ _______ _______ _____ _____    ______ ____
ROOT
ATOM      1  C   UNL     1       0.611   3.220   0.013  0.00  0.00    +0.129 A 
ATOM      2  C   UNL     1       1.096   1.919   0.002  0.00  0.00    +0.050 A 
ATOM      3  C   UNL     1      -0.013   1.076   0.008  0.00  0.00    +0.050 A 
ATOM      4  C   UNL     1      -1.133   1.881   0.017  0.00  0.00    +0.136 A 
ATOM      5  O   UNL     1      -0.739   3.165   0.026  0.00  0.00    -0.455 OA
ENDROOT
BRANCH   1  10
ATOM      6  N   UNL     1      -0.813   7.254   0.049  0.00  0.00    -0.184 N 
ATOM      7  C   UNL     1      -0.675   5.915   0.040  0.00  0.00    +0.272 C 
ATOM      8  O   UNL     1      -1.573   5.093   0.045  0.00  0.00    -0.268 OA
ATOM      9  C   UNL     1       0.770   5.633   0.025  0.00  0.00    +0.105 C 
ATOM     10  C   UNL     1       1.387   4.389   0.012  0.00  0.00    +0.064 C 
ATOM     11  C   UNL     1       1.419   6.954   0.032  0.00  0.00    +0.266 C 
ATOM     12  O   UNL     1       2.617   7.173   0.027  0.00  0.00    -0.268 OA
ATOM     13  N   UNL     1       0.436   7.874   0.041  0.00  0.00    -0.223 N 
ATOM     14  H   UNL     1       0.505   8.972   0.042  0.00  0.00    +0.174 HD
BRANCH   6  20
ATOM     15  C   UNL     1      -3.312  11.487   0.096  0.00  0.00    +0.044 C 
ATOM     16  C   UNL     1      -3.279   9.981   0.088  0.00  0.00    -0.049 A 
ATOM     17  C   UNL     1      -4.461   9.264   0.095  0.00  0.00    +0.003 A 
ATOM     18  C   UNL     1      -4.435   7.881   0.087  0.00  0.00    +0.002 A 
ATOM     19  C   UNL     1      -3.227   7.212   0.066  0.00  0.00    +0.025 A 
ATOM     20  C   UNL     1      -2.038   7.929   0.065  0.00  0.00    +0.057 A 
ATOM     21  C   UNL     1      -2.067   9.318   0.073  0.00  0.00    +0.028 A 
ENDBRANCH   6  20
ENDBRANCH   1  10
BRANCH   4  22
ATOM     22  C   UNL     1      -2.531   1.410   0.020  0.00  0.00    +0.017 A 
ATOM     23  C   UNL     1      -2.811   0.041   0.007  0.00  0.00    +0.013 A 
ATOM     24  C   UNL     1      -4.120  -0.392   0.015  0.00  0.00    +0.030 A 
ATOM     25  C   UNL     1      -5.156   0.526   0.025  0.00  0.00    +0.113 A 
ATOM     26  C   UNL     1      -4.887   1.883   0.032  0.00  0.00    +0.030 A 
ATOM     27  C   UNL     1      -3.582   2.331   0.029  0.00  0.00    +0.013 A 
BRANCH  25  28
ATOM     28  S   UNL     1      -6.826  -0.037   0.029  0.00  0.00    +0.102 S 
ATOM     29  O   UNL     1      -6.811  -1.350   0.572  0.00  0.00    -0.146 OA
ATOM     30  O   UNL     1      -7.606   1.010   0.589  0.00  0.00    -0.146 OA
BRANCH  28  31
ATOM     31  N   UNL     1      -7.297  -0.184  -1.552  0.00  0.00    -0.091 NA
ATOM     32  C   UNL     1      -6.705  -1.095  -2.350  0.00  0.00    +0.262 C 
ATOM     33  O   UNL     1      -5.827  -1.807  -1.909  0.00  0.00    -0.270 OA
ATOM     34  C   UNL     1      -7.133  -1.229  -3.788  0.00  0.00    +0.116 C 
ENDBRANCH  28  31
ENDBRANCH  25  28
ENDBRANCH   4  22
TORSDOF 5
