REMARK  Name = ZINC12849394
REMARK  5 active torsions:
REMARK  status: ('A' for Active; 'I' for Inactive)
REMARK    1  A    between atoms: C_3  and  C_6
REMARK    2  A    between atoms: C_9  and  C_28
REMARK    3  A    between atoms: C_14  and  C_16
REMARK    4  A    between atoms: N_18  and  C_19
REMARK    5  A    between atoms: C_24  and  O_25
REMARK                            x       y       z     vdW  Elec       q    Type
REMARK                         _______ _______ _______ _____ _____    ______ ____
ROOT
ATOM      1  C   UNL     1       3.762   1.892  -0.056  0.00  0.00    +0.111 C 
ATOM      2  C   UNL     1       4.342   1.814   1.361  0.00  0.00    +0.063 C 
ATOM      3  C   UNL     1       5.764   2.385   1.376  0.00  0.00    +0.215 C 
ATOM      4  N   UNL     1       6.535   1.767   0.293  0.00  0.00    -0.238 N 
ATOM      5  C   UNL     1       5.966   1.144  -0.782  0.00  0.00    +0.119 A 
ATOM      6  C   UNL     1       6.956   0.690  -1.575  0.00  0.00    +0.078 A 
ATOM      7  C   UNL     1       8.184   1.045  -0.972  0.00  0.00    +0.149 A 
ATOM      8  N   UNL     1       7.919   1.692   0.149  0.00  0.00    -0.164 NA
ATOM      9  N   UNL     1       4.581   1.049  -0.949  0.00  0.00    -0.322 N 
ATOM     10  H   UNL     1       4.181   0.463  -1.610  0.00  0.00    +0.148 HD
ENDROOT
BRANCH   1  13
ATOM     11  C   UNL     1      -0.018   1.423  -0.037  0.00  0.00    +0.008 A 
ATOM     12  C   UNL     1       1.186   2.102  -0.041  0.00  0.00    +0.013 A 
ATOM     13  C   UNL     1       2.341   1.392  -0.049  0.00  0.00    +0.010 A 
ATOM     14  S   UNL     1       1.740  -0.289  -0.052  0.00  0.00    -0.100 S 
ATOM     15  C   UNL     1      -0.009   0.068  -0.041  0.00  0.00    +0.045 A 
ENDBRANCH   1  13
BRANCH   7  16
ATOM     16  C   UNL     1       9.529   0.745  -1.503  0.00  0.00    +0.268 C 
ATOM     17  O   UNL     1       9.648   0.139  -2.551  0.00  0.00    -0.268 OA
ATOM     18  N   UNL     1      10.625   1.143  -0.826  0.00  0.00    -0.277 N 
ATOM     19  H   UNL     1      10.531   1.681  -0.025  0.00  0.00    +0.155 HD
BRANCH  18  20
ATOM     20  C   UNL     1      11.899   0.778  -1.280  0.00  0.00    +0.077 A 
ATOM     21  C   UNL     1      12.151   0.679  -2.641  0.00  0.00    +0.047 A 
ATOM     22  C   UNL     1      13.410   0.319  -3.086  0.00  0.00    +0.043 A 
ATOM     23  C   UNL     1      14.419   0.057  -2.177  0.00  0.00    +0.023 A 
ATOM     24  C   UNL     1      14.174   0.153  -0.819  0.00  0.00    +0.049 A 
ATOM     25  C   UNL     1      12.918   0.518  -0.366  0.00  0.00    +0.138 A 
ATOM     26 CL   UNL     1      13.724   0.196  -4.789  0.00  0.00    -0.083 Cl
BRANCH  25  27
ATOM     27  O   UNL     1      12.677   0.618   0.969  0.00  0.00    -0.505 OA
ATOM     28  H   UNL     1      12.372  -0.204   1.376  0.00  0.00    +0.292 HD
ENDBRANCH  25  27
ENDBRANCH  18  20
ENDBRANCH   7  16
BRANCH   3  29
ATOM     29  C   UNL     1       6.426   2.077   2.720  0.00  0.00    +0.412 C 
ATOM     30  F   UNL     1       6.479   0.692   2.907  0.00  0.00    -0.168 F 
ATOM     31  F   UNL     1       7.724   2.599   2.731  0.00  0.00    -0.168 F 
ATOM     32  F   UNL     1       5.681   2.658   3.751  0.00  0.00    -0.168 F 
ENDBRANCH   3  29
TORSDOF 5
