REMARK  Name = ZINC45334259
REMARK  5 active torsions:
REMARK  status: ('A' for Active; 'I' for Inactive)
REMARK    1  A    between atoms: C_1  and  C_2
REMARK    2  A    between atoms: C_2  and  C_19
REMARK    3  A    between atoms: N_3  and  N_4
REMARK    4  A    between atoms: C_5  and  C_7
REMARK    5  A    between atoms: N_10  and  C_12
REMARK                            x       y       z     vdW  Elec       q    Type
REMARK                         _______ _______ _______ _____ _____    ______ ____
ROOT
ATOM      1  N   UNL     1       0.024   0.033   2.342  0.00  0.00    -0.201 N 
ATOM      2  C   UNL     1       0.044  -0.647   3.506  0.00  0.00    +0.287 C 
ATOM      3  O   UNL     1       0.060  -1.863   3.499  0.00  0.00    -0.267 OA
ATOM      4  H   UNL     1       0.011   1.003   2.348  0.00  0.00    +0.178 HD
ENDROOT
BRANCH   2   5
ATOM      5  C   UNL     1       0.046   0.084   4.787  0.00  0.00    +0.195 A 
ATOM      6  C   UNL     1       0.072  -0.490   6.083  0.00  0.00    +0.229 A 
ATOM      7  C   UNL     1       0.064   0.560   6.944  0.00  0.00    +0.166 A 
ATOM      8  N   UNL     1       0.035   1.693   6.191  0.00  0.00    -0.235 N 
ATOM      9  N   UNL     1       0.030   1.394   4.942  0.00  0.00    -0.158 NA
ATOM     10  O   UNL     1       0.099  -1.814   6.399  0.00  0.00    -0.284 OA
BRANCH   8  11
ATOM     11  C   UNL     1       0.018   2.997   6.704  0.00  0.00    +0.065 A 
ATOM     12  C   UNL     1       0.037   3.204   8.077  0.00  0.00    +0.028 A 
ATOM     13  C   UNL     1       0.021   4.491   8.580  0.00  0.00    +0.002 A 
ATOM     14  C   UNL     1      -0.014   5.571   7.717  0.00  0.00    +0.000 A 
ATOM     15  C   UNL     1      -0.033   5.368   6.349  0.00  0.00    +0.002 A 
ATOM     16  C   UNL     1      -0.011   4.084   5.841  0.00  0.00    +0.028 A 
ENDBRANCH   8  11
ENDBRANCH   2   5
BRANCH   1  19
ATOM     17  C   UNL     1      -0.018   1.503   0.010  0.00  0.00    +0.068 C 
ATOM     18  C   UNL     1       0.002  -0.004   0.002  0.00  0.00    +0.070 C 
ATOM     19  N   UNL     1       0.022  -0.661   1.125  0.00  0.00    -0.184 NA
BRANCH  18  20
ATOM     20  C   UNL     1      -0.000  -0.730  -1.272  0.00  0.00    +0.036 A 
ATOM     21  C   UNL     1       0.011  -2.096  -1.497  0.00  0.00    +0.019 A 
ATOM     22  C   UNL     1       0.005  -2.543  -2.798  0.00  0.00    +0.028 A 
ATOM     23  C   UNL     1      -0.011  -1.638  -3.813  0.00  0.00    +0.079 A 
ATOM     24  S   UNL     1      -0.025  -0.084  -2.936  0.00  0.00    -0.076 S 
ATOM     25 CL   UNL     1      -0.020  -1.922  -5.525  0.00  0.00    -0.076 Cl
ENDBRANCH  18  20
ENDBRANCH   1  19
TORSDOF 4
