REMARK  Name = ZINC27533233
REMARK  7 active torsions:
REMARK  status: ('A' for Active; 'I' for Inactive)
REMARK    1  A    between atoms: C_1  and  C_2
REMARK    2  A    between atoms: C_2  and  O_3
REMARK    3  A    between atoms: O_3  and  C_4
REMARK    4  A    between atoms: C_4  and  C_6
REMARK    5  A    between atoms: C_7  and  N_32
REMARK    6  A    between atoms: C_11  and  C_13
REMARK    7  A    between atoms: C_23  and  C_26
REMARK                            x       y       z     vdW  Elec       q    Type
REMARK                         _______ _______ _______ _____ _____    ______ ____
ROOT
ATOM      1  C   UNL     1      -1.211   2.988   0.133  0.00  0.00    +0.105 C 
ATOM      2  C   UNL     1      -1.207   1.632   0.041  0.00  0.00    +0.195 C 
ATOM      3  O   UNL     1      -2.350   0.937  -0.059  0.00  0.00    -0.446 OA
ATOM      4  C   UNL     1      -3.506   1.487   0.356  0.00  0.00    +0.115 C 
ATOM      5  C   UNL     1      -3.652   2.821   0.455  0.00  0.00    +0.045 C 
ATOM      6  C   UNL     1      -2.508   3.747   0.118  0.00  0.00    +0.097 C 
ATOM      7  C   UNL     1      -4.867   3.396   0.876  0.00  0.00    +0.164 C 
ATOM      8  O   UNL     1      -4.955   4.604   0.969  0.00  0.00    -0.292 OA
ATOM      9  C   UNL     1      -6.059   2.541   1.213  0.00  0.00    +0.088 C 
ATOM     10  C   UNL     1      -5.979   1.240   0.406  0.00  0.00    +0.034 C 
ATOM     11  C   UNL     1      -4.644   0.560   0.714  0.00  0.00    +0.083 C 
ENDROOT
BRANCH   6  12
ATOM     12  C   UNL     1      -2.729   4.336  -1.252  0.00  0.00    -0.035 A 
ATOM     13  C   UNL     1      -2.821   3.506  -2.354  0.00  0.00    +0.006 A 
ATOM     14  C   UNL     1      -3.029   4.046  -3.609  0.00  0.00    +0.020 A 
ATOM     15  C   UNL     1      -3.135   5.417  -3.764  0.00  0.00    +0.041 A 
ATOM     16  C   UNL     1      -3.038   6.246  -2.661  0.00  0.00    +0.020 A 
ATOM     17  C   UNL     1      -2.835   5.705  -1.406  0.00  0.00    +0.006 A 
ATOM     18 CL   UNL     1      -3.389   6.096  -5.342  0.00  0.00    -0.084 Cl
ENDBRANCH   6  12
BRANCH  10  19
ATOM     19  C   UNL     1      -7.114   0.330   0.800  0.00  0.00    -0.043 A 
ATOM     20  C   UNL     1      -7.243  -0.086   2.112  0.00  0.00    +0.004 A 
ATOM     21  C   UNL     1      -8.287  -0.917   2.474  0.00  0.00    +0.000 A 
ATOM     22  C   UNL     1      -9.195  -1.340   1.522  0.00  0.00    +0.000 A 
ATOM     23  C   UNL     1      -9.063  -0.929   0.209  0.00  0.00    +0.000 A 
ATOM     24  C   UNL     1      -8.022  -0.094  -0.152  0.00  0.00    +0.004 A 
ENDBRANCH  10  19
BRANCH   2  25
ATOM     25  N   UNL     1      -0.013   0.962   0.056  0.00  0.00    -0.329 N 
ATOM     26  H   UNL     1       0.002  -0.135  -0.018  0.00  0.00    +0.145 HD
ATOM     27  H   UNL     1       0.930   1.521   0.141  0.00  0.00    +0.145 HD
ENDBRANCH   2  25
BRANCH   1  28
ATOM     28  C   UNL     1       0.004   3.683   0.238  0.00  0.00    +0.341 C 
ATOM     29  O   UNL     1       1.060   3.085   0.133  0.00  0.00    -0.245 OA
BRANCH  28  30
ATOM     30  O   UNL     1       0.002   5.016   0.455  0.00  0.00    -0.462 OA
BRANCH  30  32
ATOM     31  C   UNL     1       1.071   7.157   0.795  0.00  0.00    +0.048 C 
ATOM     32  C   UNL     1       1.274   5.660   0.551  0.00  0.00    +0.229 C 
ENDBRANCH  30  32
ENDBRANCH  28  30
ENDBRANCH   1  28
TORSDOF 6
