REMARK  Name = ZINC44577251
REMARK  9 active torsions:
REMARK  status: ('A' for Active; 'I' for Inactive)
REMARK    1  A    between atoms: C_1  and  O_2
REMARK    2  A    between atoms: O_2  and  C_3
REMARK    3  A    between atoms: C_3  and  C_5
REMARK    4  A    between atoms: C_5  and  C_6
REMARK    5  A    between atoms: C_6  and  C_8
REMARK    6  A    between atoms: C_6  and  N_12
REMARK    7  A    between atoms: C_8  and  O_10
REMARK    8  A    between atoms: O_10  and  C_11
REMARK    9  A    between atoms: C_24  and  C_26
REMARK                            x       y       z     vdW  Elec       q    Type
REMARK                         _______ _______ _______ _____ _____    ______ ____
ROOT
ATOM      1  N   UNL     1      -5.440  -2.198  -0.147  0.00  0.00    -0.286 N 
ATOM      2  C   UNL     1      -4.698  -1.993  -1.253  0.00  0.00    +0.304 C 
ATOM      3  O   UNL     1      -3.486  -2.065  -1.195  0.00  0.00    -0.253 OA
ATOM      4  N   UNL     1      -5.301  -1.707  -2.425  0.00  0.00    -0.273 N 
ATOM      5  C   UNL     1      -4.519  -1.596  -3.666  0.00  0.00    +0.116 C 
ATOM      6  C   UNL     1      -4.607  -0.156  -4.187  0.00  0.00    +0.074 C 
ATOM      7  C   UNL     1      -6.040   0.302  -4.109  0.00  0.00    +0.040 A 
ATOM      8  C   UNL     1      -6.997  -0.283  -3.358  0.00  0.00    +0.062 A 
ATOM      9  N   UNL     1      -8.135   0.392  -3.535  0.00  0.00    -0.348 N 
ATOM     10  C   UNL     1      -7.923   1.376  -4.370  0.00  0.00    +0.171 A 
ATOM     11  N   UNL     1      -6.625   1.351  -4.752  0.00  0.00    -0.349 N 
ATOM     12  H   UNL     1      -6.193   1.964  -5.367  0.00  0.00    +0.166 HD
ATOM     13  C   UNL     1      -6.759  -1.504  -2.494  0.00  0.00    +0.157 C 
ATOM     14  H   UNL     1      -6.401  -2.070  -0.176  0.00  0.00    +0.151 HD
ATOM     15  H   UNL     1      -8.983   0.187  -3.111  0.00  0.00    +0.167 HD
ENDROOT
BRANCH  13  16
ATOM     16  C   UNL     1      -7.416  -2.711  -3.111  0.00  0.00    -0.003 A 
ATOM     17  C   UNL     1      -6.654  -3.639  -3.795  0.00  0.00    +0.007 A 
ATOM     18  C   UNL     1      -7.256  -4.747  -4.361  0.00  0.00    +0.000 A 
ATOM     19  C   UNL     1      -8.622  -4.927  -4.244  0.00  0.00    +0.001 A 
ATOM     20  C   UNL     1      -9.386  -3.999  -3.561  0.00  0.00    +0.020 A 
ATOM     21  C   UNL     1      -8.782  -2.893  -2.989  0.00  0.00    +0.046 A 
ATOM     22 CL   UNL     1      -9.739  -1.731  -2.125  0.00  0.00    -0.083 Cl
ENDBRANCH  13  16
BRANCH   1  23
ATOM     23  C   UNL     1      -4.795  -2.616   1.100  0.00  0.00    +0.194 C 
BRANCH  23  24
ATOM     24  C   UNL     1      -4.293  -1.401   1.837  0.00  0.00    +0.328 C 
ATOM     25  O   UNL     1      -4.458  -0.299   1.369  0.00  0.00    -0.249 OA
BRANCH  24  26
ATOM     26  O   UNL     1      -3.663  -1.542   3.014  0.00  0.00    -0.467 OA
ATOM     27  C   UNL     1      -3.215  -0.347   3.658  0.00  0.00    +0.280 C 
ENDBRANCH  24  26
ENDBRANCH  23  24
BRANCH  23  28
ATOM     28  C   UNL     1      -5.806  -3.361   1.974  0.00  0.00    +0.154 C 
BRANCH  28  29
ATOM     29  C   UNL     1      -6.215  -4.639   1.289  0.00  0.00    +0.309 C 
ATOM     30  O   UNL     1      -5.746  -4.925   0.213  0.00  0.00    -0.251 OA
BRANCH  29  32
ATOM     31  C   UNL     1      -7.443  -6.655   1.169  0.00  0.00    +0.280 C 
ATOM     32  O   UNL     1      -7.101  -5.460   1.875  0.00  0.00    -0.468 OA
ENDBRANCH  29  32
ENDBRANCH  28  29
ENDBRANCH  23  28
ENDBRANCH   1  23
TORSDOF 7
