REMARK  Name = ZINC63270461
REMARK  9 active torsions:
REMARK  status: ('A' for Active; 'I' for Inactive)
REMARK    1  A    between atoms: C_1  and  O_2
REMARK    2  A    between atoms: O_2  and  C_3
REMARK    3  A    between atoms: C_9  and  C_12
REMARK    4  A    between atoms: C_12  and  C_13
REMARK    5  A    between atoms: C_13  and  N_14
REMARK    6  A    between atoms: C_15  and  C_17
REMARK    7  A    between atoms: C_17  and  O_18
REMARK    8  A    between atoms: O_18  and  C_19
REMARK    9  A    between atoms: C_27  and  C_31
REMARK                            x       y       z     vdW  Elec       q    Type
REMARK                         _______ _______ _______ _____ _____    ______ ____
ROOT
ATOM      1  C   UNL     1      -2.367  -8.584  -0.999  0.00  0.00    +0.324 C 
ENDROOT
BRANCH   1   3
ATOM      2  N   UNL     1      -0.752  -6.781  -1.509  0.00  0.00    -0.312 N 
ATOM      3  C   UNL     1      -1.922  -7.385  -1.796  0.00  0.00    +0.251 C 
ATOM      4  O   UNL     1      -2.617  -6.964  -2.697  0.00  0.00    -0.272 OA
ATOM      5  H   UNL     1      -0.196  -7.118  -0.789  0.00  0.00    +0.149 HD
BRANCH   2   6
ATOM      6  C   UNL     1      -0.319  -5.616  -2.284  0.00  0.00    +0.108 C 
BRANCH   6   7
ATOM      7  C   UNL     1       1.031  -5.126  -1.758  0.00  0.00    +0.052 C 
BRANCH   7  14
ATOM      8  C   UNL     1       0.606  -0.607  -1.056  0.00  0.00    +0.121 A 
ATOM      9  C   UNL     1       1.172   0.195  -2.062  0.00  0.00    +0.047 A 
ATOM     10  C   UNL     1       1.790  -0.325  -3.144  0.00  0.00    +0.029 A 
ATOM     11  C   UNL     1       1.886  -1.780  -3.299  0.00  0.00    +0.043 A 
ATOM     12  N   UNL     1       2.419  -2.528  -4.232  0.00  0.00    -0.380 N 
ATOM     13  C   UNL     1       2.222  -3.937  -3.871  0.00  0.00    +0.144 C 
ATOM     14  C   UNL     1       1.476  -3.927  -2.555  0.00  0.00    -0.040 C 
ATOM     15  C   UNL     1       1.290  -2.626  -2.239  0.00  0.00    +0.002 A 
ATOM     16  C   UNL     1       0.646  -1.960  -1.102  0.00  0.00    +0.055 A 
ATOM     17  H   UNL     1       2.869  -2.205  -5.029  0.00  0.00    +0.160 HD
BRANCH   8  19
ATOM     18  C   UNL     1      -0.017   1.425   0.010  0.00  0.00    +0.277 C 
ATOM     19  O   UNL     1       0.002  -0.004   0.002  0.00  0.00    -0.495 OA
ENDBRANCH   8  19
ENDBRANCH   7  14
ENDBRANCH   6   7
ENDBRANCH   2   6
ENDBRANCH   1   3
BRANCH   1  20
ATOM     20  O   UNL     1      -3.629  -9.041  -1.490  0.00  0.00    -0.483 OA
BRANCH  20  21
ATOM     21  C   UNL     1      -4.174 -10.121  -0.877  0.00  0.00    +0.125 A 
ATOM     22  C   UNL     1      -3.503 -10.724   0.185  0.00  0.00    +0.046 A 
ATOM     23  C   UNL     1      -4.043 -11.810   0.812  0.00  0.00    +0.018 A 
ATOM     24  C   UNL     1      -5.273 -12.319   0.386  0.00  0.00    +0.060 A 
ATOM     25  C   UNL     1      -5.955 -11.720  -0.688  0.00  0.00    +0.134 A 
ATOM     26  C   UNL     1      -5.397 -10.613  -1.308  0.00  0.00    +0.092 A 
ATOM     27  O   UNL     1      -7.139 -12.212  -1.119  0.00  0.00    -0.490 OA
ATOM     28  C   UNL     1      -7.921 -13.000  -0.222  0.00  0.00    +0.245 C 
ATOM     29  C   UNL     1      -7.054 -14.133   0.348  0.00  0.00    +0.128 C 
ATOM     30  C   UNL     1      -5.875 -13.484   1.051  0.00  0.00    +0.177 C 
ATOM     31  O   UNL     1      -5.451 -13.905   2.107  0.00  0.00    -0.291 OA
BRANCH  29  32
ATOM     32  C   UNL     1      -6.565 -15.017  -0.770  0.00  0.00    -0.034 A 
ATOM     33  C   UNL     1      -5.781 -14.486  -1.778  0.00  0.00    +0.004 A 
ATOM     34  C   UNL     1      -5.332 -15.297  -2.803  0.00  0.00    +0.000 A 
ATOM     35  C   UNL     1      -5.667 -16.639  -2.821  0.00  0.00    +0.000 A 
ATOM     36  C   UNL     1      -6.449 -17.169  -1.812  0.00  0.00    +0.000 A 
ATOM     37  C   UNL     1      -6.895 -16.359  -0.784  0.00  0.00    +0.004 A 
ENDBRANCH  29  32
ENDBRANCH  20  21
ENDBRANCH   1  20
TORSDOF 8
