REMARK  Name = ZINC01404525
REMARK  8 active torsions:
REMARK  status: ('A' for Active; 'I' for Inactive)
REMARK    1  A    between atoms: C_1  and  C_2
REMARK    2  A    between atoms: C_5  and  C_8
REMARK    3  A    between atoms: N_15  and  C_17
REMARK    4  A    between atoms: C_17  and  C_18
REMARK    5  A    between atoms: C_17  and  C_19
REMARK    6  A    between atoms: C_17  and  C_20
REMARK    7  A    between atoms: N_21  and  S_22
REMARK    8  A    between atoms: S_22  and  C_25
REMARK                            x       y       z     vdW  Elec       q    Type
REMARK                         _______ _______ _______ _____ _____    ______ ____
ROOT
ATOM      1  C   UNL     1       1.489  -3.947  -4.574  0.00  0.00    +0.105 A 
ATOM      2  C   UNL     1       2.353  -3.111  -3.741  0.00  0.00    +0.088 A 
ATOM      3  C   UNL     1       2.286  -2.608  -2.431  0.00  0.00    +0.152 A 
ATOM      4  N   UNL     1       3.285  -1.847  -1.995  0.00  0.00    -0.219 NA
ATOM      5  C   UNL     1       4.316  -1.563  -2.772  0.00  0.00    +0.225 A 
ATOM      6  N   UNL     1       4.419  -2.006  -4.005  0.00  0.00    -0.216 NA
ATOM      7  C   UNL     1       3.467  -2.776  -4.533  0.00  0.00    +0.164 A 
ATOM      8  N   UNL     1       3.286  -3.376  -5.744  0.00  0.00    -0.240 N 
ATOM      9  N   UNL     1       2.077  -4.079  -5.739  0.00  0.00    -0.168 NA
ATOM     10  N   UNL     1       1.211  -2.901  -1.615  0.00  0.00    -0.199 N 
ATOM     11  H   UNL     1       0.635  -3.654  -1.823  0.00  0.00    +0.175 HD
ENDROOT
BRANCH   1  16
ATOM     12  C   UNL     1      -3.553  -6.252  -3.019  0.00  0.00    +0.044 C 
ATOM     13  C   UNL     1      -2.233  -5.649  -3.425  0.00  0.00    -0.050 A 
ATOM     14  C   UNL     1      -1.952  -4.331  -3.112  0.00  0.00    +0.004 A 
ATOM     15  C   UNL     1      -0.746  -3.773  -3.483  0.00  0.00    +0.010 A 
ATOM     16  C   UNL     1       0.191  -4.540  -4.173  0.00  0.00    +0.003 A 
ATOM     17  C   UNL     1      -0.100  -5.866  -4.491  0.00  0.00    +0.010 A 
ATOM     18  C   UNL     1      -1.308  -6.415  -4.111  0.00  0.00    +0.004 A 
ENDBRANCH   1  16
BRANCH   8  19
ATOM     19  C   UNL     1       4.214  -3.295  -6.875  0.00  0.00    +0.058 C 
ATOM     20  C   UNL     1       5.571  -3.869  -6.463  0.00  0.00    +0.036 C 
ATOM     21  C   UNL     1       3.656  -4.100  -8.051  0.00  0.00    +0.036 C 
ATOM     22  C   UNL     1       4.384  -1.833  -7.293  0.00  0.00    +0.036 C 
ENDBRANCH   8  19
BRANCH  10  23
ATOM     23  S   UNL     1       0.906  -1.969  -0.280  0.00  0.00    +0.073 S 
ATOM     24  O   UNL     1       2.137  -1.843   0.417  0.00  0.00    -0.150 OA
ATOM     25  O   UNL     1      -0.264  -2.501   0.328  0.00  0.00    -0.150 OA
BRANCH  23  26
ATOM     26  C   UNL     1       0.486  -0.358  -0.856  0.00  0.00    +0.109 A 
ATOM     27  C   UNL     1      -0.833  -0.042  -1.124  0.00  0.00    +0.030 A 
ATOM     28  C   UNL     1      -1.163   1.222  -1.575  0.00  0.00    +0.022 A 
ATOM     29  C   UNL     1      -0.174   2.171  -1.758  0.00  0.00    +0.041 A 
ATOM     30  C   UNL     1       1.146   1.855  -1.490  0.00  0.00    +0.022 A 
ATOM     31  C   UNL     1       1.475   0.590  -1.039  0.00  0.00    +0.030 A 
ATOM     32 CL   UNL     1      -0.588   3.759  -2.325  0.00  0.00    -0.084 Cl
ENDBRANCH  23  26
ENDBRANCH  10  23
TORSDOF 4
