REMARK  Name = ZINC22435115
REMARK  7 active torsions:
REMARK  status: ('A' for Active; 'I' for Inactive)
REMARK    1  A    between atoms: C_1  and  O_2
REMARK    2  A    between atoms: O_2  and  C_3
REMARK    3  A    between atoms: C_3  and  C_5
REMARK    4  A    between atoms: C_10  and  N_11
REMARK    5  A    between atoms: C_12  and  C_16
REMARK    6  A    between atoms: C_16  and  N_22
REMARK    7  A    between atoms: C_23  and  C_25
REMARK                            x       y       z     vdW  Elec       q    Type
REMARK                         _______ _______ _______ _____ _____    ______ ____
ROOT
ATOM      1  C   UNL     1       0.252   1.119   0.649  0.00  0.00    +0.096 C 
ATOM      2  C   UNL     1       1.668   1.610   0.958  0.00  0.00    +0.034 C 
ATOM      3  C   UNL     1       2.687   0.645   0.347  0.00  0.00    +0.003 C 
ATOM      4  C   UNL     1       2.489  -0.750   0.944  0.00  0.00    +0.000 C 
ATOM      5  C   UNL     1       1.073  -1.241   0.635  0.00  0.00    +0.003 C 
ATOM      6  C   UNL     1       0.054  -0.277   1.245  0.00  0.00    +0.034 C 
ENDROOT
BRANCH   1   8
ATOM      7  N   UNL     1      -2.097   1.953   1.195  0.00  0.00    -0.194 N 
ATOM      8  C   UNL     1      -0.752   2.068   1.250  0.00  0.00    +0.180 A 
ATOM      9  N   UNL     1      -0.483   3.154   1.927  0.00  0.00    -0.111 NA
ATOM     10  N   UNL     1      -1.565   3.738   2.296  0.00  0.00    -0.023 NA
ATOM     11  N   UNL     1      -2.592   3.069   1.893  0.00  0.00    -0.039 NA
BRANCH   7  17
ATOM     12  C   UNL     1      -3.634   0.081   1.348  0.00  0.00    +0.084 A 
ATOM     13  C   UNL     1      -4.374  -0.923   0.719  0.00  0.00    +0.017 A 
ATOM     14  C   UNL     1      -4.310  -1.068  -0.651  0.00  0.00    +0.001 A 
ATOM     15  C   UNL     1      -3.518  -0.220  -1.407  0.00  0.00    +0.002 A 
ATOM     16  C   UNL     1      -2.785   0.780  -0.799  0.00  0.00    +0.029 A 
ATOM     17  C   UNL     1      -2.838   0.941   0.578  0.00  0.00    +0.083 A 
BRANCH  12  18
ATOM     18  C   UNL     1      -3.693   0.238   2.813  0.00  0.00    +0.341 C 
ATOM     19  O   UNL     1      -3.051   1.115   3.357  0.00  0.00    -0.245 OA
BRANCH  18  21
ATOM     20  C   UNL     1      -4.470  -0.377   4.986  0.00  0.00    +0.280 C 
ATOM     21  O   UNL     1      -4.460  -0.590   3.549  0.00  0.00    -0.464 OA
ENDBRANCH  18  21
ENDBRANCH  12  18
ENDBRANCH   7  17
ENDBRANCH   1   8
BRANCH   1  22
ATOM     22  N   UNL     1       0.061   1.061  -0.802  0.00  0.00    -0.299 N 
ATOM     23  C   UNL     1       0.158   2.185  -1.540  0.00  0.00    +0.245 C 
ATOM     24  O   UNL     1       0.489   3.230  -1.015  0.00  0.00    -0.270 OA
ATOM     25  H   UNL     1      -0.162   0.100  -1.290  0.00  0.00    +0.150 HD
BRANCH  23  26
ATOM     26  C   UNL     1      -0.137   2.146  -2.988  0.00  0.00    +0.037 A 
ATOM     27  C   UNL     1      -0.400   0.928  -3.618  0.00  0.00    +0.013 A 
ATOM     28  C   UNL     1      -0.680   0.900  -4.968  0.00  0.00    +0.001 A 
ATOM     29  C   UNL     1      -0.690   2.074  -5.701  0.00  0.00    +0.000 A 
ATOM     30  C   UNL     1      -0.425   3.284  -5.084  0.00  0.00    +0.001 A 
ATOM     31  C   UNL     1      -0.149   3.327  -3.733  0.00  0.00    +0.013 A 
ENDBRANCH  23  26
ENDBRANCH   1  22
TORSDOF 6
