REMARK  Name = ZINC19959934
REMARK  6 active torsions:
REMARK  status: ('A' for Active; 'I' for Inactive)
REMARK    1  A    between atoms: C_1  and  C_2
REMARK    2  A    between atoms: C_7  and  C_23
REMARK    3  A    between atoms: C_13  and  C_18
REMARK    4  A    between atoms: C_26  and  N_29
REMARK    5  A    between atoms: N_29  and  C_30
REMARK    6  A    between atoms: N_29  and  C_31
REMARK                            x       y       z     vdW  Elec       q    Type
REMARK                         _______ _______ _______ _____ _____    ______ ____
ROOT
ATOM      1  C   UNL     1      -0.035   1.482  -0.045  0.00  0.00    +0.090 C 
ATOM      2  C   UNL     1      -0.008  -0.024  -0.036  0.00  0.00    +0.150 A 
ATOM      3  N   UNL     1       0.003  -0.805  -1.121  0.00  0.00    -0.198 NA
ATOM      4  C   UNL     1       0.029  -2.058  -0.757  0.00  0.00    +0.219 A 
ATOM      5  N   UNL     1       0.029  -2.100   0.598  0.00  0.00    -0.221 N 
ATOM      6  N   UNL     1       0.013  -0.777   1.036  0.00  0.00    -0.153 NA
ATOM      7  C   UNL     1       0.045  -3.342   1.361  0.00  0.00    +0.175 C 
ATOM      8  C   UNL     1       0.402  -4.501   0.457  0.00  0.00    +0.041 C 
ATOM      9  C   UNL     1       0.383  -4.393  -0.889  0.00  0.00    +0.020 C 
ATOM     10  N   UNL     1       0.055  -3.216  -1.517  0.00  0.00    -0.287 N 
ATOM     11  C   UNL     1       0.720  -5.575  -1.766  0.00  0.00    +0.063 C 
ATOM     12  C   UNL     1       1.746  -6.463  -1.060  0.00  0.00    +0.068 C 
ATOM     13  C   UNL     1       1.150  -6.920   0.276  0.00  0.00    +0.091 C 
ATOM     14  C   UNL     1       0.762  -5.710   1.078  0.00  0.00    +0.164 C 
ATOM     15  O   UNL     1       0.760  -5.778   2.292  0.00  0.00    -0.292 OA
ATOM     16  H   UNL     1      -0.153  -3.196  -2.465  0.00  0.00    +0.155 HD
ENDROOT
BRANCH   7  17
ATOM     17  C   UNL     1      -1.318  -3.578   1.960  0.00  0.00    -0.018 A 
ATOM     18  C   UNL     1      -2.420  -3.710   1.135  0.00  0.00    +0.008 A 
ATOM     19  C   UNL     1      -3.670  -3.927   1.680  0.00  0.00    +0.023 A 
ATOM     20  C   UNL     1      -3.820  -4.013   3.058  0.00  0.00    +0.029 A 
ATOM     21  C   UNL     1      -2.711  -3.880   3.884  0.00  0.00    +0.023 A 
ATOM     22  C   UNL     1      -1.462  -3.669   3.332  0.00  0.00    +0.008 A 
BRANCH  20  23
ATOM     23  N   UNL     1      -5.083  -4.232   3.613  0.00  0.00    -0.336 N 
ATOM     24  C   UNL     1      -6.268  -4.246   2.752  0.00  0.00    +0.129 C 
ATOM     25  C   UNL     1      -5.222  -4.447   5.055  0.00  0.00    +0.129 C 
ENDBRANCH  20  23
ENDBRANCH   7  17
BRANCH  12  26
ATOM     26  C   UNL     1       2.055  -7.664  -1.917  0.00  0.00    +0.109 A 
ATOM     27  C   UNL     1       3.266  -7.997  -2.398  0.00  0.00    +0.045 A 
ATOM     28  C   UNL     1       3.098  -9.186  -3.144  0.00  0.00    +0.041 A 
ATOM     29  C   UNL     1       1.794  -9.509  -3.074  0.00  0.00    +0.195 A 
ATOM     30  O   UNL     1       1.168  -8.586  -2.324  0.00  0.00    -0.468 OA
ENDBRANCH  12  26
TORSDOF 3
