REMARK  Name = ZINC40476082
REMARK  5 active torsions:
REMARK  status: ('A' for Active; 'I' for Inactive)
REMARK    1  A    between atoms: C_4  and  C_7
REMARK    2  A    between atoms: C_7  and  C_8
REMARK    3  A    between atoms: N_14  and  N_15
REMARK    4  A    between atoms: C_16  and  C_17
REMARK    5  A    between atoms: C_26  and  C_27
REMARK                            x       y       z     vdW  Elec       q    Type
REMARK                         _______ _______ _______ _____ _____    ______ ____
ROOT
ATOM      1  N   UNL     1       8.628   0.382   3.223  0.00  0.00    -0.155 NA
ATOM      2  C   UNL     1       9.557   1.102   3.795  0.00  0.00    +0.145 C 
ENDROOT
BRANCH   2   3
ATOM      3  C   UNL     1      10.914   0.568   3.939  0.00  0.00    +0.028 A 
ATOM      4  C   UNL     1      11.396  -0.750   3.491  0.00  0.00    +0.009 A 
ATOM      5  C   UNL     1      10.789  -1.827   2.844  0.00  0.00    +0.010 A 
ATOM      6  C   UNL     1      11.527  -2.952   2.553  0.00  0.00    +0.001 A 
ATOM      7  C   UNL     1      12.869  -3.018   2.901  0.00  0.00    +0.002 A 
ATOM      8  C   UNL     1      13.482  -1.962   3.539  0.00  0.00    +0.026 A 
ATOM      9  C   UNL     1      12.754  -0.815   3.842  0.00  0.00    +0.048 A 
ATOM     10  N   UNL     1      13.091   0.371   4.461  0.00  0.00    -0.354 N 
ATOM     11  H   UNL     1      13.972   0.587   4.804  0.00  0.00    +0.166 HD
ATOM     12  C   UNL     1      12.001   1.204   4.518  0.00  0.00    +0.056 A 
BRANCH  12  13
ATOM     13  C   UNL     1      11.988   2.557   5.104  0.00  0.00    -0.001 A 
ATOM     14  C   UNL     1      11.359   3.608   4.431  0.00  0.00    +0.010 A 
ATOM     15  C   UNL     1      11.351   4.871   4.986  0.00  0.00    +0.001 A 
ATOM     16  C   UNL     1      11.963   5.098   6.206  0.00  0.00    +0.000 A 
ATOM     17  C   UNL     1      12.587   4.063   6.878  0.00  0.00    +0.001 A 
ATOM     18  C   UNL     1      12.599   2.793   6.339  0.00  0.00    +0.010 A 
ENDBRANCH  12  13
ENDBRANCH   2   3
BRANCH   1  24
ATOM     19  C   UNL     1       4.171  -0.963   1.399  0.00  0.00    +0.144 C 
ATOM     20  C   UNL     1       5.483  -1.731   1.429  0.00  0.00    +0.232 C 
ATOM     21  O   UNL     1       5.587  -2.848   0.969  0.00  0.00    -0.274 OA
ATOM     22  N   UNL     1       6.505  -1.103   1.986  0.00  0.00    -0.263 N 
ATOM     23  C   UNL     1       6.396   0.169   2.510  0.00  0.00    +0.183 C 
ATOM     24  N   UNL     1       7.330   0.893   3.086  0.00  0.00    -0.127 NA
ATOM     25  S   UNL     1       4.684   0.600   2.224  0.00  0.00    -0.075 S 
ATOM     26  H   UNL     1       7.363  -1.554   2.027  0.00  0.00    +0.157 HD
BRANCH  19  27
ATOM     27  C   UNL     1       3.711  -0.707  -0.038  0.00  0.00    +0.059 C 
BRANCH  27  31
ATOM     28  C   UNL     1      -0.017   1.378   0.010  0.00  0.00    +0.000 A 
ATOM     29  C   UNL     1       1.171   2.086   0.002  0.00  0.00    +0.000 A 
ATOM     30  C   UNL     1       2.377   1.411  -0.013  0.00  0.00    +0.004 A 
ATOM     31  C   UNL     1       2.396   0.029  -0.020  0.00  0.00    -0.046 A 
ATOM     32  C   UNL     1       1.208  -0.679  -0.012  0.00  0.00    +0.004 A 
ATOM     33  C   UNL     1       0.002  -0.004   0.002  0.00  0.00    +0.000 A 
ENDBRANCH  27  31
ENDBRANCH  19  27
ENDBRANCH   1  24
TORSDOF 5
