REMARK  Name = ZINC37205884
REMARK  2 active torsions:
REMARK  status: ('A' for Active; 'I' for Inactive)
REMARK    1  A    between atoms: C_3  and  N_18
REMARK    2  A    between atoms: C_4  and  C_8
REMARK                            x       y       z     vdW  Elec       q    Type
REMARK                         _______ _______ _______ _____ _____    ______ ____
ROOT
ATOM      1  C   UNL     1      -0.017   1.382   0.010  0.00  0.00    +0.040 A 
ATOM      2  C   UNL     1       1.166   2.096   0.002  0.00  0.00    +0.026 A 
ATOM      3  C   UNL     1       2.382   1.429  -0.013  0.00  0.00    +0.035 A 
ATOM      4  C   UNL     1       2.405   0.027  -0.021  0.00  0.00    +0.030 A 
ATOM      5  C   UNL     1       1.204  -0.684  -0.013  0.00  0.00    +0.050 A 
ATOM      6  C   UNL     1       0.002  -0.004   0.002  0.00  0.00    +0.124 A 
ATOM      7  F   UNL     1      -1.160  -0.693   0.009  0.00  0.00    -0.205 F 
ENDROOT
BRANCH   4   8
ATOM      8  C   UNL     1       3.694  -0.694  -0.037  0.00  0.00    +0.111 A 
ATOM      9  N   UNL     1       4.915  -0.203  -0.041  0.00  0.00    -0.239 NA
ATOM     10  C   UNL     1       6.011  -0.987  -0.057  0.00  0.00    +0.080 A 
ATOM     11  C   UNL     1       7.369  -0.589  -0.063  0.00  0.00    +0.044 A 
ATOM     12  C   UNL     1       8.372  -1.523  -0.081  0.00  0.00    +0.020 A 
ATOM     13  C   UNL     1       8.096  -2.884  -0.093  0.00  0.00    +0.016 A 
ATOM     14  C   UNL     1       6.780  -3.308  -0.087  0.00  0.00    +0.018 A 
ATOM     15  C   UNL     1       5.768  -2.380  -0.070  0.00  0.00    +0.040 A 
ATOM     16  S   UNL     1       3.993  -2.456  -0.050  0.00  0.00    -0.067 S 
ATOM     17 BR   UNL     1      10.172  -0.945  -0.089  0.00  0.00    -0.050 Br
ENDBRANCH   4   8
BRANCH   3  18
ATOM     18  N   UNL     1       3.575   2.148  -0.021  0.00  0.00    -0.357 N 
ATOM     19  H   UNL     1       3.557   3.118  -0.016  0.00  0.00    +0.142 HD
ATOM     20  H   UNL     1       4.424   1.680  -0.032  0.00  0.00    +0.142 HD
ENDBRANCH   3  18
TORSDOF 2
