REMARK  Name = ZINC67458868
REMARK  7 active torsions:
REMARK  status: ('A' for Active; 'I' for Inactive)
REMARK    1  A    between atoms: C_9  and  C_12
REMARK    2  A    between atoms: C_12  and  N_13
REMARK    3  A    between atoms: N_13  and  C_14
REMARK    4  A    between atoms: C_14  and  C_15
REMARK    5  A    between atoms: C_15  and  O_29
REMARK    6  A    between atoms: N_19  and  C_22
REMARK    7  A    between atoms: C_22  and  C_23
REMARK                            x       y       z     vdW  Elec       q    Type
REMARK                         _______ _______ _______ _____ _____    ______ ____
ROOT
ATOM      1  C   UNL     1       7.972   1.081  -1.446  0.00  0.00    -0.037 C 
ENDROOT
BRANCH   1   2
ATOM      2  C   UNL     1       8.554   1.313  -2.842  0.00  0.00    +0.127 C 
ATOM      3  C   UNL     1      10.082   1.306  -2.764  0.00  0.00    +0.044 C 
ATOM      4  C   UNL     1      10.639   1.809  -4.101  0.00  0.00    +0.022 C 
ATOM      5  C   UNL     1      10.281   3.288  -4.255  0.00  0.00    +0.108 C 
ATOM      6  N   UNL     1       8.859   3.497  -4.017  0.00  0.00    -0.299 N 
ATOM      7  C   UNL     1       8.075   2.635  -3.369  0.00  0.00    +0.245 C 
ATOM      8  O   UNL     1       6.912   2.935  -3.195  0.00  0.00    -0.273 OA
BRANCH   2   9
ATOM      9  O   UNL     1       8.121   0.268  -3.716  0.00  0.00    -0.381 OA
ATOM     10  H   UNL     1       7.160   0.209  -3.813  0.00  0.00    +0.211 HD
ENDBRANCH   2   9
BRANCH   6  11
ATOM     11  C   UNL     1       8.252   4.731  -4.522  0.00  0.00    +0.111 C 
BRANCH  11  12
ATOM     12  C   UNL     1       7.736   4.502  -5.943  0.00  0.00    +0.006 C 
ATOM     13  C   UNL     1       8.916   4.221  -6.875  0.00  0.00    +0.005 C 
ATOM     14  C   UNL     1       8.400   3.991  -8.297  0.00  0.00    +0.000 C 
ATOM     15  C   UNL     1       7.657   5.239  -8.778  0.00  0.00    +0.000 C 
ATOM     16  C   UNL     1       6.476   5.521  -7.846  0.00  0.00    +0.000 C 
ATOM     17  C   UNL     1       6.993   5.750  -6.424  0.00  0.00    +0.005 C 
ENDBRANCH  11  12
ENDBRANCH   6  11
ENDBRANCH   1   2
BRANCH   1  18
ATOM     18  N   UNL     1       8.444  -0.211  -0.928  0.00  0.00    +0.385 N 
ATOM     19  H   UNL     1       9.444  -0.176  -0.797  0.00  0.00    -0.085 HD
ATOM     20  H   UNL     1       8.216  -0.941  -1.586  0.00  0.00    -0.085 HD
BRANCH  18  21
ATOM     21  C   UNL     1       7.791  -0.490   0.358  0.00  0.00    -0.028 C 
BRANCH  21  30
ATOM     22  C   UNL     1       9.150  -6.168   2.033  0.00  0.00    +0.040 A 
ATOM     23  C   UNL     1       8.307  -5.417   1.245  0.00  0.00    +0.029 A 
ATOM     24  C   UNL     1       8.428  -4.032   1.222  0.00  0.00    +0.047 A 
ATOM     25  C   UNL     1       9.415  -3.411   2.008  0.00  0.00    +0.003 A 
ATOM     26  C   UNL     1      10.264  -4.185   2.801  0.00  0.00    +0.048 A 
ATOM     27  C   UNL     1      10.127  -5.556   2.810  0.00  0.00    +0.124 A 
ATOM     28  F   UNL     1      10.945  -6.309   3.577  0.00  0.00    -0.205 F 
ATOM     29  C   UNL     1       9.282  -1.972   1.763  0.00  0.00    +0.029 A 
ATOM     30  C   UNL     1       8.275  -1.814   0.890  0.00  0.00    -0.000 A 
ATOM     31  N   UNL     1       7.752  -3.033   0.555  0.00  0.00    -0.360 N 
ATOM     32  H   UNL     1       7.016  -3.174  -0.061  0.00  0.00    +0.166 HD
ENDBRANCH  21  30
ENDBRANCH  18  21
ENDBRANCH   1  18
TORSDOF 7
