REMARK  Name = ZINC26920296
REMARK  5 active torsions:
REMARK  status: ('A' for Active; 'I' for Inactive)
REMARK    1  A    between atoms: C_4  and  O_25
REMARK    2  A    between atoms: C_5  and  C_7
REMARK    3  A    between atoms: N_11  and  C_15
REMARK    4  A    between atoms: C_15  and  C_16
REMARK    5  A    between atoms: C_19  and  C_22
REMARK                            x       y       z     vdW  Elec       q    Type
REMARK                         _______ _______ _______ _____ _____    ______ ____
ROOT
ATOM      1  C   UNL     1       1.581   3.325   0.004  0.00  0.00    +0.032 C 
ATOM      2  C   UNL     1       1.282   2.008   0.139  0.00  0.00    +0.080 C 
ATOM      3  C   UNL     1      -0.035   1.346   0.223  0.00  0.00    +0.261 C 
ATOM      4  O   UNL     1      -1.073   1.979   0.171  0.00  0.00    -0.269 OA
ATOM      5  N   UNL     1      -0.031   0.030   0.353  0.00  0.00    -0.224 N 
ATOM      6  C   UNL     1       1.122  -0.668   0.405  0.00  0.00    +0.286 C 
ATOM      7  O   UNL     1       1.272  -1.870   0.521  0.00  0.00    -0.262 OA
ATOM      8  S   UNL     1       2.373   0.597   0.262  0.00  0.00    -0.026 S 
ENDROOT
BRANCH   1  13
ATOM      9  C   UNL     1       5.245   3.382   0.792  0.00  0.00    +0.001 A 
ATOM     10  C   UNL     1       5.610   4.622   0.294  0.00  0.00    +0.004 A 
ATOM     11  C   UNL     1       4.670   5.443  -0.299  0.00  0.00    +0.046 A 
ATOM     12  C   UNL     1       3.352   5.028  -0.404  0.00  0.00    +0.124 A 
ATOM     13  C   UNL     1       2.975   3.774   0.104  0.00  0.00    +0.018 A 
ATOM     14  C   UNL     1       3.939   2.953   0.702  0.00  0.00    +0.011 A 
BRANCH  12  15
ATOM     15  O   UNL     1       2.428   5.832  -0.990  0.00  0.00    -0.506 OA
ATOM     16  H   UNL     1       1.383   5.500  -1.072  0.00  0.00    +0.292 HD
ENDBRANCH  12  15
ENDBRANCH   1  13
BRANCH   5  17
ATOM     17  C   UNL     1      -1.306  -0.685   0.441  0.00  0.00    +0.152 C 
BRANCH  17  18
ATOM     18  C   UNL     1      -1.763  -1.070  -0.943  0.00  0.00    -0.030 A 
ATOM     19  C   UNL     1      -2.567  -0.208  -1.667  0.00  0.00    +0.006 A 
ATOM     20  C   UNL     1      -2.984  -0.551  -2.936  0.00  0.00    +0.015 A 
ATOM     21  C   UNL     1      -2.603  -1.777  -3.485  0.00  0.00    +0.063 A 
ATOM     22  C   UNL     1      -1.797  -2.645  -2.746  0.00  0.00    +0.015 A 
ATOM     23  C   UNL     1      -1.382  -2.287  -1.480  0.00  0.00    +0.006 A 
BRANCH  21  24
ATOM     24  C   UNL     1      -3.052  -2.155  -4.841  0.00  0.00    +0.387 C 
ATOM     25  O   UNL     1      -2.719  -3.222  -5.315  0.00  0.00    -0.241 OA
ATOM     26  O   UNL     1      -3.830  -1.315  -5.551  0.00  0.00    -0.241 OA
ENDBRANCH  21  24
ENDBRANCH  17  18
ENDBRANCH   5  17
TORSDOF 5
