REMARK  Name = ZINC06542219
REMARK  7 active torsions:
REMARK  status: ('A' for Active; 'I' for Inactive)
REMARK    1  A    between atoms: C_1  and  C_2
REMARK    2  A    between atoms: C_2  and  C_3
REMARK    3  A    between atoms: C_3  and  C_23
REMARK    4  A    between atoms: N_6  and  N_10
REMARK    5  A    between atoms: C_11  and  C_12
REMARK    6  A    between atoms: C_13  and  C_14
REMARK    7  A    between atoms: C_19  and  N_20
REMARK                            x       y       z     vdW  Elec       q    Type
REMARK                         _______ _______ _______ _____ _____    ______ ____
ROOT
ATOM      1  N   UNL     1      -0.195  -3.477  -3.254  0.00  0.00    -0.177 NA
ATOM      2  C   UNL     1      -0.958  -3.541  -4.307  0.00  0.00    +0.131 C 
ENDROOT
BRANCH   1   6
ATOM      3  C   UNL     1       0.583   0.006  -2.482  0.00  0.00    +0.111 C 
ATOM      4  C   UNL     1      -0.043  -1.056  -3.365  0.00  0.00    +0.266 C 
ATOM      5  O   UNL     1      -0.648  -0.882  -4.402  0.00  0.00    -0.271 OA
ATOM      6  N   UNL     1       0.215  -2.232  -2.760  0.00  0.00    -0.109 N 
ATOM      7  C   UNL     1       0.909  -2.063  -1.629  0.00  0.00    +0.330 C 
ATOM      8  O   UNL     1       1.258  -2.977  -0.908  0.00  0.00    -0.250 OA
ATOM      9  N   UNL     1       1.175  -0.768  -1.378  0.00  0.00    -0.284 N 
ATOM     10  C   UNL     1      -0.483   0.968  -1.954  0.00  0.00    +0.041 C 
ATOM     11  H   UNL     1       1.663  -0.414  -0.618  0.00  0.00    +0.151 HD
BRANCH   3  13
ATOM     12  C   UNL     1       2.436   1.668  -2.274  0.00  0.00    +0.006 C 
ATOM     13  C   UNL     1       1.666   0.771  -3.245  0.00  0.00    +0.032 C 
ENDBRANCH   3  13
ENDBRANCH   1   6
BRANCH   2  14
ATOM     14  C   UNL     1      -1.460  -4.794  -4.743  0.00  0.00    +0.022 C 
ATOM     15  C   UNL     1      -2.251  -4.860  -5.834  0.00  0.00    +0.012 C 
BRANCH  15  16
ATOM     16  C   UNL     1      -2.772  -6.160  -6.287  0.00  0.00    +0.005 A 
ATOM     17  C   UNL     1      -2.539  -7.313  -5.530  0.00  0.00    +0.010 A 
ATOM     18  C   UNL     1      -3.031  -8.527  -5.961  0.00  0.00    +0.001 A 
ATOM     19  C   UNL     1      -3.754  -8.606  -7.139  0.00  0.00    +0.002 A 
ATOM     20  C   UNL     1      -3.988  -7.470  -7.893  0.00  0.00    +0.033 A 
ATOM     21  C   UNL     1      -3.509  -6.247  -7.472  0.00  0.00    +0.133 A 
BRANCH  21  22
ATOM     22  N   UNL     1      -3.767  -5.032  -8.277  0.00  0.00    +0.057 N 
ATOM     23  O   UNL     1      -4.003  -3.981  -7.726  0.00  0.00    -0.126 OA
ATOM     24  O   UNL     1      -3.741  -5.089  -9.484  0.00  0.00    -0.126 OA
ENDBRANCH  21  22
ENDBRANCH  15  16
ENDBRANCH   2  14
TORSDOF 5
