REMARK  Name = ZINC04716052
REMARK  4 active torsions:
REMARK  status: ('A' for Active; 'I' for Inactive)
REMARK    1  A    between atoms: C_1  and  O_2
REMARK    2  A    between atoms: O_2  and  C_3
REMARK    3  A    between atoms: C_6  and  C_9
REMARK    4  A    between atoms: C_12  and  C_19
REMARK                            x       y       z     vdW  Elec       q    Type
REMARK                         _______ _______ _______ _____ _____    ______ ____
ROOT
ATOM      1  C   UNL     1      -4.981  -2.629   0.035  0.00  0.00    +0.158 C 
ATOM      2  C   UNL     1      -5.330  -2.995  -1.396  0.00  0.00    +0.030 C 
ATOM      3  C   UNL     1      -5.540  -4.296  -1.671  0.00  0.00    +0.073 C 
ATOM      4  N   UNL     1      -5.444  -5.250  -0.711  0.00  0.00    -0.216 NA
ATOM      5  C   UNL     1      -5.147  -5.008   0.544  0.00  0.00    +0.227 C 
ATOM      6  N   UNL     1      -4.904  -3.741   0.992  0.00  0.00    -0.162 N 
ATOM      7  N   UNL     1      -4.621  -3.819   2.355  0.00  0.00    -0.055 NA
ATOM      8  N   UNL     1      -4.678  -4.998   2.723  0.00  0.00    -0.058 NA
ATOM      9  N   UNL     1      -5.005  -5.818   1.638  0.00  0.00    -0.187 N 
ATOM     10  H   UNL     1      -5.113  -6.782   1.657  0.00  0.00    +0.179 HD
ENDROOT
BRANCH   3  11
ATOM     11  C   UNL     1      -5.884  -4.697  -3.058  0.00  0.00    +0.000 A 
ATOM     12  C   UNL     1      -5.982  -3.733  -4.060  0.00  0.00    +0.011 A 
ATOM     13  C   UNL     1      -6.302  -4.111  -5.348  0.00  0.00    +0.016 A 
ATOM     14  C   UNL     1      -6.526  -5.444  -5.646  0.00  0.00    +0.018 A 
ATOM     15  C   UNL     1      -6.430  -6.405  -4.654  0.00  0.00    +0.016 A 
ATOM     16  C   UNL     1      -6.104  -6.038  -3.364  0.00  0.00    +0.011 A 
ATOM     17 BR   UNL     1      -6.965  -5.954  -7.412  0.00  0.00    -0.050 Br
ENDBRANCH   3  11
BRANCH   1  21
ATOM     18  C   UNL     1      -1.200  -0.637   0.010  0.00  0.00    +0.120 A 
ATOM     19  C   UNL     1      -2.375   0.101   0.019  0.00  0.00    +0.046 A 
ATOM     20  C   UNL     1      -3.596  -0.545   0.027  0.00  0.00    +0.009 A 
ATOM     21  C   UNL     1      -3.648  -1.927   0.026  0.00  0.00    -0.021 A 
ATOM     22  C   UNL     1      -2.479  -2.665   0.017  0.00  0.00    +0.009 A 
ATOM     23  C   UNL     1      -1.255  -2.024   0.003  0.00  0.00    +0.046 A 
BRANCH  18  25
ATOM     24  C   UNL     1      -0.017   1.425   0.010  0.00  0.00    +0.277 C 
ATOM     25  O   UNL     1       0.002  -0.004   0.002  0.00  0.00    -0.495 OA
ENDBRANCH  18  25
ENDBRANCH   1  21
TORSDOF 3
