REMARK  Name = ZINC66318050
REMARK  5 active torsions:
REMARK  status: ('A' for Active; 'I' for Inactive)
REMARK    1  A    between atoms: N_4  and  C_21
REMARK    2  A    between atoms: C_5  and  N_6
REMARK    3  A    between atoms: C_7  and  C_9
REMARK    4  A    between atoms: C_9  and  S_10
REMARK    5  A    between atoms: S_10  and  C_11
REMARK                            x       y       z     vdW  Elec       q    Type
REMARK                         _______ _______ _______ _____ _____    ______ ____
ROOT
ATOM      1  N   UNL     1      -1.112  -0.843   0.009  0.00  0.00    -0.270 N 
ATOM      2  C   UNL     1      -2.352  -0.317   0.023  0.00  0.00    +0.229 C 
ATOM      3  O   UNL     1      -2.500   0.887   0.031  0.00  0.00    -0.275 OA
ATOM      4  H   UNL     1      -0.994  -1.806   0.003  0.00  0.00    +0.156 HD
ENDROOT
BRANCH   1   9
ATOM      5  C   UNL     1      -0.016   1.357   0.009  0.00  0.00    +0.065 A 
ATOM      6  C   UNL     1       1.308   1.803  -0.001  0.00  0.00    +0.136 A 
ATOM      7  N   UNL     1       2.094   0.757  -0.014  0.00  0.00    -0.178 NA
ATOM      8  N   UNL     1       1.297  -0.395  -0.012  0.00  0.00    -0.247 N 
ATOM      9  C   UNL     1       0.002  -0.004   0.002  0.00  0.00    +0.123 A 
BRANCH   8  10
ATOM     10  C   UNL     1       1.780  -1.778  -0.025  0.00  0.00    +0.109 C 
ATOM     11  C   UNL     1       2.707  -2.024   1.184  0.00  0.00    +0.027 C 
ATOM     12  C   UNL     1       3.808  -2.965   0.632  0.00  0.00    +0.002 C 
ATOM     13  C   UNL     1       4.036  -2.421  -0.800  0.00  0.00    +0.002 C 
ATOM     14  C   UNL     1       2.625  -2.030  -1.286  0.00  0.00    +0.027 C 
ENDBRANCH   8  10
ENDBRANCH   1   9
BRANCH   2  15
ATOM     15  C   UNL     1      -3.556  -1.224   0.030  0.00  0.00    +0.173 C 
BRANCH  15  16
ATOM     16  S   UNL     1      -5.068  -0.222   0.050  0.00  0.00    -0.077 S 
BRANCH  16  17
ATOM     17  C   UNL     1      -6.368  -1.411   0.056  0.00  0.00    +0.191 A 
ATOM     18  N   UNL     1      -6.199  -2.712   0.049  0.00  0.00    -0.201 NA
ATOM     19  C   UNL     1      -7.406  -3.331   0.057  0.00  0.00    +0.181 A 
ATOM     20  C   UNL     1      -8.385  -2.321   0.071  0.00  0.00    +0.112 A 
ATOM     21  N   UNL     1      -7.701  -1.117   0.076  0.00  0.00    -0.219 NA
ATOM     22  C   UNL     1      -9.726  -2.670   0.082  0.00  0.00    +0.053 A 
ATOM     23  C   UNL     1     -10.053  -4.019   0.079  0.00  0.00    +0.061 A 
ATOM     24  C   UNL     1      -9.041  -4.964   0.065  0.00  0.00    +0.133 A 
ATOM     25  N   UNL     1      -7.772  -4.611   0.055  0.00  0.00    -0.233 NA
ATOM     26 CL   UNL     1     -11.716  -4.516   0.092  0.00  0.00    -0.082 Cl
ENDBRANCH  16  17
ENDBRANCH  15  16
ENDBRANCH   2  15
TORSDOF 5
