REMARK  Name = ZINC13090257
REMARK  6 active torsions:
REMARK  status: ('A' for Active; 'I' for Inactive)
REMARK    1  A    between atoms: C_3  and  S_12
REMARK    2  A    between atoms: C_6  and  O_7
REMARK    3  A    between atoms: O_7  and  C_8
REMARK    4  A    between atoms: S_12  and  N_15
REMARK    5  A    between atoms: N_15  and  C_16
REMARK    6  A    between atoms: C_21  and  C_22
REMARK                            x       y       z     vdW  Elec       q    Type
REMARK                         _______ _______ _______ _____ _____    ______ ____
ROOT
ATOM      1  N   UNL     1       0.919  -1.159   6.799  0.00  0.00    -0.215 N 
ATOM      2  H   UNL     1       0.365  -1.205   7.594  0.00  0.00    +0.174 HD
ENDROOT
BRANCH   1   3
ATOM      3  C   UNL     1       1.053  -2.274   5.979  0.00  0.00    +0.066 A 
ATOM      4  C   UNL     1       2.261  -2.536   5.353  0.00  0.00    +0.074 A 
ATOM      5  C   UNL     1       2.399  -3.651   4.540  0.00  0.00    +0.164 A 
ATOM      6  C   UNL     1       1.319  -4.511   4.340  0.00  0.00    +0.163 A 
ATOM      7  C   UNL     1       0.109  -4.258   4.953  0.00  0.00    +0.066 A 
ATOM      8  C   UNL     1      -0.037  -3.137   5.778  0.00  0.00    +0.089 A 
ATOM      9  O   UNL     1       1.443  -5.610   3.543  0.00  0.00    -0.485 OA
ATOM     10  C   UNL     1       2.560  -5.633   2.648  0.00  0.00    +0.270 C 
ATOM     11  C   UNL     1       3.811  -5.209   3.430  0.00  0.00    +0.270 C 
ATOM     12  O   UNL     1       3.595  -3.888   3.937  0.00  0.00    -0.485 OA
BRANCH   8  13
ATOM     13  C   UNL     1      -1.326  -2.863   6.432  0.00  0.00    +0.388 C 
ATOM     14  O   UNL     1      -1.450  -1.889   7.147  0.00  0.00    -0.241 OA
ATOM     15  O   UNL     1      -2.370  -3.694   6.237  0.00  0.00    -0.241 OA
ENDBRANCH   8  13
ENDBRANCH   1   3
BRANCH   1  16
ATOM     16  S   UNL     1       1.704   0.248   6.417  0.00  0.00    +0.072 S 
ATOM     17  O   UNL     1       3.075  -0.085   6.247  0.00  0.00    -0.150 OA
ATOM     18  O   UNL     1       1.268   1.224   7.354  0.00  0.00    -0.150 OA
BRANCH  16  21
ATOM     19  C   UNL     1       1.283   0.735   2.452  0.00  0.00    +0.048 A 
ATOM     20  C   UNL     1       1.750   0.337   3.690  0.00  0.00    +0.032 A 
ATOM     21  C   UNL     1       1.112   0.764   4.840  0.00  0.00    +0.109 A 
ATOM     22  C   UNL     1       0.011   1.596   4.754  0.00  0.00    +0.032 A 
ATOM     23  C   UNL     1      -0.456   2.002   3.519  0.00  0.00    +0.048 A 
ATOM     24  C   UNL     1       0.182   1.574   2.363  0.00  0.00    +0.130 A 
BRANCH  24  25
ATOM     25  O   UNL     1      -0.275   1.972   1.147  0.00  0.00    -0.406 OA
BRANCH  25  26
ATOM     26  C   UNL     1       0.431   1.493   0.001  0.00  0.00    +0.575 C 
ATOM     27  F   UNL     1       0.390   0.095  -0.022  0.00  0.00    -0.133 F 
ATOM     28  F   UNL     1       1.762   1.920   0.060  0.00  0.00    -0.133 F 
ATOM     29  F   UNL     1      -0.168   1.996  -1.160  0.00  0.00    -0.133 F 
ENDBRANCH  25  26
ENDBRANCH  24  25
ENDBRANCH  16  21
ENDBRANCH   1  16
TORSDOF 6
