REMARK  Name = ZINC06690869
REMARK  9 active torsions:
REMARK  status: ('A' for Active; 'I' for Inactive)
REMARK    1  A    between atoms: C_1  and  C_2
REMARK    2  A    between atoms: C_5  and  O_11
REMARK    3  A    between atoms: C_6  and  N_8
REMARK    4  A    between atoms: O_11  and  C_12
REMARK    5  A    between atoms: C_12  and  C_13
REMARK    6  A    between atoms: N_15  and  C_16
REMARK    7  A    between atoms: C_17  and  C_24
REMARK    8  A    between atoms: C_24  and  O_26
REMARK    9  A    between atoms: O_26  and  C_27
REMARK                            x       y       z     vdW  Elec       q    Type
REMARK                         _______ _______ _______ _____ _____    ______ ____
ROOT
ATOM      1  C   UNL     1       3.714  -0.858  -0.040  0.00  0.00    +0.255 C 
ATOM      2  O   UNL     1       4.664  -0.105  -0.044  0.00  0.00    -0.272 OA
ATOM      3  N   UNL     1       3.910  -2.192  -0.049  0.00  0.00    -0.277 N 
ATOM      4  H   UNL     1       3.150  -2.794  -0.045  0.00  0.00    +0.155 HD
ENDROOT
BRANCH   3   5
ATOM      5  C   UNL     1       5.199  -2.702  -0.065  0.00  0.00    +0.086 A 
ATOM      6  C   UNL     1       5.600  -4.028  -0.070  0.00  0.00    +0.091 A 
ATOM      7  C   UNL     1       7.037  -4.300  -0.091  0.00  0.00    -0.021 A 
ATOM      8  C   UNL     1       7.825  -3.210  -0.093  0.00  0.00    -0.004 A 
ATOM      9  S   UNL     1       6.698  -1.837  -0.074  0.00  0.00    -0.077 S 
ATOM     10  C   UNL     1       9.286  -3.570  -0.112  0.00  0.00    +0.043 C 
ATOM     11  C   UNL     1       9.316  -5.049  -0.559  0.00  0.00    +0.010 C 
ATOM     12  C   UNL     1       7.928  -5.543  -0.106  0.00  0.00    +0.037 C 
BRANCH   6  13
ATOM     13  C   UNL     1       4.621  -5.117  -0.060  0.00  0.00    +0.342 C 
ATOM     14  O   UNL     1       4.202  -5.569  -1.109  0.00  0.00    -0.245 OA
BRANCH  13  15
ATOM     15  O   UNL     1       4.183  -5.619   1.113  0.00  0.00    -0.464 OA
ATOM     16  C   UNL     1       3.213  -6.697   1.047  0.00  0.00    +0.280 C 
ENDBRANCH  13  15
ENDBRANCH   6  13
ENDBRANCH   3   5
BRANCH   1  17
ATOM     17  C   UNL     1       2.313  -0.303  -0.023  0.00  0.00    +0.325 C 
BRANCH  17  18
ATOM     18  O   UNL     1       2.366   1.125  -0.015  0.00  0.00    -0.480 OA
BRANCH  18  23
ATOM     19  C   UNL     1      -2.553   3.867   0.046  0.00  0.00    +0.044 C 
ATOM     20  C   UNL     1      -1.237   3.133   0.030  0.00  0.00    -0.048 A 
ATOM     21  C   UNL     1      -1.218   1.751   0.017  0.00  0.00    +0.007 A 
ATOM     22  C   UNL     1      -0.013   1.076   0.008  0.00  0.00    +0.048 A 
ATOM     23  C   UNL     1       1.179   1.786   0.000  0.00  0.00    +0.151 A 
ATOM     24  C   UNL     1       1.157   3.173   0.008  0.00  0.00    +0.168 A 
ATOM     25  C   UNL     1      -0.051   3.844   0.023  0.00  0.00    +0.039 A 
BRANCH  24  26
ATOM     26  N   UNL     1       2.426   3.934   0.001  0.00  0.00    +0.060 N 
ATOM     27  O   UNL     1       2.406   5.152   0.007  0.00  0.00    -0.126 OA
ATOM     28  O   UNL     1       3.491   3.343  -0.012  0.00  0.00    -0.126 OA
ENDBRANCH  24  26
ENDBRANCH  18  23
ENDBRANCH  17  18
ENDBRANCH   1  17
TORSDOF 7
