REMARK  Name = ZINC02376853
REMARK  5 active torsions:
REMARK  status: ('A' for Active; 'I' for Inactive)
REMARK    1  A    between atoms: C_8  and  N_27
REMARK    2  A    between atoms: C_9  and  C_12
REMARK    3  A    between atoms: N_16  and  C_20
REMARK    4  A    between atoms: C_20  and  C_21
REMARK    5  A    between atoms: C_30  and  C_33
REMARK                            x       y       z     vdW  Elec       q    Type
REMARK                         _______ _______ _______ _____ _____    ______ ____
ROOT
ATOM      1  C   UNL     1       2.528  -3.927  -0.469  0.00  0.00    +0.005 A 
ATOM      2  C   UNL     1       1.362  -4.687  -0.304  0.00  0.00    +0.018 A 
ATOM      3  C   UNL     1       0.176  -4.073  -0.093  0.00  0.00    +0.096 A 
ATOM      4  N   UNL     1       0.095  -2.713  -0.037  0.00  0.00    -0.268 N 
ATOM      5  C   UNL     1       1.214  -1.945  -0.195  0.00  0.00    +0.142 A 
ATOM      6  C   UNL     1       2.457  -2.567  -0.414  0.00  0.00    +0.047 A 
ATOM      7  N   UNL     1       1.154  -0.614  -0.149  0.00  0.00    -0.214 NA
ATOM      8  C   UNL     1       0.012   0.023   0.062  0.00  0.00    +0.136 A 
ATOM      9  C   UNL     1      -1.181  -0.720   0.232  0.00  0.00    +0.081 A 
ATOM     10  C   UNL     1      -1.105  -2.132   0.175  0.00  0.00    +0.267 A 
ATOM     11  O   UNL     1      -2.107  -2.812   0.317  0.00  0.00    -0.267 OA
ENDROOT
BRANCH   9  12
ATOM     12  C   UNL     1      -2.416  -0.068   0.453  0.00  0.00    +0.037 C 
ATOM     13  C   UNL     1      -2.870   0.855  -0.445  0.00  0.00    +0.077 C 
ATOM     14  C   UNL     1      -4.011   1.705  -0.371  0.00  0.00    +0.258 C 
ATOM     15  O   UNL     1      -4.752   1.677   0.596  0.00  0.00    -0.269 OA
ATOM     16  N   UNL     1      -4.243   2.525  -1.381  0.00  0.00    -0.253 N 
ATOM     17  C   UNL     1      -3.421   2.556  -2.454  0.00  0.00    +0.121 C 
ATOM     18  S   UNL     1      -3.527   3.527  -3.860  0.00  0.00    -0.027 S 
ATOM     19  S   UNL     1      -2.192   1.331  -2.028  0.00  0.00    -0.061 S 
BRANCH  16  20
ATOM     20  C   UNL     1      -5.407   3.413  -1.337  0.00  0.00    +0.146 C 
BRANCH  20  21
ATOM     21  C   UNL     1      -5.014   4.738  -0.681  0.00  0.00    +0.136 C 
ATOM     22  C   UNL     1      -6.247   5.658  -0.546  0.00  0.00    +0.035 C 
ATOM     23  C   UNL     1      -5.692   7.073  -0.822  0.00  0.00    +0.031 C 
ATOM     24  C   UNL     1      -4.188   6.841  -1.091  0.00  0.00    +0.160 C 
ATOM     25  O   UNL     1      -4.098   5.466  -1.528  0.00  0.00    -0.375 OA
ENDBRANCH  20  21
ENDBRANCH  16  20
ENDBRANCH   9  12
BRANCH   8  26
ATOM     26  N   UNL     1      -0.016   1.400   0.109  0.00  0.00    -0.314 N 
ATOM     27  C   UNL     1       0.219   1.884   1.476  0.00  0.00    +0.107 C 
ATOM     28  C   UNL     1       0.037   3.403   1.518  0.00  0.00    +0.031 C 
ATOM     29  C   UNL     1       1.024   4.058   0.547  0.00  0.00    +0.078 C 
ATOM     30  C   UNL     1       0.790   3.500  -0.859  0.00  0.00    +0.031 C 
ATOM     31  C   UNL     1       0.950   1.979  -0.833  0.00  0.00    +0.107 C 
BRANCH  29  32
ATOM     32  C   UNL     1       0.809   5.549   0.540  0.00  0.00    +0.214 C 
ATOM     33  O   UNL     1       0.499   6.112  -0.488  0.00  0.00    -0.276 OA
ATOM     34  N   UNL     1       0.962   6.258   1.677  0.00  0.00    -0.329 N 
ATOM     35  H   UNL     1       1.209   5.807   2.500  0.00  0.00    +0.145 HD
ATOM     36  H   UNL     1       0.823   7.218   1.673  0.00  0.00    +0.145 HD
ENDBRANCH  29  32
ENDBRANCH   8  26
TORSDOF 5
