REMARK  Name = ZINC33271379
REMARK  3 active torsions:
REMARK  status: ('A' for Active; 'I' for Inactive)
REMARK    1  A    between atoms: C_1  and  C_2
REMARK    2  A    between atoms: C_13  and  C_16
REMARK    3  A    between atoms: C_21  and  C_23
REMARK                            x       y       z     vdW  Elec       q    Type
REMARK                         _______ _______ _______ _____ _____    ______ ____
ROOT
ATOM      1  C   UNL     1      -1.432   3.047   2.964  0.00  0.00    +0.068 C 
ATOM      2  C   UNL     1      -2.876   3.136   2.541  0.00  0.00    +0.066 A 
ATOM      3  C   UNL     1      -3.333   3.489   1.279  0.00  0.00    +0.023 A 
ATOM      4  C   UNL     1      -4.701   3.446   1.298  0.00  0.00    +0.134 A 
ATOM      5  N   UNL     1      -5.081   3.088   2.543  0.00  0.00    -0.198 N 
ATOM      6  N   UNL     1      -3.916   2.895   3.304  0.00  0.00    -0.168 NA
ATOM      7  C   UNL     1      -6.396   2.935   2.993  0.00  0.00    +0.176 A 
ATOM      8  C   UNL     1      -6.664   2.080   4.078  0.00  0.00    +0.054 A 
ATOM      9  C   UNL     1      -7.938   1.928   4.529  0.00  0.00    +0.054 A 
ATOM     10  C   UNL     1      -8.979   2.626   3.888  0.00  0.00    +0.178 A 
ATOM     11  N   UNL     1     -10.288   2.690   4.071  0.00  0.00    -0.128 NA
ATOM     12  N   UNL     1     -10.800   3.489   3.201  0.00  0.00    -0.132 NA
ATOM     13  C   UNL     1      -9.862   3.973   2.425  0.00  0.00    +0.152 A 
ATOM     14  N   UNL     1      -8.685   3.449   2.828  0.00  0.00    -0.195 N 
ATOM     15  N   UNL     1      -7.364   3.587   2.394  0.00  0.00    -0.144 NA
ATOM     16  C   UNL     1     -10.061   4.941   1.287  0.00  0.00    +0.090 C 
ATOM     17  N   UNL     1      -5.463   3.730   0.166  0.00  0.00    -0.270 N 
ATOM     18  C   UNL     1      -4.823   3.853  -1.016  0.00  0.00    +0.219 C 
ATOM     19  O   UNL     1      -5.433   4.283  -1.973  0.00  0.00    -0.275 OA
ATOM     20  C   UNL     1      -3.379   3.474  -1.185  0.00  0.00    +0.109 C 
ATOM     21  C   UNL     1      -2.554   3.867   0.045  0.00  0.00    +0.063 C 
ATOM     22  H   UNL     1      -6.553   3.848   0.252  0.00  0.00    +0.156 HD
ENDROOT
BRANCH  21  23
ATOM     23  C   UNL     1      -1.238   3.133   0.029  0.00  0.00    -0.038 A 
ATOM     24  C   UNL     1      -1.218   1.751   0.017  0.00  0.00    +0.007 A 
ATOM     25  C   UNL     1      -0.013   1.076   0.008  0.00  0.00    +0.040 A 
ATOM     26  C   UNL     1       1.177   1.784   0.000  0.00  0.00    +0.137 A 
ATOM     27  C   UNL     1       1.156   3.170   0.008  0.00  0.00    +0.053 A 
ATOM     28  C   UNL     1      -0.052   3.842   0.022  0.00  0.00    +0.022 A 
ATOM     29 BR   UNL     1       2.780   4.140  -0.003  0.00  0.00    -0.047 Br
ATOM     30  F   UNL     1       2.356   1.126  -0.014  0.00  0.00    -0.204 F 
ENDBRANCH  21  23
TORSDOF 1
