REMARK  Name = ZINC08411987
REMARK  6 active torsions:
REMARK  status: ('A' for Active; 'I' for Inactive)
REMARK    1  A    between atoms: C_1  and  C_2
REMARK    2  A    between atoms: C_5  and  N_8
REMARK    3  A    between atoms: C_14  and  C_15
REMARK    4  A    between atoms: C_20  and  O_21
REMARK    5  A    between atoms: O_21  and  C_22
REMARK    6  A    between atoms: C_22  and  C_23
REMARK                            x       y       z     vdW  Elec       q    Type
REMARK                         _______ _______ _______ _____ _____    ______ ____
ROOT
ATOM      1  N   UNL     1      -5.103   7.077  -0.270  0.00  0.00    -0.226 NA
ATOM      2  C   UNL     1      -3.806   6.874  -0.210  0.00  0.00    +0.166 C 
ATOM      3  N   UNL     1      -2.790   7.805  -0.238  0.00  0.00    -0.260 N 
ATOM      4  C   UNL     1      -1.526   7.425  -0.160  0.00  0.00    +0.256 C 
ATOM      5  O   UNL     1      -0.617   8.235  -0.177  0.00  0.00    -0.269 OA
ATOM      6  C   UNL     1      -1.267   5.977  -0.057  0.00  0.00    +0.078 C 
ATOM      7  C   UNL     1      -0.084   5.317   0.031  0.00  0.00    +0.032 C 
ATOM      8  S   UNL     1      -2.930   5.324  -0.070  0.00  0.00    -0.049 S 
ATOM      9  H   UNL     1      -3.028   8.875  -0.327  0.00  0.00    +0.157 HD
ENDROOT
BRANCH   1  14
ATOM     10  C   UNL     1      -8.658   2.696  -0.091  0.00  0.00    +0.044 C 
ATOM     11  C   UNL     1      -7.709   3.866  -0.139  0.00  0.00    -0.050 A 
ATOM     12  C   UNL     1      -7.964   4.991   0.625  0.00  0.00    +0.005 A 
ATOM     13  C   UNL     1      -7.099   6.065   0.587  0.00  0.00    +0.028 A 
ATOM     14  C   UNL     1      -5.965   6.015  -0.227  0.00  0.00    +0.067 A 
ATOM     15  C   UNL     1      -5.717   4.879  -1.000  0.00  0.00    +0.028 A 
ATOM     16  C   UNL     1      -6.587   3.809  -0.947  0.00  0.00    +0.005 A 
ENDBRANCH   1  14
BRANCH   7  17
ATOM     17  C   UNL     1      -0.066   3.874   0.297  0.00  0.00    +0.018 A 
ATOM     18  C   UNL     1      -1.194   3.242   0.833  0.00  0.00    +0.011 A 
ATOM     19  C   UNL     1      -1.171   1.886   1.075  0.00  0.00    +0.001 A 
ATOM     20  C   UNL     1      -0.032   1.146   0.802  0.00  0.00    +0.004 A 
ATOM     21  C   UNL     1       1.089   1.756   0.274  0.00  0.00    +0.046 A 
ATOM     22  C   UNL     1       1.084   3.118   0.018  0.00  0.00    +0.128 A 
BRANCH  22  23
ATOM     23  O   UNL     1       2.186   3.718  -0.501  0.00  0.00    -0.487 OA
BRANCH  23  24
ATOM     24  C   UNL     1       3.318   2.885  -0.759  0.00  0.00    +0.256 C 
BRANCH  24  25
ATOM     25  C   UNL     1       4.436   3.720  -1.328  0.00  0.00    +0.006 C 
ATOM     26  C   UNL     1       5.658   3.570  -0.881  0.00  0.00    +0.007 C 
ENDBRANCH  24  25
ENDBRANCH  23  24
ENDBRANCH  22  23
ENDBRANCH   7  17
TORSDOF 5
