REMARK  Name = ZINC38744203
REMARK  6 active torsions:
REMARK  status: ('A' for Active; 'I' for Inactive)
REMARK    1  A    between atoms: C_1  and  C_2
REMARK    2  A    between atoms: C_6  and  O_8
REMARK    3  A    between atoms: O_8  and  C_9
REMARK    4  A    between atoms: C_9  and  C_10
REMARK    5  A    between atoms: C_16  and  C_19
REMARK    6  A    between atoms: C_22  and  C_25
REMARK                            x       y       z     vdW  Elec       q    Type
REMARK                         _______ _______ _______ _____ _____    ______ ____
ROOT
ATOM      1  C   UNL     1       0.083  -4.787   3.662  0.00  0.00    +0.189 A 
ATOM      2  N   UNL     1       1.141  -5.065   4.364  0.00  0.00    -0.128 NA
ATOM      3  N   UNL     1       0.800  -5.563   5.500  0.00  0.00    -0.121 NA
ATOM      4  C   UNL     1      -0.492  -5.641   5.566  0.00  0.00    +0.211 A 
ATOM      5  N   UNL     1      -1.029  -5.118   4.417  0.00  0.00    -0.221 N 
ATOM      6  N   UNL     1      -2.384  -5.032   4.294  0.00  0.00    -0.265 N 
ATOM      7  C   UNL     1      -3.154  -5.947   5.179  0.00  0.00    +0.182 C 
ATOM      8  S   UNL     1      -1.907  -6.141   6.524  0.00  0.00    -0.058 S 
ATOM      9  H   UNL     1      -2.697  -4.079   4.400  0.00  0.00    +0.168 HD
ENDROOT
BRANCH   7  10
ATOM     10  C   UNL     1      -4.440  -5.291   5.684  0.00  0.00    +0.185 C 
ATOM     11  C   UNL     1      -5.180  -6.219   6.631  0.00  0.00    +0.029 C 
ATOM     12  C   UNL     1      -5.205  -5.548   7.785  0.00  0.00    +0.058 C 
ATOM     13  N   UNL     1      -4.585  -4.354   7.659  0.00  0.00    -0.159 NA
ATOM     14  N   UNL     1      -4.133  -4.125   6.530  0.00  0.00    -0.177 NA
ATOM     15  C   UNL     1      -5.837  -6.054   9.056  0.00  0.00    +0.067 C 
ENDBRANCH   7  10
BRANCH   1  16
ATOM     16  C   UNL     1       0.069  -4.202   2.274  0.00  0.00    +0.306 C 
BRANCH  16  17
ATOM     17  O   UNL     1       0.050  -2.776   2.358  0.00  0.00    -0.484 OA
BRANCH  17  23
ATOM     18  C   UNL     1      -0.018   1.503   0.010  0.00  0.00    +0.044 C 
ATOM     19  C   UNL     1       0.002  -0.004   0.002  0.00  0.00    -0.047 A 
ATOM     20  C   UNL     1       0.006  -0.688  -1.200  0.00  0.00    +0.003 A 
ATOM     21  C   UNL     1       0.024  -2.071  -1.211  0.00  0.00    +0.004 A 
ATOM     22  C   UNL     1       0.039  -2.772  -0.020  0.00  0.00    +0.045 A 
ATOM     23  C   UNL     1       0.035  -2.088   1.186  0.00  0.00    +0.121 A 
ATOM     24  C   UNL     1       0.023  -0.700   1.195  0.00  0.00    +0.049 A 
ENDBRANCH  17  23
ENDBRANCH  16  17
ENDBRANCH   1  16
TORSDOF 4
