REMARK  Name = ZINC63731592
REMARK  9 active torsions:
REMARK  status: ('A' for Active; 'I' for Inactive)
REMARK    1  A    between atoms: C_1  and  C_2
REMARK    2  A    between atoms: C_2  and  C_3
REMARK    3  A    between atoms: C_6  and  N_9
REMARK    4  A    between atoms: C_10  and  S_21
REMARK    5  A    between atoms: C_15  and  C_18
REMARK    6  A    between atoms: S_21  and  C_22
REMARK    7  A    between atoms: C_22  and  C_23
REMARK    8  A    between atoms: N_25  and  C_26
REMARK    9  A    between atoms: C_26  and  C_27
REMARK                            x       y       z     vdW  Elec       q    Type
REMARK                         _______ _______ _______ _____ _____    ______ ____
ROOT
ATOM      1  N   UNL     1       2.657  -1.834  -4.665  0.00  0.00    -0.253 N 
ATOM      2  C   UNL     1       4.116  -1.973  -4.695  0.00  0.00    +0.260 C 
ATOM      3  N   UNL     1       4.548  -3.271  -5.223  0.00  0.00    -0.230 NA
ATOM      4  C   UNL     1       3.811  -3.907  -6.074  0.00  0.00    +0.185 C 
ATOM      5  C   UNL     1       2.449  -3.399  -6.456  0.00  0.00    +0.083 C 
ATOM      6  C   UNL     1       1.979  -4.278  -7.346  0.00  0.00    +0.075 C 
ATOM      7  N   UNL     1       2.903  -5.250  -7.503  0.00  0.00    -0.152 NA
ATOM      8  N   UNL     1       3.950  -5.061  -6.773  0.00  0.00    -0.129 NA
ATOM      9  C   UNL     1       0.650  -4.198  -8.052  0.00  0.00    +0.068 C 
ATOM     10  C   UNL     1       1.933  -2.172  -5.822  0.00  0.00    +0.133 C 
ATOM     11  N   UNL     1       0.925  -1.483  -6.283  0.00  0.00    -0.285 NA
ATOM     12  H   UNL     1       0.468  -1.772  -7.088  0.00  0.00    +0.188 HD
ENDROOT
BRANCH   1  16
ATOM     13  C   UNL     1       0.708  -0.490  -1.238  0.00  0.00    -0.048 A 
ATOM     14  C   UNL     1      -0.029  -0.933  -2.321  0.00  0.00    +0.005 A 
ATOM     15  C   UNL     1       0.615  -1.379  -3.459  0.00  0.00    +0.024 A 
ATOM     16  C   UNL     1       2.003  -1.382  -3.514  0.00  0.00    +0.038 A 
ATOM     17  C   UNL     1       2.739  -0.937  -2.424  0.00  0.00    +0.024 A 
ATOM     18  C   UNL     1       2.089  -0.487  -1.292  0.00  0.00    +0.005 A 
BRANCH  13  20
ATOM     19  C   UNL     1      -0.261   1.498  -0.117  0.00  0.00    +0.009 C 
ATOM     20  C   UNL     1       0.002  -0.004   0.002  0.00  0.00    +0.032 C 
ENDBRANCH  13  20
ENDBRANCH   1  16
BRANCH   2  21
ATOM     21  S   UNL     1       4.808  -0.660  -5.738  0.00  0.00    -0.106 S 
BRANCH  21  22
ATOM     22  C   UNL     1       4.052  -0.945  -7.362  0.00  0.00    +0.168 C 
BRANCH  22  23
ATOM     23  C   UNL     1       4.549   0.092  -8.336  0.00  0.00    +0.223 C 
ATOM     24  O   UNL     1       5.336   0.940  -7.971  0.00  0.00    -0.275 OA
ATOM     25  N   UNL     1       4.120   0.077  -9.614  0.00  0.00    -0.312 N 
ATOM     26  H   UNL     1       3.490  -0.601  -9.906  0.00  0.00    +0.149 HD
BRANCH  25  27
ATOM     27  C   UNL     1       4.603   1.085 -10.561  0.00  0.00    +0.135 C 
BRANCH  27  28
ATOM     28  C   UNL     1       3.965   0.844 -11.931  0.00  0.00    +0.135 C 
ATOM     29  C   UNL     1       4.559   1.825 -12.964  0.00  0.00    +0.035 C 
ATOM     30  C   UNL     1       3.315   2.203 -13.813  0.00  0.00    +0.031 C 
ATOM     31  C   UNL     1       2.203   2.174 -12.735  0.00  0.00    +0.160 C 
ATOM     32  O   UNL     1       2.555   1.088 -11.860  0.00  0.00    -0.375 OA
ENDBRANCH  27  28
ENDBRANCH  25  27
ENDBRANCH  22  23
ENDBRANCH  21  22
ENDBRANCH   2  21
TORSDOF 7
