REMARK  Name = ZINC28903146
REMARK  6 active torsions:
REMARK  status: ('A' for Active; 'I' for Inactive)
REMARK    1  A    between atoms: C_5  and  C_7
REMARK    2  A    between atoms: C_7  and  N_8
REMARK    3  A    between atoms: C_12  and  N_17
REMARK    4  A    between atoms: C_20  and  C_27
REMARK    5  A    between atoms: C_27  and  N_28
REMARK    6  A    between atoms: C_31  and  N_34
REMARK                            x       y       z     vdW  Elec       q    Type
REMARK                         _______ _______ _______ _____ _____    ______ ____
ROOT
ATOM      1  N   UNL     1       0.791  -4.260  -6.371  0.00  0.00    -0.298 N 
ATOM      2  C   UNL     1      -0.455  -4.229  -6.965  0.00  0.00    +0.151 A 
ATOM      3  C   UNL     1      -0.600  -4.519  -8.341  0.00  0.00    +0.110 A 
ATOM      4  C   UNL     1       0.286  -4.861  -9.345  0.00  0.00    -0.003 A 
ATOM      5  C   UNL     1      -0.466  -5.023 -10.509  0.00  0.00    +0.027 A 
ATOM      6  C   UNL     1      -1.768  -4.782 -10.203  0.00  0.00    +0.113 A 
ATOM      7  N   UNL     1      -1.864  -4.476  -8.896  0.00  0.00    -0.235 N 
ATOM      8  N   UNL     1      -2.944  -4.148  -8.064  0.00  0.00    -0.155 NA
ATOM      9  C   UNL     1      -2.742  -3.891  -6.801  0.00  0.00    +0.245 A 
ATOM     10  N   UNL     1      -1.530  -3.933  -6.252  0.00  0.00    -0.217 NA
ATOM     11  H   UNL     1       1.582  -4.418  -6.910  0.00  0.00    +0.154 HD
ENDROOT
BRANCH   1  16
ATOM     12  N   UNL     1       1.467  -3.659  -0.924  0.00  0.00    -0.258 N 
ATOM     13  C   UNL     1       1.128  -3.645  -2.253  0.00  0.00    +0.069 A 
ATOM     14  C   UNL     1       0.180  -2.945  -2.997  0.00  0.00    +0.030 A 
ATOM     15  C   UNL     1       0.077  -3.152  -4.342  0.00  0.00    +0.025 A 
ATOM     16  C   UNL     1       0.914  -4.062  -4.990  0.00  0.00    +0.033 A 
ATOM     17  C   UNL     1       1.861  -4.768  -4.277  0.00  0.00    +0.034 A 
ATOM     18  C   UNL     1       1.977  -4.565  -2.897  0.00  0.00    +0.021 A 
ATOM     19  C   UNL     1       2.839  -5.123  -1.860  0.00  0.00    +0.143 A 
ATOM     20  N   UNL     1       2.514  -4.565  -0.729  0.00  0.00    -0.178 NA
BRANCH  12  21
ATOM     21  C   UNL     1       0.838  -2.849   0.122  0.00  0.00    +0.199 C 
BRANCH  21  26
ATOM     22  C   UNL     1       1.538   0.853   0.247  0.00  0.00    +0.003 A 
ATOM     23  C   UNL     1       2.906   0.821   0.471  0.00  0.00    +0.020 A 
ATOM     24  C   UNL     1       3.544  -0.401   0.572  0.00  0.00    +0.111 A 
ATOM     25  N   UNL     1       2.866  -1.527   0.458  0.00  0.00    -0.258 NA
ATOM     26  C   UNL     1       1.565  -1.534   0.245  0.00  0.00    +0.063 A 
ATOM     27  C   UNL     1       0.860  -0.350   0.133  0.00  0.00    +0.025 A 
ENDBRANCH  21  26
ENDBRANCH  12  21
ENDBRANCH   1  16
BRANCH   4  28
ATOM     28  C   UNL     1       1.778  -5.026  -9.208  0.00  0.00    +0.121 C 
BRANCH  28  29
ATOM     29  N   UNL     1       2.417  -3.704  -9.182  0.00  0.00    -0.298 NA
ATOM     30  C   UNL     1       2.295  -3.034 -10.483  0.00  0.00    +0.083 C 
ATOM     31  C   UNL     1       2.840  -1.608 -10.378  0.00  0.00    -0.001 C 
ATOM     32  C   UNL     1       4.308  -1.659  -9.944  0.00  0.00    -0.073 C 
ATOM     33  C   UNL     1       4.412  -2.403  -8.610  0.00  0.00    -0.001 C 
ATOM     34  C   UNL     1       3.821  -3.806  -8.766  0.00  0.00    +0.083 C 
BRANCH  32  35
ATOM     35  N   UNL     1       4.820  -0.291  -9.784  0.00  0.00    +0.380 N 
ATOM     36  H   UNL     1       4.279   0.191  -9.082  0.00  0.00    -0.090 HD
ATOM     37  H   UNL     1       5.787  -0.326  -9.498  0.00  0.00    -0.090 HD
ATOM     38  H   UNL     1       4.746   0.200 -10.662  0.00  0.00    -0.090 HD
ENDBRANCH  32  35
ENDBRANCH  28  29
ENDBRANCH   4  28
TORSDOF 6
