REMARK  Name = ZINC36601305
REMARK  13 active torsions:
REMARK  status: ('A' for Active; 'I' for Inactive)
REMARK    1  A    between atoms: C_1  and  C_2
REMARK    2  A    between atoms: C_5  and  C_7
REMARK    3  A    between atoms: C_7  and  N_8
REMARK    4  A    between atoms: N_8  and  C_9
REMARK    5  A    between atoms: C_9  and  C_11
REMARK    6  A    between atoms: C_9  and  C_18
REMARK    7  A    between atoms: C_14  and  O_17
REMARK    8  A    between atoms: N_20  and  C_21
REMARK    9  A    between atoms: C_21  and  C_22
REMARK   10  A    between atoms: C_21  and  C_23
REMARK   11  A    between atoms: C_21  and  C_24
REMARK   12  A    between atoms: C_25  and  C_27
REMARK   13  A    between atoms: C_31  and  N_33
REMARK                            x       y       z     vdW  Elec       q    Type
REMARK                         _______ _______ _______ _____ _____    ______ ____
ROOT
ATOM      1  N   UNL     1       1.069  -2.578  -1.907  0.00  0.00    -0.275 N 
ATOM      2  C   UNL     1       0.397  -3.659  -1.464  0.00  0.00    +0.248 C 
ATOM      3  O   UNL     1      -0.199  -3.612  -0.406  0.00  0.00    -0.270 OA
ENDROOT
BRANCH   2   4
ATOM      4  C   UNL     1       0.383  -4.900  -2.267  0.00  0.00    +0.039 A 
ATOM      5  C   UNL     1       1.582  -5.470  -2.698  0.00  0.00    +0.013 A 
ATOM      6  C   UNL     1       1.562  -6.628  -3.446  0.00  0.00    +0.003 A 
ATOM      7  C   UNL     1       0.356  -7.226  -3.770  0.00  0.00    +0.033 A 
ATOM      8  C   UNL     1      -0.836  -6.667  -3.345  0.00  0.00    +0.127 A 
ATOM      9  C   UNL     1      -0.829  -5.511  -2.591  0.00  0.00    +0.045 A 
BRANCH   8  10
ATOM     10  N   UNL     1      -2.120  -7.313  -3.696  0.00  0.00    +0.056 N 
ATOM     11  O   UNL     1      -2.127  -8.328  -4.353  0.00  0.00    -0.126 OA
ATOM     12  O   UNL     1      -3.163  -6.825  -3.326  0.00  0.00    -0.126 OA
ENDBRANCH   8  10
ENDBRANCH   2   4
BRANCH   1  13
ATOM     13  C   UNL     1       0.989  -1.313  -1.171  0.00  0.00    +0.183 C 
BRANCH  13  18
ATOM     14  C   UNL     1      -3.461   0.747  -2.351  0.00  0.00    +0.086 C 
ATOM     15  C   UNL     1      -2.385   0.018  -1.588  0.00  0.00    +0.102 A 
ATOM     16  C   UNL     1      -2.521  -0.529  -0.366  0.00  0.00    +0.045 A 
ATOM     17  C   UNL     1      -1.273  -1.106  -0.036  0.00  0.00    +0.046 A 
ATOM     18  C   UNL     1      -0.451  -0.879  -1.075  0.00  0.00    +0.122 A 
ATOM     19  O   UNL     1      -1.131  -0.203  -2.015  0.00  0.00    -0.463 OA
ENDBRANCH  13  18
ENDBRANCH   1  13
BRANCH   1  20
ATOM     20  C   UNL     1       1.881  -2.668  -3.123  0.00  0.00    +0.193 C 
BRANCH  20  21
ATOM     21  C   UNL     1       3.317  -2.350  -2.793  0.00  0.00    -0.018 A 
ATOM     22  C   UNL     1       3.728  -2.305  -1.474  0.00  0.00    +0.009 A 
ATOM     23  C   UNL     1       5.044  -2.014  -1.169  0.00  0.00    +0.046 A 
ATOM     24  C   UNL     1       5.953  -1.767  -2.188  0.00  0.00    +0.117 A 
ATOM     25  C   UNL     1       5.537  -1.813  -3.511  0.00  0.00    +0.046 A 
ATOM     26  C   UNL     1       4.222  -2.110  -3.811  0.00  0.00    +0.009 A 
BRANCH  24  27
ATOM     27  O   UNL     1       7.247  -1.480  -1.890  0.00  0.00    -0.507 OA
ATOM     28  H   UNL     1       7.820  -2.257  -1.836  0.00  0.00    +0.292 HD
ENDBRANCH  24  27
ENDBRANCH  20  21
BRANCH  20  29
ATOM     29  C   UNL     1       1.370  -1.682  -4.142  0.00  0.00    +0.239 C 
ATOM     30  O   UNL     1       0.731  -0.716  -3.783  0.00  0.00    -0.273 OA
ATOM     31  N   UNL     1       1.624  -1.874  -5.452  0.00  0.00    -0.309 N 
ATOM     32  H   UNL     1       2.135  -2.647  -5.738  0.00  0.00    +0.149 HD
BRANCH  31  33
ATOM     33  C   UNL     1       1.127  -0.916  -6.442  0.00  0.00    +0.026 C 
ATOM     34  C   UNL     1       1.712   0.468  -6.151  0.00  0.00    +0.031 C 
ATOM     35  C   UNL     1       1.549  -1.364  -7.842  0.00  0.00    +0.031 C 
ATOM     36  C   UNL     1      -0.400  -0.850  -6.367  0.00  0.00    +0.031 C 
ENDBRANCH  31  33
ENDBRANCH  20  29
ENDBRANCH   1  20
TORSDOF 9
