REMARK  Name = ZINC09335490
REMARK  5 active torsions:
REMARK  status: ('A' for Active; 'I' for Inactive)
REMARK    1  A    between atoms: N_9  and  C_11
REMARK    2  A    between atoms: C_15  and  S_17
REMARK    3  A    between atoms: S_17  and  N_20
REMARK    4  A    between atoms: N_20  and  C_21
REMARK    5  A    between atoms: C_26  and  C_27
REMARK                            x       y       z     vdW  Elec       q    Type
REMARK                         _______ _______ _______ _____ _____    ______ ____
ROOT
ATOM      1  C   UNL     1       3.479  -3.675   0.048  0.00  0.00    +0.059 A 
ATOM      2  C   UNL     1       2.676  -4.653   0.623  0.00  0.00    +0.027 A 
ATOM      3  C   UNL     1       3.088  -5.971   0.621  0.00  0.00    +0.004 A 
ATOM      4  C   UNL     1       4.298  -6.318   0.049  0.00  0.00    +0.029 A 
ATOM      5  C   UNL     1       5.100  -5.348  -0.524  0.00  0.00    +0.110 A 
ATOM      6  C   UNL     1       4.691  -4.029  -0.532  0.00  0.00    +0.055 A 
ENDROOT
BRANCH   1  15
ATOM      7  C   UNL     1       0.427   1.666   0.134  0.00  0.00    +0.001 A 
ATOM      8  C   UNL     1       1.626   2.361   0.043  0.00  0.00    +0.001 A 
ATOM      9  C   UNL     1       2.817   1.666  -0.019  0.00  0.00    +0.017 A 
ATOM     10  C   UNL     1       2.799   0.286   0.010  0.00  0.00    +0.042 A 
ATOM     11  C   UNL     1       1.591  -0.440   0.102  0.00  0.00    +0.055 A 
ATOM     12  C   UNL     1       0.395   0.305   0.163  0.00  0.00    +0.014 A 
ATOM     13  C   UNL     1       1.807  -1.881   0.118  0.00  0.00    +0.270 A 
ATOM     14  O   UNL     1       0.865  -2.652   0.193  0.00  0.00    -0.266 OA
ATOM     15  N   UNL     1       3.065  -2.341   0.047  0.00  0.00    -0.245 N 
ATOM     16  S   UNL     1       4.036  -0.980  -0.043  0.00  0.00    -0.003 S 
ENDBRANCH   1  15
BRANCH   5  17
ATOM     17  S   UNL     1       6.641  -5.796  -1.252  0.00  0.00    +0.072 S 
ATOM     18  O   UNL     1       7.452  -4.630  -1.235  0.00  0.00    -0.150 OA
ATOM     19  O   UNL     1       7.041  -7.013  -0.636  0.00  0.00    -0.150 OA
BRANCH  17  20
ATOM     20  N   UNL     1       6.347  -6.146  -2.844  0.00  0.00    -0.215 N 
ATOM     21  H   UNL     1       6.542  -7.030  -3.190  0.00  0.00    +0.174 HD
BRANCH  20  22
ATOM     22  C   UNL     1       5.822  -5.173  -3.682  0.00  0.00    +0.062 A 
ATOM     23  C   UNL     1       6.193  -3.842  -3.527  0.00  0.00    +0.025 A 
ATOM     24  C   UNL     1       5.669  -2.877  -4.361  0.00  0.00    +0.002 A 
ATOM     25  C   UNL     1       4.771  -3.223  -5.359  0.00  0.00    +0.001 A 
ATOM     26  C   UNL     1       4.390  -4.535  -5.530  0.00  0.00    +0.017 A 
ATOM     27  C   UNL     1       4.916  -5.528  -4.696  0.00  0.00    +0.085 A 
BRANCH  27  28
ATOM     28  C   UNL     1       4.519  -6.932  -4.875  0.00  0.00    +0.388 C 
ATOM     29  O   UNL     1       3.730  -7.237  -5.760  0.00  0.00    -0.241 OA
ATOM     30  O   UNL     1       4.977  -7.796  -4.140  0.00  0.00    -0.241 OA
ENDBRANCH  27  28
ENDBRANCH  20  22
ENDBRANCH  17  20
ENDBRANCH   5  17
TORSDOF 5
