REMARK  Name = ZINC59726312
REMARK  12 active torsions:
REMARK  status: ('A' for Active; 'I' for Inactive)
REMARK    1  A    between atoms: C_1  and  C_2
REMARK    2  A    between atoms: C_2  and  C_3
REMARK    3  A    between atoms: C_3  and  C_4
REMARK    4  A    between atoms: C_10  and  C_12
REMARK    5  A    between atoms: C_14  and  S_21
REMARK    6  A    between atoms: C_17  and  O_18
REMARK    7  A    between atoms: O_18  and  C_19
REMARK    8  A    between atoms: C_19  and  C_20
REMARK    9  A    between atoms: S_21  and  N_24
REMARK   10  A    between atoms: C_26  and  C_33
REMARK   11  A    between atoms: C_29  and  C_32
REMARK   12  A    between atoms: N_34  and  C_36
REMARK                            x       y       z     vdW  Elec       q    Type
REMARK                         _______ _______ _______ _____ _____    ______ ____
ROOT
ATOM      1  C   UNL     1       4.904  -3.251   1.095  0.00  0.00    +0.063 A 
ATOM      2  C   UNL     1       5.265  -1.925   1.325  0.00  0.00    +0.043 A 
ATOM      3  C   UNL     1       6.436  -1.637   1.997  0.00  0.00    +0.106 A 
ATOM      4  C   UNL     1       7.253  -2.660   2.443  0.00  0.00    +0.032 A 
ATOM      5  C   UNL     1       6.905  -3.978   2.221  0.00  0.00    +0.048 A 
ATOM      6  C   UNL     1       5.729  -4.283   1.553  0.00  0.00    +0.131 A 
ENDROOT
BRANCH   1  13
ATOM      7  C   UNL     1       0.739  -2.004  -1.265  0.00  0.00    +0.089 A 
ATOM      8  C   UNL     1       1.746  -2.817  -0.701  0.00  0.00    +0.117 A 
ATOM      9  C   UNL     1       1.370  -4.152  -0.932  0.00  0.00    +0.120 A 
ATOM     10  C   UNL     1       2.211  -5.175  -0.465  0.00  0.00    +0.137 A 
ATOM     11  S   UNL     1       1.796  -6.868  -0.724  0.00  0.00    -0.028 SA
ATOM     12  N   UNL     1       3.325  -4.841   0.174  0.00  0.00    -0.218 NA
ATOM     13  C   UNL     1       3.648  -3.566   0.375  0.00  0.00    +0.165 A 
ATOM     14  N   UNL     1       2.887  -2.570  -0.046  0.00  0.00    -0.224 NA
ATOM     15  N   UNL     1       0.182  -4.117  -1.609  0.00  0.00    -0.262 N 
ATOM     16  N   UNL     1      -0.174  -2.773  -1.790  0.00  0.00    -0.174 NA
ATOM     17  C   UNL     1      -0.586  -5.279  -2.062  0.00  0.00    +0.173 C 
BRANCH   7  18
ATOM     18  C   UNL     1       0.718  -0.497  -1.257  0.00  0.00    +0.059 C 
BRANCH  18  20
ATOM     19  C   UNL     1      -0.019   1.526   0.010  0.00  0.00    +0.004 C 
ATOM     20  C   UNL     1       0.002  -0.004   0.002  0.00  0.00    +0.003 C 
ENDBRANCH  18  20
ENDBRANCH   7  18
ENDBRANCH   1  13
BRANCH   3  21
ATOM     21  S   UNL     1       6.891   0.041   2.287  0.00  0.00    +0.061 S 
ATOM     22  O   UNL     1       8.302   0.054   2.456  0.00  0.00    -0.153 OA
ATOM     23  O   UNL     1       6.236   0.817   1.293  0.00  0.00    -0.153 OA
BRANCH  21  24
ATOM     24  N   UNL     1       6.235   0.482   3.742  0.00  0.00    -0.180 NA
ATOM     25  C   UNL     1       4.886   1.064   3.818  0.00  0.00    +0.093 C 
ATOM     26  C   UNL     1       4.958   2.349   4.649  0.00  0.00    -0.059 C 
ATOM     27  N   UNL     1       5.566   2.054   5.953  0.00  0.00    +0.384 N 
ATOM     28  C   UNL     1       6.957   1.623   5.770  0.00  0.00    -0.059 C 
ATOM     29  C   UNL     1       6.982   0.297   4.995  0.00  0.00    +0.093 C 
ATOM     30  C   UNL     1       7.614   1.426   7.138  0.00  0.00    -0.012 C 
ATOM     31  C   UNL     1       3.547   2.902   4.857  0.00  0.00    -0.012 C 
ATOM     32  H   UNL     1       5.544   2.883   6.528  0.00  0.00    -0.085 HD
ATOM     33  H   UNL     1       5.044   1.319   6.407  0.00  0.00    -0.085 HD
ENDBRANCH  21  24
ENDBRANCH   3  21
BRANCH   6  34
ATOM     34  O   UNL     1       5.382  -5.578   1.339  0.00  0.00    -0.492 OA
BRANCH  34  35
ATOM     35  C   UNL     1       6.274  -6.579   1.835  0.00  0.00    +0.226 C 
ATOM     36  C   UNL     1       5.720  -7.966   1.502  0.00  0.00    +0.048 C 
ENDBRANCH  34  35
ENDBRANCH   6  34
TORSDOF 7
