REMARK  Name = ZINC32635116
REMARK  10 active torsions:
REMARK  status: ('A' for Active; 'I' for Inactive)
REMARK    1  A    between atoms: C_1  and  C_2
REMARK    2  A    between atoms: C_7  and  N_8
REMARK    3  A    between atoms: N_20  and  C_21
REMARK    4  A    between atoms: C_21  and  C_23
REMARK    5  A    between atoms: C_23  and  N_24
REMARK    6  A    between atoms: C_25  and  O_27
REMARK    7  A    between atoms: O_27  and  C_28
REMARK    8  A    between atoms: C_28  and  C_29
REMARK    9  A    between atoms: C_28  and  C_30
REMARK   10  A    between atoms: C_28  and  C_31
REMARK                            x       y       z     vdW  Elec       q    Type
REMARK                         _______ _______ _______ _____ _____    ______ ____
ROOT
ATOM      1  N   UNL     1       7.237   0.745   7.332  0.00  0.00    -0.276 N 
ATOM      2  C   UNL     1       7.699   0.452   8.677  0.00  0.00    +0.116 C 
ATOM      3  C   UNL     1       9.103  -0.192   8.603  0.00  0.00    +0.190 C 
ATOM      4  S   UNL     1       9.047  -1.380  10.013  0.00  0.00    -0.028 S 
ATOM      5  O   UNL     1       9.774  -2.551   9.670  0.00  0.00    -0.174 OA
ATOM      6  O   UNL     1       9.347  -0.693  11.220  0.00  0.00    -0.174 OA
ATOM      7  C   UNL     1       7.238  -1.741   9.945  0.00  0.00    +0.182 C 
ATOM      8  C   UNL     1       6.691  -0.399   9.460  0.00  0.00    +0.097 C 
ATOM      9  S   UNL     1       5.392  -0.674   8.201  0.00  0.00    -0.086 S 
ATOM     10  C   UNL     1       6.071   0.218   6.884  0.00  0.00    +0.154 C 
ATOM     11  N   UNL     1       5.549   0.364   5.671  0.00  0.00    -0.157 NA
ENDROOT
BRANCH   1  18
ATOM     12  C   UNL     1       6.893   3.561   7.555  0.00  0.00    +0.045 C 
ATOM     13  C   UNL     1       7.861   2.951   6.573  0.00  0.00    -0.029 A 
ATOM     14  C   UNL     1       8.616   3.764   5.750  0.00  0.00    +0.005 A 
ATOM     15  C   UNL     1       9.499   3.206   4.846  0.00  0.00    +0.000 A 
ATOM     16  C   UNL     1       9.634   1.831   4.765  0.00  0.00    +0.002 A 
ATOM     17  C   UNL     1       8.886   1.013   5.588  0.00  0.00    +0.024 A 
ATOM     18  C   UNL     1       7.997   1.571   6.498  0.00  0.00    +0.039 A 
ENDBRANCH   1  18
BRANCH  11  19
ATOM     19  C   UNL     1       4.389  -0.216   5.373  0.00  0.00    +0.255 C 
ATOM     20  O   UNL     1       3.807  -0.879   6.210  0.00  0.00    -0.272 OA
BRANCH  19  21
ATOM     21  C   UNL     1       3.796  -0.051   3.997  0.00  0.00    +0.205 C 
BRANCH  21  22
ATOM     22  N   UNL     1       2.527  -0.779   3.921  0.00  0.00    -0.272 N 
ATOM     23  C   UNL     1       1.814  -0.774   2.777  0.00  0.00    +0.401 C 
ATOM     24  O   UNL     1       2.224  -0.164   1.809  0.00  0.00    -0.226 OA
ATOM     25  H   UNL     1       2.157  -1.331   4.798  0.00  0.00    +0.153 HD
BRANCH  23  26
ATOM     26  O   UNL     1       0.648  -1.443   2.708  0.00  0.00    -0.445 OA
BRANCH  26  27
ATOM     27  C   UNL     1      -0.066  -1.393   1.445  0.00  0.00    +0.107 C 
ATOM     28  C   UNL     1       0.812  -1.981   0.338  0.00  0.00    +0.055 C 
ATOM     29  C   UNL     1      -0.406   0.060   1.108  0.00  0.00    +0.055 C 
ATOM     30  C   UNL     1      -1.358  -2.206   1.557  0.00  0.00    +0.055 C 
ENDBRANCH  26  27
ENDBRANCH  23  26
ENDBRANCH  21  22
ENDBRANCH  19  21
ENDBRANCH  11  19
TORSDOF 6
