REMARK  Name = ZINC39825610
REMARK  6 active torsions:
REMARK  status: ('A' for Active; 'I' for Inactive)
REMARK    1  A    between atoms: C_2  and  C_3
REMARK    2  A    between atoms: C_3  and  O_4
REMARK    3  A    between atoms: O_4  and  C_5
REMARK    4  A    between atoms: C_8  and  C_11
REMARK    5  A    between atoms: N_26  and  C_27
REMARK    6  A    between atoms: C_27  and  C_28
REMARK                            x       y       z     vdW  Elec       q    Type
REMARK                         _______ _______ _______ _____ _____    ______ ____
ROOT
ATOM      1  C   UNL     1       5.900  -4.992   1.394  0.00  0.00    +0.145 C 
ATOM      2  C   UNL     1       5.708  -6.287   0.675  0.00  0.00    +0.072 A 
ATOM      3  C   UNL     1       5.432  -6.578  -0.736  0.00  0.00    +0.199 A 
ATOM      4  O   UNL     1       5.487  -5.734  -1.613  0.00  0.00    -0.287 OA
ATOM      5  C   UNL     1       5.080  -7.997  -0.993  0.00  0.00    +0.067 A 
ATOM      6  C   UNL     1       4.599  -8.389  -2.242  0.00  0.00    +0.053 A 
ATOM      7  C   UNL     1       4.272  -9.711  -2.461  0.00  0.00    +0.124 A 
ATOM      8  C   UNL     1       4.422 -10.643  -1.441  0.00  0.00    +0.042 A 
ATOM      9  C   UNL     1       4.897 -10.266  -0.206  0.00  0.00    +0.050 A 
ATOM     10  C   UNL     1       5.237  -8.936   0.040  0.00  0.00    +0.140 A 
ATOM     11  O   UNL     1       5.712  -8.595   1.260  0.00  0.00    -0.450 OA
ATOM     12  C   UNL     1       5.827  -7.294   1.591  0.00  0.00    +0.199 A 
ATOM     13  C   UNL     1       6.089  -6.691   2.909  0.00  0.00    +0.283 C 
ATOM     14  O   UNL     1       6.242  -7.313   3.941  0.00  0.00    -0.267 OA
ATOM     15  N   UNL     1       6.136  -5.345   2.804  0.00  0.00    -0.279 N 
ATOM     16  F   UNL     1       3.806 -10.100  -3.668  0.00  0.00    -0.205 F 
ENDROOT
BRANCH   1  20
ATOM     17  C   UNL     1       2.392  -2.577   1.044  0.00  0.00    +0.121 A 
ATOM     18  C   UNL     1       3.505  -2.304   0.262  0.00  0.00    +0.046 A 
ATOM     19  C   UNL     1       4.638  -3.086   0.377  0.00  0.00    +0.009 A 
ATOM     20  C   UNL     1       4.663  -4.141   1.271  0.00  0.00    -0.022 A 
ATOM     21  C   UNL     1       3.556  -4.415   2.051  0.00  0.00    +0.009 A 
ATOM     22  C   UNL     1       2.422  -3.632   1.944  0.00  0.00    +0.046 A 
BRANCH  17  23
ATOM     23  O   UNL     1       1.277  -1.809   0.933  0.00  0.00    -0.488 OA
BRANCH  23  24
ATOM     24  C   UNL     1       1.317  -0.740  -0.015  0.00  0.00    +0.256 C 
BRANCH  24  26
ATOM     25  C   UNL     1      -0.016   1.306   0.009  0.00  0.00    +0.007 C 
ATOM     26  C   UNL     1       0.002  -0.004   0.002  0.00  0.00    +0.006 C 
ENDBRANCH  24  26
ENDBRANCH  23  24
ENDBRANCH  17  23
ENDBRANCH   1  20
BRANCH  15  27
ATOM     27  C   UNL     1       6.378  -4.402   3.898  0.00  0.00    +0.144 C 
BRANCH  27  28
ATOM     28  C   UNL     1       5.064  -4.010   4.524  0.00  0.00    -0.030 A 
ATOM     29  C   UNL     1       4.366  -2.920   4.039  0.00  0.00    +0.008 A 
ATOM     30  C   UNL     1       3.161  -2.559   4.611  0.00  0.00    +0.038 A 
ATOM     31  C   UNL     1       2.652  -3.292   5.671  0.00  0.00    +0.123 A 
ATOM     32  C   UNL     1       3.352  -4.384   6.155  0.00  0.00    +0.038 A 
ATOM     33  C   UNL     1       4.554  -4.745   5.578  0.00  0.00    +0.008 A 
ATOM     34  F   UNL     1       1.475  -2.940   6.232  0.00  0.00    -0.205 F 
ENDBRANCH  27  28
ENDBRANCH  15  27
TORSDOF 6
