REMARK  Name = ZINC04132802
REMARK  5 active torsions:
REMARK  status: ('A' for Active; 'I' for Inactive)
REMARK    1  A    between atoms: C_4  and  C_7
REMARK    2  A    between atoms: C_7  and  N_55
REMARK    3  A    between atoms: C_10  and  N_57
REMARK    4  A    between atoms: C_13  and  C_14
REMARK    5  A    between atoms: C_13  and  N_57
REMARK                            x       y       z     vdW  Elec       q    Type
REMARK                         _______ _______ _______ _____ _____    ______ ____
ROOT
ATOM      1  C   UNL     1       0.946  -2.495  -2.595  0.00  0.00    -0.041 C 
ENDROOT
BRANCH   1   2
ATOM      2  C   UNL     1       1.018  -3.999  -2.538  0.00  0.00    +0.001 A 
ATOM      3  C   UNL     1      -0.108  -4.737  -2.706  0.00  0.00    +0.017 A 
ATOM      4  C   UNL     1      -0.005  -6.195  -2.646  0.00  0.00    +0.002 A 
ATOM      5  C   UNL     1      -1.133  -7.007  -2.812  0.00  0.00    +0.059 A 
ATOM      6  C   UNL     1      -1.005  -8.379  -2.747  0.00  0.00    +0.163 A 
ATOM      7  C   UNL     1       0.246  -8.959  -2.519  0.00  0.00    +0.164 A 
ATOM      8  C   UNL     1       1.367  -8.164  -2.356  0.00  0.00    +0.075 A 
ATOM      9  C   UNL     1       1.256  -6.781  -2.417  0.00  0.00    +0.053 A 
ATOM     10  N   UNL     1       2.363  -5.973  -2.255  0.00  0.00    -0.322 N 
ATOM     11  H   UNL     1       3.257  -6.389  -2.089  0.00  0.00    +0.169 HD
ATOM     12  C   UNL     1       2.257  -4.634  -2.317  0.00  0.00    +0.251 A 
ATOM     13  O   UNL     1       3.257  -3.952  -2.174  0.00  0.00    -0.268 OA
ATOM     14  O   UNL     1       0.382 -10.311  -2.458  0.00  0.00    -0.485 OA
ATOM     15  C   UNL     1      -0.815 -11.070  -2.251  0.00  0.00    +0.270 C 
ATOM     16  C   UNL     1      -1.893 -10.537  -3.204  0.00  0.00    +0.270 C 
ATOM     17  O   UNL     1      -2.113  -9.155  -2.904  0.00  0.00    -0.485 OA
ENDBRANCH   1   2
BRANCH   1  18
ATOM     18  N   UNL     1       0.811  -1.966  -1.224  0.00  0.00    +0.384 N 
ATOM     19  H   UNL     1      -0.045  -2.341  -0.799  0.00  0.00    -0.085 HD
ATOM     20  H   UNL     1       1.625  -2.255  -0.668  0.00  0.00    -0.085 HD
BRANCH  18  23
ATOM     21  C   UNL     1      -0.019   1.526   0.010  0.00  0.00    -0.080 C 
ATOM     22  C   UNL     1       0.002  -0.004   0.002  0.00  0.00    -0.034 C 
ATOM     23  C   UNL     1       0.738  -0.493  -1.249  0.00  0.00    -0.075 C 
ATOM     24  C   UNL     1       2.153   0.091  -1.260  0.00  0.00    -0.034 C 
ATOM     25  C   UNL     1       2.070   1.619  -1.215  0.00  0.00    -0.080 C 
ATOM     26  N   UNL     1       1.373   2.025   0.024  0.00  0.00    +0.382 N 
ATOM     27  H   UNL     1       1.864   1.620   0.830  0.00  0.00    -0.081 HD
BRANCH  26  28
ATOM     28  C   UNL     1       1.380   3.497   0.147  0.00  0.00    -0.043 C 
BRANCH  28  32
ATOM     29  C   UNL     1       5.394   4.803   0.802  0.00  0.00    +0.000 A 
ATOM     30  C   UNL     1       4.900   4.708  -0.485  0.00  0.00    +0.000 A 
ATOM     31  C   UNL     1       3.601   4.286  -0.697  0.00  0.00    +0.002 A 
ATOM     32  C   UNL     1       2.796   3.958   0.378  0.00  0.00    -0.064 A 
ATOM     33  C   UNL     1       3.289   4.058   1.666  0.00  0.00    +0.002 A 
ATOM     34  C   UNL     1       4.590   4.475   1.878  0.00  0.00    +0.000 A 
ENDBRANCH  28  32
ENDBRANCH  26  28
ENDBRANCH  18  23
ENDBRANCH   1  18
TORSDOF 5
