REMARK  Name = ZINC16808512
REMARK  6 active torsions:
REMARK  status: ('A' for Active; 'I' for Inactive)
REMARK    1  A    between atoms: C_3  and  C_23
REMARK    2  A    between atoms: C_6  and  C_7
REMARK    3  A    between atoms: C_7  and  S_8
REMARK    4  A    between atoms: S_8  and  C_9
REMARK    5  A    between atoms: C_12  and  C_15
REMARK    6  A    between atoms: N_13  and  N_14
REMARK                            x       y       z     vdW  Elec       q    Type
REMARK                         _______ _______ _______ _____ _____    ______ ____
ROOT
ATOM      1  C   UNL     1       1.066  -4.535  -1.445  0.00  0.00    +0.209 A 
ATOM      2  N   UNL     1       1.100  -5.146  -0.282  0.00  0.00    -0.121 NA
ATOM      3  N   UNL     1       1.313  -6.402  -0.450  0.00  0.00    -0.127 NA
ATOM      4  C   UNL     1       1.438  -6.668  -1.729  0.00  0.00    +0.183 A 
ATOM      5  N   UNL     1       1.283  -5.481  -2.406  0.00  0.00    -0.224 N 
ENDROOT
BRANCH   4   6
ATOM      6  C   UNL     1       1.695  -7.995  -2.329  0.00  0.00    +0.040 A 
ATOM      7  C   UNL     1       2.677  -8.142  -3.309  0.00  0.00    +0.033 A 
ATOM      8  C   UNL     1       2.912  -9.383  -3.866  0.00  0.00    +0.042 A 
ATOM      9  C   UNL     1       2.175 -10.481  -3.454  0.00  0.00    +0.021 A 
ATOM     10  C   UNL     1       1.200 -10.342  -2.483  0.00  0.00    +0.022 A 
ATOM     11  C   UNL     1       0.959  -9.107  -1.914  0.00  0.00    +0.052 A 
ATOM     12 CL   UNL     1      -0.260  -8.936  -0.690  0.00  0.00    -0.083 Cl
ATOM     13 CL   UNL     1       4.134  -9.569  -5.085  0.00  0.00    -0.084 Cl
ENDBRANCH   4   6
BRANCH   5  14
ATOM     14  N   UNL     1       1.336  -5.288  -3.757  0.00  0.00    -0.295 N 
ATOM     15  H   UNL     1       2.288  -5.167  -4.068  0.00  0.00    +0.163 HD
ATOM     16  H   UNL     1       0.888  -6.047  -4.248  0.00  0.00    +0.163 HD
ENDBRANCH   5  14
BRANCH   1  17
ATOM     17  S   UNL     1       0.797  -2.814  -1.714  0.00  0.00    -0.080 S 
BRANCH  17  18
ATOM     18  C   UNL     1       0.597  -2.256  -0.004  0.00  0.00    +0.112 C 
BRANCH  18  24
ATOM     19  C   UNL     1      -0.946  -0.286  -0.052  0.00  0.00    +0.005 A 
ATOM     20  C   UNL     1      -1.179   1.073  -0.037  0.00  0.00    +0.013 A 
ATOM     21  C   UNL     1      -0.106   1.962   0.045  0.00  0.00    +0.037 A 
ATOM     22  C   UNL     1       1.198   1.468   0.112  0.00  0.00    +0.013 A 
ATOM     23  C   UNL     1       1.418   0.106   0.096  0.00  0.00    +0.005 A 
ATOM     24  C   UNL     1       0.349  -0.770   0.014  0.00  0.00    -0.037 A 
BRANCH  21  25
ATOM     25  C   UNL     1      -0.349   3.420   0.063  0.00  0.00    +0.242 C 
ATOM     26  O   UNL     1      -1.486   3.847   0.005  0.00  0.00    -0.270 OA
ATOM     27  N   UNL     1       0.689   4.275   0.142  0.00  0.00    -0.325 N 
ATOM     28  H   UNL     1       1.596   3.934   0.188  0.00  0.00    +0.145 HD
ATOM     29  H   UNL     1       0.530   5.232   0.153  0.00  0.00    +0.145 HD
ENDBRANCH  21  25
ENDBRANCH  18  24
ENDBRANCH  17  18
ENDBRANCH   1  17
TORSDOF 6
