REMARK  Name = ZINC20295450
REMARK  3 active torsions:
REMARK  status: ('A' for Active; 'I' for Inactive)
REMARK    1  A    between atoms: C_1  and  C_2
REMARK    2  A    between atoms: C_9  and  C_18
REMARK    3  A    between atoms: C_21  and  N_24
REMARK                            x       y       z     vdW  Elec       q    Type
REMARK                         _______ _______ _______ _____ _____    ______ ____
ROOT
ATOM      1  C   UNL     1       2.554   0.976   1.354  0.00  0.00    +0.047 C 
ATOM      2  C   UNL     1       2.467   2.099   0.353  0.00  0.00    -0.011 A 
ATOM      3  C   UNL     1       3.545   2.941   0.179  0.00  0.00    +0.046 A 
ATOM      4  C   UNL     1       3.478   3.978  -0.735  0.00  0.00    +0.020 A 
ATOM      5  C   UNL     1       2.328   4.159  -1.480  0.00  0.00    +0.007 A 
ATOM      6  C   UNL     1       1.250   3.315  -1.319  0.00  0.00    -0.019 A 
ATOM      7  C   UNL     1       1.297   2.273  -0.388  0.00  0.00    +0.036 A 
ATOM      8  N   UNL     1       0.244   1.394  -0.145  0.00  0.00    -0.336 N 
ATOM      9  C   UNL     1      -0.940   1.525  -1.009  0.00  0.00    +0.105 C 
ATOM     10  C   UNL     1      -1.169   3.006  -1.228  0.00  0.00    +0.029 C 
ATOM     11  C   UNL     1       0.021   3.460  -2.130  0.00  0.00    +0.049 C 
ATOM     12  C   UNL     1      -0.439   4.766  -2.662  0.00  0.00    -0.023 C 
ATOM     13  C   UNL     1      -1.767   4.756  -2.714  0.00  0.00    -0.030 C 
ATOM     14  C   UNL     1      -2.300   3.427  -2.173  0.00  0.00    +0.033 C 
ATOM     15 CL   UNL     1       4.989   2.702   1.112  0.00  0.00    -0.083 Cl
ATOM     16  H   UNL     1       0.267   0.628   0.644  0.00  0.00    +0.147 HD
ENDROOT
BRANCH   9  17
ATOM     17  C   UNL     1      -0.692   0.843  -2.329  0.00  0.00    -0.027 A 
ATOM     18  C   UNL     1      -1.757   0.382  -3.080  0.00  0.00    +0.008 A 
ATOM     19  C   UNL     1      -1.529  -0.240  -4.293  0.00  0.00    +0.033 A 
ATOM     20  C   UNL     1      -0.236  -0.409  -4.752  0.00  0.00    +0.126 A 
ATOM     21  C   UNL     1       0.829   0.047  -3.998  0.00  0.00    +0.033 A 
ATOM     22  C   UNL     1       0.602   0.673  -2.787  0.00  0.00    +0.008 A 
BRANCH  20  23
ATOM     23  N   UNL     1       0.008  -1.079  -6.049  0.00  0.00    +0.056 N 
ATOM     24  O   UNL     1       1.147  -1.228  -6.453  0.00  0.00    -0.126 OA
ATOM     25  O   UNL     1      -0.931  -1.481  -6.713  0.00  0.00    -0.126 OA
ENDBRANCH  20  23
ENDBRANCH   9  17
TORSDOF 2
