REMARK  Name = ZINC55488959
REMARK  6 active torsions:
REMARK  status: ('A' for Active; 'I' for Inactive)
REMARK    1  A    between atoms: C_1  and  C_2
REMARK    2  A    between atoms: C_5  and  C_8
REMARK    3  A    between atoms: C_8  and  N_9
REMARK    4  A    between atoms: C_10  and  C_12
REMARK    5  A    between atoms: C_12  and  C_13
REMARK    6  A    between atoms: C_13  and  C_14
REMARK                            x       y       z     vdW  Elec       q    Type
REMARK                         _______ _______ _______ _____ _____    ______ ____
ROOT
ATOM      1  C   UNL     1      -1.361  -1.044   9.878  0.00  0.00    +0.111 A 
ATOM      2  N   UNL     1      -1.843  -0.743  11.111  0.00  0.00    -0.310 N 
ATOM      3  H   UNL     1      -2.604  -0.146  11.191  0.00  0.00    +0.170 HD
ATOM      4  C   UNL     1      -1.288  -1.256  12.225  0.00  0.00    +0.260 A 
ATOM      5  O   UNL     1      -1.734  -0.976  13.325  0.00  0.00    -0.267 OA
ATOM      6  C   UNL     1      -0.165  -2.137  12.097  0.00  0.00    +0.075 A 
ATOM      7  C   UNL     1       0.592  -2.805  13.155  0.00  0.00    -0.023 A 
ATOM      8  C   UNL     1       1.618  -3.593  12.771  0.00  0.00    -0.004 A 
ATOM      9  S   UNL     1       1.635  -3.493  11.001  0.00  0.00    -0.073 S 
ATOM     10  C   UNL     1       0.262  -2.389  10.784  0.00  0.00    +0.116 A 
ATOM     11  N   UNL     1      -0.342  -1.848   9.729  0.00  0.00    -0.227 NA
ATOM     12  C   UNL     1       2.539  -4.378  13.653  0.00  0.00    +0.043 C 
ATOM     13  C   UNL     1       2.384  -3.867  15.092  0.00  0.00    +0.005 C 
ATOM     14  C   UNL     1       0.892  -3.776  15.423  0.00  0.00    +0.005 C 
ATOM     15  C   UNL     1       0.254  -2.632  14.634  0.00  0.00    +0.037 C 
ENDROOT
BRANCH   1  16
ATOM     16  C   UNL     1      -2.016  -0.446   8.660  0.00  0.00    +0.083 C 
BRANCH  16  17
ATOM     17  C   UNL     1      -1.300  -0.939   7.402  0.00  0.00    +0.103 C 
BRANCH  17  19
ATOM     18  N   UNL     1      -1.489  -0.636   4.954  0.00  0.00    -0.315 N 
ATOM     19  C   UNL     1      -1.955  -0.340   6.184  0.00  0.00    +0.213 C 
ATOM     20  O   UNL     1      -2.901   0.407   6.310  0.00  0.00    -0.276 OA
ATOM     21  H   UNL     1      -0.732  -1.234   4.853  0.00  0.00    +0.149 HD
BRANCH  18  22
ATOM     22  C   UNL     1      -2.126  -0.054   3.770  0.00  0.00    +0.107 C 
BRANCH  22  27
ATOM     23  C   UNL     1      -0.019   1.526   0.010  0.00  0.00    +0.007 C 
ATOM     24  C   UNL     1       0.002  -0.004   0.002  0.00  0.00    -0.014 C 
ATOM     25  C   UNL     1      -1.433  -0.534   0.013  0.00  0.00    +0.003 C 
ATOM     26  C   UNL     1      -2.149  -0.040   1.272  0.00  0.00    +0.005 C 
ATOM     27  C   UNL     1      -1.409  -0.547   2.511  0.00  0.00    +0.006 C 
ATOM     28  C   UNL     1       0.026  -0.018   2.500  0.00  0.00    +0.005 C 
ATOM     29  C   UNL     1       0.742  -0.511   1.242  0.00  0.00    +0.003 C 
ENDBRANCH  22  27
ENDBRANCH  18  22
ENDBRANCH  17  19
ENDBRANCH  16  17
ENDBRANCH   1  16
TORSDOF 5
