REMARK  Name = ZINC64182232
REMARK  5 active torsions:
REMARK  status: ('A' for Active; 'I' for Inactive)
REMARK    1  A    between atoms: C_1  and  C_2
REMARK    2  A    between atoms: C_2  and  C_4
REMARK    3  A    between atoms: C_2  and  N_21
REMARK    4  A    between atoms: C_9  and  C_12
REMARK    5  A    between atoms: C_22  and  C_24
REMARK                            x       y       z     vdW  Elec       q    Type
REMARK                         _______ _______ _______ _____ _____    ______ ____
ROOT
ATOM      1  C   UNL     1       0.862  -0.591  -1.334  0.00  0.00    +0.236 C 
ATOM      2  O   UNL     1       1.943  -1.139  -1.378  0.00  0.00    -0.274 OA
ATOM      3  N   UNL     1       0.263  -0.190  -2.473  0.00  0.00    -0.296 N 
ATOM      4  C   UNL     1       0.892  -0.410  -3.787  0.00  0.00    +0.113 C 
ATOM      5  C   UNL     1      -0.017  -1.336  -4.599  0.00  0.00    +0.054 C 
ATOM      6  C   UNL     1      -1.445  -0.888  -4.495  0.00  0.00    -0.043 C 
ATOM      7  C   UNL     1      -1.909  -0.088  -3.543  0.00  0.00    -0.004 C 
ATOM      8  C   UNL     1      -1.046   0.477  -2.454  0.00  0.00    +0.135 C 
ENDROOT
BRANCH   6   9
ATOM      9  C   UNL     1      -2.353  -1.346  -5.473  0.00  0.00    -0.016 C 
ATOM     10  C   UNL     1      -2.107  -2.272  -6.478  0.00  0.00    +0.003 A 
ATOM     11  C   UNL     1      -0.956  -3.012  -6.835  0.00  0.00    +0.010 A 
ATOM     12  C   UNL     1      -1.005  -3.864  -7.888  0.00  0.00    +0.001 A 
ATOM     13  C   UNL     1      -2.171  -4.035  -8.640  0.00  0.00    +0.002 A 
ATOM     14  C   UNL     1      -3.311  -3.361  -8.357  0.00  0.00    +0.026 A 
ATOM     15  C   UNL     1      -3.339  -2.449  -7.268  0.00  0.00    +0.043 A 
ATOM     16  N   UNL     1      -4.302  -1.687  -6.795  0.00  0.00    -0.380 N 
ATOM     17  C   UNL     1      -3.799  -0.935  -5.641  0.00  0.00    +0.149 C 
ATOM     18  H   UNL     1      -5.202  -1.634  -7.151  0.00  0.00    +0.160 HD
ENDBRANCH   6   9
BRANCH   1  20
ATOM     19  C   UNL     1      -0.028   1.144   0.198  0.00  0.00    +0.038 C 
ATOM     20  C   UNL     1       0.189  -0.356  -0.006  0.00  0.00    +0.156 C 
BRANCH  20  21
ATOM     21  N   UNL     1       1.036  -0.878   1.069  0.00  0.00    -0.304 N 
ATOM     22  C   UNL     1       0.484  -1.249   2.241  0.00  0.00    +0.220 C 
ATOM     23  O   UNL     1      -0.713  -1.150   2.406  0.00  0.00    -0.275 OA
ATOM     24  H   UNL     1       1.994  -0.957   0.937  0.00  0.00    +0.149 HD
BRANCH  22  25
ATOM     25  C   UNL     1       1.355  -1.785   3.348  0.00  0.00    +0.048 C 
ATOM     26  C   UNL     1       2.388  -0.728   3.743  0.00  0.00    +0.019 C 
ATOM     27  C   UNL     1       3.272  -1.272   4.866  0.00  0.00    -0.009 C 
ATOM     28  C   UNL     1       2.404  -1.615   6.078  0.00  0.00    +0.007 C 
ATOM     29  C   UNL     1       1.371  -2.673   5.683  0.00  0.00    -0.009 C 
ATOM     30  C   UNL     1       0.487  -2.128   4.560  0.00  0.00    +0.019 C 
ATOM     31  C   UNL     1       2.092  -3.933   5.199  0.00  0.00    +0.007 C 
ATOM     32  C   UNL     1       2.960  -3.590   3.987  0.00  0.00    -0.009 C 
ATOM     33  C   UNL     1       3.993  -2.532   4.382  0.00  0.00    +0.007 C 
ATOM     34  C   UNL     1       2.076  -3.045   2.864  0.00  0.00    +0.019 C 
ENDBRANCH  22  25
ENDBRANCH  20  21
ENDBRANCH   1  20
TORSDOF 4
