REMARK  Name = ZINC05572612
REMARK  5 active torsions:
REMARK  status: ('A' for Active; 'I' for Inactive)
REMARK    1  A    between atoms: C_5  and  C_7
REMARK    2  A    between atoms: C_9  and  C_21
REMARK    3  A    between atoms: C_11  and  C_16
REMARK    4  A    between atoms: C_11  and  O_20
REMARK    5  A    between atoms: C_21  and  C_23
REMARK                            x       y       z     vdW  Elec       q    Type
REMARK                         _______ _______ _______ _____ _____    ______ ____
ROOT
ATOM      1  C   UNL     1       1.250  -2.168  -0.023  0.00  0.00    +0.138 C 
ATOM      2  C   UNL     1       2.081  -2.655  -1.216  0.00  0.00    +0.146 C 
ATOM      3  C   UNL     1       2.196  -4.181  -1.139  0.00  0.00    +0.243 C 
ATOM      4  N   UNL     1       2.755  -4.555   0.161  0.00  0.00    -0.264 N 
ATOM      5  C   UNL     1       2.560  -3.796   1.249  0.00  0.00    +0.302 C 
ATOM      6  O   UNL     1       3.038  -4.158   2.307  0.00  0.00    -0.253 OA
ATOM      7  N   UNL     1       1.859  -2.652   1.217  0.00  0.00    -0.290 N 
ATOM      8  H   UNL     1       3.276  -5.370   0.237  0.00  0.00    +0.153 HD
ATOM      9  H   UNL     1       1.754  -2.135   2.031  0.00  0.00    +0.151 HD
ENDROOT
BRANCH   1  14
ATOM     10  C   UNL     1      -0.017   1.382   0.010  0.00  0.00    +0.003 A 
ATOM     11  C   UNL     1       1.194   2.059   0.002  0.00  0.00    +0.020 A 
ATOM     12  C   UNL     1       2.370   1.334  -0.013  0.00  0.00    +0.111 A 
ATOM     13  N   UNL     1       2.350   0.015  -0.021  0.00  0.00    -0.258 NA
ATOM     14  C   UNL     1       1.218  -0.661  -0.014  0.00  0.00    +0.062 A 
ATOM     15  C   UNL     1       0.002  -0.004   0.002  0.00  0.00    +0.025 A 
ENDBRANCH   1  14
BRANCH   3  16
ATOM     16  C   UNL     1       0.809  -4.807  -1.299  0.00  0.00    +0.436 C 
ATOM     17  F   UNL     1       0.274  -4.442  -2.539  0.00  0.00    -0.166 F 
ATOM     18  F   UNL     1       0.916  -6.200  -1.229  0.00  0.00    -0.166 F 
ATOM     19  F   UNL     1      -0.029  -4.352  -0.276  0.00  0.00    -0.166 F 
ENDBRANCH   3  16
BRANCH   3  20
ATOM     20  O   UNL     1       3.056  -4.648  -2.180  0.00  0.00    -0.364 OA
ATOM     21  H   UNL     1       3.175  -5.607  -2.192  0.00  0.00    +0.212 HD
ENDBRANCH   3  20
BRANCH   2  22
ATOM     22  C   UNL     1       3.454  -2.036  -1.162  0.00  0.00    +0.180 C 
ATOM     23  O   UNL     1       4.373  -2.641  -0.648  0.00  0.00    -0.291 OA
BRANCH  22  24
ATOM     24  C   UNL     1       3.672  -0.753  -1.710  0.00  0.00    +0.055 A 
ATOM     25  C   UNL     1       4.849  -0.013  -1.770  0.00  0.00    +0.019 A 
ATOM     26  C   UNL     1       4.748   1.217  -2.370  0.00  0.00    +0.008 A 
ATOM     27  C   UNL     1       3.545   1.620  -2.853  0.00  0.00    +0.046 A 
ATOM     28  S   UNL     1       2.513   0.338  -2.513  0.00  0.00    -0.094 S 
ENDBRANCH  22  24
ENDBRANCH   2  22
TORSDOF 5
