REMARK  Name = ZINC09548362
REMARK  7 active torsions:
REMARK  status: ('A' for Active; 'I' for Inactive)
REMARK    1  A    between atoms: C_1  and  N_52
REMARK    2  A    between atoms: C_2  and  C_3
REMARK    3  A    between atoms: C_2  and  N_52
REMARK    4  A    between atoms: C_10  and  N_11
REMARK    5  A    between atoms: C_10  and  N_52
REMARK    6  A    between atoms: C_14  and  C_18
REMARK    7  A    between atoms: C_14  and  C_24
REMARK                            x       y       z     vdW  Elec       q    Type
REMARK                         _______ _______ _______ _____ _____    ______ ____
ROOT
ATOM      1  N   UNL     1      -1.784   0.979  -0.846  0.00  0.00    -0.241 N 
ATOM      2  C   UNL     1      -2.734   0.993  -1.802  0.00  0.00    +0.254 C 
ATOM      3  O   UNL     1      -3.834   0.487  -1.748  0.00  0.00    -0.272 OA
ATOM      4  C   UNL     1      -2.141   1.775  -2.957  0.00  0.00    +0.164 C 
ATOM      5  N   UNL     1      -0.797   2.138  -2.475  0.00  0.00    -0.278 N 
ATOM      6  C   UNL     1      -0.682   1.630  -1.235  0.00  0.00    +0.308 C 
ATOM      7  O   UNL     1       0.312   1.749  -0.546  0.00  0.00    -0.252 OA
ATOM      8  H   UNL     1      -0.126   2.645  -2.958  0.00  0.00    +0.152 HD
ENDROOT
BRANCH   4   9
ATOM      9  C   UNL     1      -2.955   3.011  -3.239  0.00  0.00    -0.011 A 
ATOM     10  C   UNL     1      -2.329   4.236  -3.371  0.00  0.00    +0.006 A 
ATOM     11  C   UNL     1      -3.075   5.370  -3.634  0.00  0.00    +0.000 A 
ATOM     12  C   UNL     1      -4.449   5.279  -3.757  0.00  0.00    +0.000 A 
ATOM     13  C   UNL     1      -5.076   4.055  -3.620  0.00  0.00    +0.000 A 
ATOM     14  C   UNL     1      -4.329   2.921  -3.361  0.00  0.00    +0.006 A 
ENDBRANCH   4   9
BRANCH   4  15
ATOM     15  C   UNL     1      -2.047   0.911  -4.188  0.00  0.00    -0.011 A 
ATOM     16  C   UNL     1      -3.166   0.244  -4.651  0.00  0.00    +0.006 A 
ATOM     17  C   UNL     1      -3.081  -0.545  -5.783  0.00  0.00    +0.000 A 
ATOM     18  C   UNL     1      -1.875  -0.674  -6.447  0.00  0.00    +0.000 A 
ATOM     19  C   UNL     1      -0.755  -0.012  -5.980  0.00  0.00    +0.000 A 
ATOM     20  C   UNL     1      -0.841   0.781  -4.851  0.00  0.00    +0.006 A 
ENDBRANCH   4  15
BRANCH   1  21
ATOM     21  C   UNL     1      -1.937   0.326   0.457  0.00  0.00    +0.043 C 
BRANCH  21  23
ATOM     22  C   UNL     1      -1.448   2.162   1.957  0.00  0.00    -0.093 C 
ATOM     23  N   UNL     1      -2.515   1.299   1.408  0.00  0.00    +0.391 N 
ATOM     24  H   UNL     1      -3.197   1.885   0.912  0.00  0.00    -0.079 HD
BRANCH  23  25
ATOM     25  C   UNL     1      -3.202   0.585   2.505  0.00  0.00    -0.041 C 
BRANCH  25  26
ATOM     26  C   UNL     1      -3.965   1.587   3.333  0.00  0.00    -0.064 A 
ATOM     27  C   UNL     1      -3.362   2.180   4.427  0.00  0.00    +0.003 A 
ATOM     28  C   UNL     1      -4.060   3.103   5.184  0.00  0.00    +0.015 A 
ATOM     29  C   UNL     1      -5.364   3.425   4.854  0.00  0.00    +0.018 A 
ATOM     30  C   UNL     1      -5.968   2.827   3.762  0.00  0.00    +0.015 A 
ATOM     31  C   UNL     1      -5.268   1.909   3.002  0.00  0.00    +0.003 A 
ATOM     32 BR   UNL     1      -6.320   4.682   5.893  0.00  0.00    -0.050 Br
ENDBRANCH  25  26
ENDBRANCH  23  25
ENDBRANCH  21  23
ENDBRANCH   1  21
TORSDOF 6
