REMARK  Name = ZINC13032265
REMARK  13 active torsions:
REMARK  status: ('A' for Active; 'I' for Inactive)
REMARK    1  A    between atoms: C_1  and  C_2
REMARK    2  A    between atoms: C_2  and  C_3
REMARK    3  A    between atoms: C_3  and  C_4
REMARK    4  A    between atoms: C_3  and  C_5
REMARK    5  A    between atoms: C_3  and  N_6
REMARK    6  A    between atoms: C_7  and  C_9
REMARK    7  A    between atoms: C_9  and  C_11
REMARK    8  A    between atoms: C_9  and  N_18
REMARK    9  A    between atoms: C_14  and  O_17
REMARK   10  A    between atoms: N_18  and  C_19
REMARK   11  A    between atoms: C_19  and  C_20
REMARK   12  A    between atoms: C_29  and  C_31
REMARK   13  A    between atoms: C_31  and  N_32
REMARK                            x       y       z     vdW  Elec       q    Type
REMARK                         _______ _______ _______ _____ _____    ______ ____
ROOT
ATOM      1  N   UNL     1      -5.687   2.612  -3.122  0.00  0.00    -0.280 N 
ATOM      2  C   UNL     1      -4.903   2.809  -4.200  0.00  0.00    +0.238 C 
ATOM      3  O   UNL     1      -5.401   2.913  -5.301  0.00  0.00    -0.274 OA
ENDROOT
BRANCH   1   4
ATOM      4  C   UNL     1      -7.129   2.416  -3.291  0.00  0.00    +0.193 C 
BRANCH   4   5
ATOM      5  C   UNL     1      -7.865   3.619  -2.761  0.00  0.00    -0.018 A 
ATOM      6  C   UNL     1      -7.735   3.979  -1.433  0.00  0.00    +0.009 A 
ATOM      7  C   UNL     1      -8.405   5.085  -0.946  0.00  0.00    +0.046 A 
ATOM      8  C   UNL     1      -9.218   5.828  -1.790  0.00  0.00    +0.117 A 
ATOM      9  C   UNL     1      -9.351   5.462  -3.121  0.00  0.00    +0.046 A 
ATOM     10  C   UNL     1      -8.675   4.359  -3.604  0.00  0.00    +0.009 A 
BRANCH   8  11
ATOM     11  O   UNL     1      -9.883   6.913  -1.312  0.00  0.00    -0.507 OA
ATOM     12  H   UNL     1     -10.762   6.713  -0.963  0.00  0.00    +0.292 HD
ENDBRANCH   8  11
ENDBRANCH   4   5
BRANCH   4  14
ATOM     13  N   UNL     1      -8.603   0.455  -2.970  0.00  0.00    -0.308 N 
ATOM     14  C   UNL     1      -7.561   1.188  -2.530  0.00  0.00    +0.239 C 
ATOM     15  O   UNL     1      -6.971   0.860  -1.523  0.00  0.00    -0.273 OA
ATOM     16  H   UNL     1      -9.075   0.718  -3.776  0.00  0.00    +0.149 HD
BRANCH  13  17
ATOM     17  C   UNL     1      -9.022  -0.738  -2.232  0.00  0.00    +0.029 C 
ATOM     18  C   UNL     1      -7.865  -1.737  -2.176  0.00  0.00    +0.031 C 
ATOM     19  C   UNL     1      -9.423  -0.343  -0.809  0.00  0.00    +0.031 C 
BRANCH  17  21
ATOM     20  C   UNL     1     -10.656  -2.627  -2.166  0.00  0.00    +0.006 C 
ATOM     21  C   UNL     1     -10.218  -1.381  -2.938  0.00  0.00    +0.022 C 
ENDBRANCH  17  21
ENDBRANCH  13  17
ENDBRANCH   4  14
ENDBRANCH   1   4
BRANCH   1  22
ATOM     22  C   UNL     1      -5.097   2.595  -1.781  0.00  0.00    +0.144 C 
BRANCH  22  23
ATOM     23  C   UNL     1      -3.998   1.566  -1.728  0.00  0.00    -0.026 A 
ATOM     24  C   UNL     1      -4.234   0.281  -2.180  0.00  0.00    +0.009 A 
ATOM     25  C   UNL     1      -3.227  -0.665  -2.139  0.00  0.00    +0.050 A 
ATOM     26  C   UNL     1      -1.981  -0.330  -1.634  0.00  0.00    +0.166 A 
ATOM     27  C   UNL     1      -1.745   0.963  -1.174  0.00  0.00    +0.167 A 
ATOM     28  C   UNL     1      -2.757   1.908  -1.223  0.00  0.00    +0.054 A 
ATOM     29  O   UNL     1      -0.456   1.040  -0.731  0.00  0.00    -0.453 OA
ATOM     30  C   UNL     1      -0.031  -0.323  -0.546  0.00  0.00    +0.466 C 
ATOM     31  O   UNL     1      -0.840  -1.063  -1.480  0.00  0.00    -0.453 OA
ENDBRANCH  22  23
ENDBRANCH   1  22
BRANCH   2  32
ATOM     32  C   UNL     1      -3.407   2.899  -4.038  0.00  0.00    +0.241 C 
BRANCH  32  33
ATOM     33  N   UNL     1      -2.796   3.245  -5.324  0.00  0.00    -0.235 N 
ATOM     34  C   UNL     1      -2.362   2.368  -6.290  0.00  0.00    +0.090 A 
ATOM     35  C   UNL     1      -2.346   0.982  -6.400  0.00  0.00    +0.029 A 
ATOM     36  C   UNL     1      -1.827   0.396  -7.520  0.00  0.00    +0.002 A 
ATOM     37  C   UNL     1      -1.324   1.172  -8.556  0.00  0.00    +0.002 A 
ATOM     38  C   UNL     1      -1.333   2.534  -8.475  0.00  0.00    +0.032 A 
ATOM     39  C   UNL     1      -1.855   3.160  -7.335  0.00  0.00    +0.113 A 
ATOM     40  N   UNL     1      -1.996   4.451  -6.975  0.00  0.00    -0.129 NA
ATOM     41  N   UNL     1      -2.540   4.534  -5.812  0.00  0.00    -0.064 NA
ENDBRANCH  32  33
ENDBRANCH   2  32
TORSDOF 10
