REMARK  Name = ZINC15329527
REMARK  7 active torsions:
REMARK  status: ('A' for Active; 'I' for Inactive)
REMARK    1  A    between atoms: C_1  and  C_2
REMARK    2  A    between atoms: C_2  and  C_4
REMARK    3  A    between atoms: C_2  and  N_11
REMARK    4  A    between atoms: N_11  and  S_12
REMARK    5  A    between atoms: S_12  and  C_15
REMARK    6  A    between atoms: C_18  and  S_21
REMARK    7  A    between atoms: S_21  and  N_24
REMARK                            x       y       z     vdW  Elec       q    Type
REMARK                         _______ _______ _______ _____ _____    ______ ____
ROOT
ATOM      1  S   UNL     1      -0.236  -1.040   2.489  0.00  0.00    +0.059 S 
ATOM      2  O   UNL     1       0.684  -1.485   3.476  0.00  0.00    -0.153 OA
ATOM      3  O   UNL     1      -1.204  -0.034   2.749  0.00  0.00    -0.153 OA
ENDROOT
BRANCH   1   4
ATOM      4  C   UNL     1      -1.122  -2.464   1.948  0.00  0.00    +0.105 A 
ATOM      5  C   UNL     1      -2.375  -2.325   1.382  0.00  0.00    +0.030 A 
ATOM      6  C   UNL     1      -3.070  -3.442   0.958  0.00  0.00    +0.030 A 
ATOM      7  C   UNL     1      -2.512  -4.698   1.100  0.00  0.00    +0.105 A 
ATOM      8  C   UNL     1      -1.258  -4.838   1.666  0.00  0.00    +0.030 A 
ATOM      9  C   UNL     1      -0.561  -3.720   2.086  0.00  0.00    +0.030 A 
BRANCH   7  10
ATOM     10  S   UNL     1      -3.398  -6.122   0.560  0.00  0.00    +0.056 S 
ATOM     11  O   UNL     1      -2.890  -7.222   1.303  0.00  0.00    -0.153 OA
ATOM     12  O   UNL     1      -4.775  -5.770   0.566  0.00  0.00    -0.153 OA
BRANCH  10  13
ATOM     13  N   UNL     1      -2.984  -6.387  -1.021  0.00  0.00    -0.204 NA
ATOM     14  H   UNL     1      -2.985  -7.289  -1.378  0.00  0.00    +0.144 HD
ATOM     15  H   UNL     1      -2.741  -5.640  -1.590  0.00  0.00    +0.144 HD
ENDBRANCH  10  13
ENDBRANCH   7  10
ENDBRANCH   1   4
BRANCH   1  16
ATOM     16  N   UNL     1       0.667  -0.509   1.206  0.00  0.00    -0.183 NA
ATOM     17  H   UNL     1       1.635  -0.532   1.252  0.00  0.00    +0.149 HD
BRANCH  16  19
ATOM     18  C   UNL     1      -0.074   1.523   0.064  0.00  0.00    +0.031 C 
ATOM     19  C   UNL     1       0.002  -0.004   0.002  0.00  0.00    +0.105 C 
BRANCH  19  20
ATOM     20  C   UNL     1       0.786  -0.419  -1.216  0.00  0.00    -0.011 A 
ATOM     21  C   UNL     1       2.146  -0.650  -1.118  0.00  0.00    +0.006 A 
ATOM     22  C   UNL     1       2.865  -1.031  -2.235  0.00  0.00    +0.000 A 
ATOM     23  C   UNL     1       2.225  -1.181  -3.451  0.00  0.00    +0.001 A 
ATOM     24  C   UNL     1       0.866  -0.951  -3.551  0.00  0.00    +0.020 A 
ATOM     25  C   UNL     1       0.145  -0.575  -2.432  0.00  0.00    +0.046 A 
ATOM     26 CL   UNL     1      -1.564  -0.292  -2.555  0.00  0.00    -0.083 Cl
ENDBRANCH  19  20
ENDBRANCH  16  19
ENDBRANCH   1  16
TORSDOF 6
