REMARK  Name = ZINC39959200
REMARK  5 active torsions:
REMARK  status: ('A' for Active; 'I' for Inactive)
REMARK    1  A    between atoms: C_1  and  O_2
REMARK    2  A    between atoms: O_2  and  C_3
REMARK    3  A    between atoms: C_6  and  C_11
REMARK    4  A    between atoms: C_7  and  O_9
REMARK    5  A    between atoms: O_9  and  C_10
REMARK                            x       y       z     vdW  Elec       q    Type
REMARK                         _______ _______ _______ _____ _____    ______ ____
ROOT
ATOM      1  C   UNL     1      -4.989  -2.621   0.037  0.00  0.00    +0.047 C 
ATOM      2  C   UNL     1      -5.851  -2.112  -1.125  0.00  0.00    +0.105 C 
ATOM      3  C   UNL     1      -6.410  -0.751  -0.833  0.00  0.00    +0.215 C 
ATOM      4  O   UNL     1      -6.894  -0.130  -1.756  0.00  0.00    -0.276 OA
ATOM      5  N   UNL     1      -6.412  -0.174   0.376  0.00  0.00    -0.294 N 
ATOM      6  C   UNL     1      -5.750  -0.783   1.513  0.00  0.00    +0.190 C 
ATOM      7  C   UNL     1      -5.726  -2.307   1.333  0.00  0.00    +0.129 C 
ATOM      8  C   UNL     1      -5.140  -2.968   2.539  0.00  0.00    +0.257 C 
ATOM      9  O   UNL     1      -4.338  -4.040   2.394  0.00  0.00    -0.270 OA
ATOM     10  N   UNL     1      -5.404  -2.507   3.740  0.00  0.00    -0.177 NA
ATOM     11  C   UNL     1      -6.198  -1.402   3.861  0.00  0.00    +0.236 A 
ATOM     12  N   UNL     1      -6.393  -0.534   2.796  0.00  0.00    -0.288 N 
ATOM     13  C   UNL     1      -7.216   0.454   3.234  0.00  0.00    +0.072 A 
ATOM     14  C   UNL     1      -7.728   1.598   2.631  0.00  0.00    +0.028 A 
ATOM     15  C   UNL     1      -8.564   2.396   3.396  0.00  0.00    +0.002 A 
ATOM     16  C   UNL     1      -8.884   2.082   4.705  0.00  0.00    +0.002 A 
ATOM     17  C   UNL     1      -8.388   0.952   5.330  0.00  0.00    +0.030 A 
ATOM     18  C   UNL     1      -7.540   0.130   4.578  0.00  0.00    +0.091 A 
ATOM     19  N   UNL     1      -6.879  -0.982   4.896  0.00  0.00    -0.210 NA
ATOM     20  H   UNL     1      -6.869   0.674   0.494  0.00  0.00    +0.151 HD
ENDROOT
BRANCH   1  24
ATOM     21  C   UNL     1      -1.200  -0.637   0.010  0.00  0.00    +0.124 A 
ATOM     22  C   UNL     1      -2.369   0.088  -0.178  0.00  0.00    +0.046 A 
ATOM     23  C   UNL     1      -3.591  -0.556  -0.170  0.00  0.00    +0.011 A 
ATOM     24  C   UNL     1      -3.654  -1.922   0.027  0.00  0.00    -0.001 A 
ATOM     25  C   UNL     1      -2.489  -2.651   0.216  0.00  0.00    +0.127 A 
ATOM     26  C   UNL     1      -1.260  -2.009   0.201  0.00  0.00    +0.091 A 
BRANCH  21  28
ATOM     27  C   UNL     1      -0.011   1.411  -0.201  0.00  0.00    +0.277 C 
ATOM     28  O   UNL     1       0.002  -0.004   0.001  0.00  0.00    -0.495 OA
ENDBRANCH  21  28
BRANCH  25  29
ATOM     29  O   UNL     1      -2.551  -3.995   0.409  0.00  0.00    -0.495 OA
ATOM     30  C   UNL     1      -1.312  -4.682   0.597  0.00  0.00    +0.277 C 
ENDBRANCH  25  29
ENDBRANCH   1  24
TORSDOF 3
