REMARK  Name = ZINC64810858
REMARK  3 active torsions:
REMARK  status: ('A' for Active; 'I' for Inactive)
REMARK    1  A    between atoms: N_11  and  C_12
REMARK    2  A    between atoms: C_12  and  C_13
REMARK    3  A    between atoms: C_13  and  C_14
REMARK                            x       y       z     vdW  Elec       q    Type
REMARK                         _______ _______ _______ _____ _____    ______ ____
ROOT
ATOM      1  C   UNL     1       6.615   1.156   1.385  0.00  0.00    +0.220 C 
ATOM      2  O   UNL     1       7.124   1.474   0.331  0.00  0.00    -0.275 OA
ATOM      3  N   UNL     1       7.204   1.498   2.548  0.00  0.00    -0.268 N 
ATOM      4  C   UNL     1       8.395   2.217   2.539  0.00  0.00    +0.163 A 
ATOM      5  C   UNL     1       9.008   2.567   3.756  0.00  0.00    +0.170 A 
ATOM      6  N   UNL     1      10.132   3.244   3.768  0.00  0.00    -0.230 NA
ATOM      7  C   UNL     1      10.703   3.606   2.611  0.00  0.00    +0.091 A 
ATOM      8  C   UNL     1      11.907   4.331   2.595  0.00  0.00    +0.030 A 
ATOM      9  C   UNL     1      12.465   4.686   1.405  0.00  0.00    +0.002 A 
ATOM     10  C   UNL     1      11.860   4.341   0.199  0.00  0.00    +0.002 A 
ATOM     11  C   UNL     1      10.694   3.639   0.176  0.00  0.00    +0.030 A 
ATOM     12  C   UNL     1      10.088   3.255   1.384  0.00  0.00    +0.091 A 
ATOM     13  N   UNL     1       8.944   2.560   1.391  0.00  0.00    -0.227 NA
ATOM     14 CL   UNL     1       8.271   2.099   5.257  0.00  0.00    -0.058 Cl
ATOM     15  H   UNL     1       6.797   1.244   3.391  0.00  0.00    +0.156 HD
ENDROOT
BRANCH   1  16
ATOM     16  C   UNL     1       5.324   0.378   1.394  0.00  0.00    +0.119 C 
BRANCH  16  17
ATOM     17  C   UNL     1       4.873   0.121  -0.045  0.00  0.00    +0.153 C 
BRANCH  17  28
ATOM     18  C   UNL     1      -0.017   1.363   0.009  0.00  0.00    +0.001 A 
ATOM     19  C   UNL     1       1.170   2.086   0.002  0.00  0.00    +0.002 A 
ATOM     20  C   UNL     1       2.388   1.444  -0.013  0.00  0.00    +0.028 A 
ATOM     21  C   UNL     1       2.432   0.053  -0.021  0.00  0.00    +0.071 A 
ATOM     22  C   UNL     1       1.224  -0.673  -0.013  0.00  0.00    +0.048 A 
ATOM     23  C   UNL     1       0.002  -0.004   0.002  0.00  0.00    +0.014 A 
ATOM     24  C   UNL     1       1.318  -2.143  -0.021  0.00  0.00    +0.208 A 
ATOM     25  O   UNL     1       0.324  -2.850  -0.016  0.00  0.00    -0.286 OA
ATOM     26  C   UNL     1       2.628  -2.695  -0.037  0.00  0.00    +0.184 A 
ATOM     27  N   UNL     1       3.669  -1.916  -0.043  0.00  0.00    -0.175 NA
ATOM     28  N   UNL     1       3.619  -0.635  -0.036  0.00  0.00    -0.263 N 
ENDBRANCH  17  28
ENDBRANCH  16  17
ENDBRANCH   1  16
TORSDOF 3
