REMARK  Name = ZINC36280548
REMARK  4 active torsions:
REMARK  status: ('A' for Active; 'I' for Inactive)
REMARK    1  A    between atoms: N_8  and  N_9
REMARK    2  A    between atoms: C_10  and  C_12
REMARK    3  A    between atoms: C_14  and  N_20
REMARK    4  A    between atoms: C_22  and  O_24
REMARK                            x       y       z     vdW  Elec       q    Type
REMARK                         _______ _______ _______ _____ _____    ______ ____
ROOT
ATOM      1  N   UNL     1      -3.134  -1.905   0.020  0.00  0.00    -0.201 N 
ATOM      2  C   UNL     1      -4.471  -1.733   0.034  0.00  0.00    +0.283 C 
ATOM      3  O   UNL     1      -4.939  -0.611   0.044  0.00  0.00    -0.267 OA
ATOM      4  H   UNL     1      -2.760  -2.800   0.012  0.00  0.00    +0.178 HD
ENDROOT
BRANCH   1  12
ATOM      5  C   UNL     1      -0.017   1.383   0.010  0.00  0.00    +0.032 A 
ATOM      6  C   UNL     1       1.175   2.085   0.002  0.00  0.00    +0.043 A 
ATOM      7  C   UNL     1       2.384   1.407  -0.014  0.00  0.00    +0.042 A 
ATOM      8  C   UNL     1       2.419   0.028  -0.022  0.00  0.00    +0.068 A 
ATOM      9  C   UNL     1       1.226  -0.703  -0.014  0.00  0.00    +0.095 A 
ATOM     10  C   UNL     1       0.002  -0.004   0.002  0.00  0.00    +0.035 A 
ATOM     11  C   UNL     1      -1.050  -1.047   0.006  0.00  0.00    +0.152 C 
ATOM     12  N   UNL     1      -2.352  -0.879   0.019  0.00  0.00    -0.174 NA
ATOM     13  C   UNL     1      -0.299  -2.318  -0.008  0.00  0.00    +0.241 C 
ATOM     14  N   UNL     1       0.978  -2.040  -0.019  0.00  0.00    -0.210 NA
ATOM     15 CL   UNL     1       3.944  -0.801  -0.042  0.00  0.00    -0.081 Cl
ATOM     16 CL   UNL     1       1.156   3.821   0.011  0.00  0.00    -0.083 Cl
BRANCH  13  17
ATOM     17  O   UNL     1      -0.841  -3.559  -0.010  0.00  0.00    -0.491 OA
ATOM     18  H   UNL     1      -0.189  -4.273  -0.020  0.00  0.00    +0.294 HD
ENDBRANCH  13  17
ENDBRANCH   1  12
BRANCH   2  19
ATOM     19  C   UNL     1      -5.368  -2.909   0.035  0.00  0.00    +0.149 A 
ATOM     20  C   UNL     1      -6.748  -2.723   0.043  0.00  0.00    +0.094 A 
ATOM     21  C   UNL     1      -7.580  -3.843   0.044  0.00  0.00    +0.067 A 
ATOM     22  C   UNL     1      -6.990  -5.106   0.038  0.00  0.00    +0.100 A 
ATOM     23  C   UNL     1      -5.608  -5.208   0.030  0.00  0.00    +0.150 A 
ATOM     24  N   UNL     1      -4.849  -4.133   0.024  0.00  0.00    -0.228 NA
ATOM     25 CL   UNL     1      -4.867  -6.778   0.022  0.00  0.00    -0.060 Cl
ATOM     26 CL   UNL     1      -7.976  -6.535   0.039  0.00  0.00    -0.078 Cl
ATOM     27 CL   UNL     1      -7.423  -1.124   0.052  0.00  0.00    -0.079 Cl
BRANCH  21  28
ATOM     28  N   UNL     1      -8.967  -3.702   0.052  0.00  0.00    -0.356 N 
ATOM     29  H   UNL     1      -9.364  -2.818   0.057  0.00  0.00    +0.142 HD
ATOM     30  H   UNL     1      -9.534  -4.489   0.053  0.00  0.00    +0.142 HD
ENDBRANCH  21  28
ENDBRANCH   2  19
TORSDOF 4
