REMARK  Name = ZINC23192455
REMARK  8 active torsions:
REMARK  status: ('A' for Active; 'I' for Inactive)
REMARK    1  A    between atoms: C_1  and  N_2
REMARK    2  A    between atoms: N_2  and  C_3
REMARK    3  A    between atoms: N_2  and  C_4
REMARK    4  A    between atoms: C_4  and  C_6
REMARK    5  A    between atoms: C_4  and  C_25
REMARK    6  A    between atoms: C_6  and  N_7
REMARK    7  A    between atoms: C_8  and  C_10
REMARK    8  A    between atoms: C_10  and  N_11
REMARK                            x       y       z     vdW  Elec       q    Type
REMARK                         _______ _______ _______ _____ _____    ______ ____
ROOT
ATOM      1  N   UNL     1      -1.208   2.645   0.344  0.00  0.00    -0.315 N 
ATOM      2  C   UNL     1      -2.141   3.370   0.994  0.00  0.00    +0.233 C 
ATOM      3  O   UNL     1      -2.499   3.040   2.105  0.00  0.00    -0.274 OA
ATOM      4  H   UNL     1      -0.883   2.944  -0.663  0.00  0.00    +0.149 HD
ENDROOT
BRANCH   1   5
ATOM      5  C   UNL     1      -0.628   1.460   0.979  0.00  0.00    +0.093 C 
BRANCH   5   6
ATOM      6  C   UNL     1       0.515   0.925   0.114  0.00  0.00    -0.020 C 
BRANCH   6   7
ATOM      7  C   UNL     1       0.995  -0.390   0.671  0.00  0.00    -0.041 A 
ATOM      8  C   UNL     1       2.187  -0.452   1.368  0.00  0.00    +0.003 A 
ATOM      9  C   UNL     1       2.627  -1.659   1.879  0.00  0.00    +0.000 A 
ATOM     10  C   UNL     1       1.875  -2.804   1.694  0.00  0.00    +0.001 A 
ATOM     11  C   UNL     1       0.682  -2.743   0.998  0.00  0.00    +0.020 A 
ATOM     12  C   UNL     1       0.239  -1.535   0.491  0.00  0.00    +0.043 A 
ATOM     13 CL   UNL     1      -1.262  -1.456  -0.378  0.00  0.00    -0.083 Cl
ENDBRANCH   6   7
BRANCH   6  15
ATOM     14  C   UNL     1       1.398   2.952  -0.875  0.00  0.00    -0.096 C 
ATOM     15  N   UNL     1       1.623   1.891   0.116  0.00  0.00    +0.382 N 
ATOM     16  C   UNL     1       1.826   2.456   1.456  0.00  0.00    -0.096 C 
ATOM     17  H   UNL     1       2.540   1.353  -0.167  0.00  0.00    -0.082 HD
ENDBRANCH   6  15
ENDBRANCH   5   6
ENDBRANCH   1   5
BRANCH   2  18
ATOM     18  C   UNL     1      -2.738   4.589   0.341  0.00  0.00    +0.222 C 
BRANCH  18  19
ATOM     19  N   UNL     1      -3.719   5.196   1.244  0.00  0.00    -0.287 N 
ATOM     20  C   UNL     1      -5.018   4.812   1.183  0.00  0.00    +0.203 A 
ATOM     21  N   UNL     1      -5.923   5.321   1.971  0.00  0.00    -0.233 NA
ATOM     22  C   UNL     1      -5.606   6.263   2.874  0.00  0.00    +0.124 A 
ATOM     23  C   UNL     1      -6.369   7.021   3.877  0.00  0.00    +0.046 A 
ATOM     24  C   UNL     1      -7.707   7.045   4.264  0.00  0.00    +0.014 A 
ATOM     25  C   UNL     1      -8.113   7.897   5.268  0.00  0.00    +0.001 A 
ATOM     26  C   UNL     1      -7.194   8.727   5.892  0.00  0.00    +0.004 A 
ATOM     27  C   UNL     1      -5.868   8.714   5.519  0.00  0.00    +0.047 A 
ATOM     28  C   UNL     1      -5.437   7.862   4.508  0.00  0.00    +0.138 A 
ATOM     29  O   UNL     1      -4.227   7.644   3.952  0.00  0.00    -0.448 OA
ATOM     30  C   UNL     1      -4.292   6.706   2.985  0.00  0.00    +0.219 A 
ATOM     31  C   UNL     1      -3.324   6.139   2.126  0.00  0.00    +0.297 A 
ATOM     32  O   UNL     1      -2.158   6.492   2.182  0.00  0.00    -0.264 OA
ENDBRANCH  18  19
ENDBRANCH   2  18
TORSDOF 6
