REMARK  Name = ZINC05923752
REMARK  5 active torsions:
REMARK  status: ('A' for Active; 'I' for Inactive)
REMARK    1  A    between atoms: C_1  and  C_2
REMARK    2  A    between atoms: C_2  and  C_3
REMARK    3  A    between atoms: C_3  and  S_4
REMARK    4  A    between atoms: S_4  and  C_5
REMARK    5  A    between atoms: C_12  and  C_22
REMARK                            x       y       z     vdW  Elec       q    Type
REMARK                         _______ _______ _______ _____ _____    ______ ____
ROOT
ATOM      1  C   UNL     1       1.641  -2.747   2.702  0.00  0.00    +0.171 A 
ATOM      2  N   UNL     1       1.848  -4.060   3.004  0.00  0.00    -0.322 N 
ATOM      3  C   UNL     1       2.528  -4.404   4.143  0.00  0.00    +0.111 A 
ATOM      4  C   UNL     1       2.993  -3.423   4.963  0.00  0.00    +0.069 A 
ATOM      5  C   UNL     1       2.753  -2.075   4.617  0.00  0.00    +0.280 A 
ATOM      6  N   UNL     1       2.088  -1.789   3.487  0.00  0.00    -0.185 NA
ATOM      7  O   UNL     1       3.153  -1.175   5.340  0.00  0.00    -0.265 OA
ATOM      8  C   UNL     1       3.752  -3.758   6.212  0.00  0.00    +0.092 C 
ATOM      9  C   UNL     1       3.541  -5.195   6.614  0.00  0.00    +0.024 C 
ATOM     10  C   UNL     1       3.870  -5.569   7.928  0.00  0.00    +0.162 C 
ATOM     11  C   UNL     1       3.712  -6.989   8.399  0.00  0.00    +0.080 C 
ATOM     12  C   UNL     1       3.867  -7.931   7.200  0.00  0.00    +0.014 C 
ATOM     13  C   UNL     1       2.839  -7.536   6.137  0.00  0.00    +0.051 C 
ATOM     14  C   UNL     1       3.053  -6.097   5.736  0.00  0.00    +0.017 C 
ATOM     15  N   UNL     1       2.736  -5.726   4.457  0.00  0.00    -0.304 N 
ATOM     16  O   UNL     1       4.290  -4.729   8.700  0.00  0.00    -0.292 OA
ATOM     17  H   UNL     1       2.658  -6.402   3.766  0.00  0.00    +0.153 HD
ATOM     18  H   UNL     1       1.513  -4.752   2.412  0.00  0.00    +0.169 HD
ENDROOT
BRANCH   8  19
ATOM     19  C   UNL     1       5.222  -3.524   5.974  0.00  0.00    -0.032 A 
ATOM     20  C   UNL     1       5.897  -4.212   4.977  0.00  0.00    +0.024 A 
ATOM     21  C   UNL     1       7.245  -3.972   4.788  0.00  0.00    +0.111 A 
ATOM     22  N   UNL     1       7.887  -3.101   5.542  0.00  0.00    -0.263 NA
ATOM     23  C   UNL     1       7.277  -2.430   6.499  0.00  0.00    +0.111 A 
ATOM     24  C   UNL     1       5.929  -2.613   6.742  0.00  0.00    +0.024 A 
ENDBRANCH   8  19
BRANCH   1  25
ATOM     25  S   UNL     1       0.767  -2.325   1.232  0.00  0.00    -0.088 S 
BRANCH  25  26
ATOM     26  C   UNL     1       0.742  -0.511   1.242  0.00  0.00    +0.077 C 
BRANCH  26  28
ATOM     27  C   UNL     1      -0.019   1.526   0.010  0.00  0.00    +0.004 C 
ATOM     28  C   UNL     1       0.002  -0.004   0.002  0.00  0.00    +0.008 C 
ENDBRANCH  26  28
ENDBRANCH  25  26
ENDBRANCH   1  25
TORSDOF 4
