REMARK  Name = ZINC16977394
REMARK  9 active torsions:
REMARK  status: ('A' for Active; 'I' for Inactive)
REMARK    1  A    between atoms: C_1  and  N_2
REMARK    2  A    between atoms: C_15  and  C_17
REMARK    3  A    between atoms: N_21  and  C_24
REMARK    4  A    between atoms: C_24  and  C_25
REMARK    5  A    between atoms: C_25  and  C_26
REMARK    6  A    between atoms: C_29  and  O_34
REMARK    7  A    between atoms: C_30  and  O_32
REMARK    8  A    between atoms: O_32  and  C_33
REMARK    9  A    between atoms: O_34  and  C_35
REMARK                            x       y       z     vdW  Elec       q    Type
REMARK                         _______ _______ _______ _____ _____    ______ ____
ROOT
ATOM      1  C   UNL     1       2.171  -0.117   1.099  0.00  0.00    +0.074 A 
ATOM      2  C   UNL     1       2.772   0.586   2.101  0.00  0.00    +0.260 A 
ATOM      3  N   UNL     1       4.100   0.914   1.993  0.00  0.00    -0.275 N 
ATOM      4  C   UNL     1       4.807   0.546   0.909  0.00  0.00    +0.332 A 
ATOM      5  N   UNL     1       4.232  -0.148  -0.090  0.00  0.00    -0.260 N 
ATOM      6  C   UNL     1       2.932  -0.496  -0.021  0.00  0.00    +0.262 A 
ATOM      7  O   UNL     1       2.417  -1.129  -0.926  0.00  0.00    -0.267 OA
ATOM      8  O   UNL     1       5.983   0.845   0.831  0.00  0.00    -0.246 OA
ATOM      9  O   UNL     1       2.066   0.958   3.190  0.00  0.00    -0.267 OA
ATOM     10  H   UNL     1       4.532   1.414   2.703  0.00  0.00    +0.173 HD
ENDROOT
BRANCH   1  25
ATOM     11  C   UNL     1      -0.018   1.465   0.010  0.00  0.00    -0.095 C 
ATOM     12  N   UNL     1       0.002  -0.004   0.002  0.00  0.00    +0.387 N 
ATOM     13  C   UNL     1      -1.377  -0.509  -0.005  0.00  0.00    -0.073 C 
ATOM     14  C   UNL     1      -1.372  -2.009  -0.333  0.00  0.00    +0.019 C 
ATOM     15  C   UNL     1      -0.363  -2.675   0.569  0.00  0.00    -0.022 A 
ATOM     16  C   UNL     1      -0.186  -4.076   0.876  0.00  0.00    +0.003 A 
ATOM     17  C   UNL     1      -0.854  -5.232   0.462  0.00  0.00    +0.010 A 
ATOM     18  C   UNL     1      -0.404  -6.426   0.969  0.00  0.00    +0.001 A 
ATOM     19  C   UNL     1       0.662  -6.495   1.852  0.00  0.00    +0.002 A 
ATOM     20  C   UNL     1       1.342  -5.367   2.279  0.00  0.00    +0.026 A 
ATOM     21  C   UNL     1       0.907  -4.141   1.780  0.00  0.00    +0.047 A 
ATOM     22  N   UNL     1       1.340  -2.863   1.989  0.00  0.00    -0.359 N 
ATOM     23  H   UNL     1       2.078  -2.611   2.566  0.00  0.00    +0.166 HD
ATOM     24  C   UNL     1       0.577  -1.991   1.261  0.00  0.00    +0.011 A 
ATOM     25  C   UNL     1       0.714  -0.488   1.195  0.00  0.00    +0.021 C 
ATOM     26  H   UNL     1       0.479  -0.327  -0.826  0.00  0.00    -0.081 HD
ENDBRANCH   1  25
BRANCH   5  27
ATOM     27  C   UNL     1       5.027  -0.534  -1.259  0.00  0.00    +0.134 C 
BRANCH  27  28
ATOM     28  C   UNL     1       5.662  -1.904  -1.014  0.00  0.00    +0.057 C 
BRANCH  28  29
ATOM     29  C   UNL     1       6.480  -2.301  -2.216  0.00  0.00    -0.042 A 
ATOM     30  C   UNL     1       5.891  -3.009  -3.247  0.00  0.00    +0.007 A 
ATOM     31  C   UNL     1       6.637  -3.376  -4.352  0.00  0.00    +0.049 A 
ATOM     32  C   UNL     1       7.977  -3.033  -4.428  0.00  0.00    +0.161 A 
ATOM     33  C   UNL     1       8.570  -2.320  -3.390  0.00  0.00    +0.162 A 
ATOM     34  C   UNL     1       7.815  -1.951  -2.288  0.00  0.00    +0.053 A 
BRANCH  33  35
ATOM     35  O   UNL     1       9.885  -1.981  -3.460  0.00  0.00    -0.491 OA
ATOM     36  C   UNL     1      10.426  -1.249  -2.358  0.00  0.00    +0.277 C 
ENDBRANCH  33  35
BRANCH  32  37
ATOM     37  O   UNL     1       8.712  -3.393  -5.514  0.00  0.00    -0.491 OA
ATOM     38  C   UNL     1       8.038  -4.124  -6.540  0.00  0.00    +0.277 C 
ENDBRANCH  32  37
ENDBRANCH  28  29
ENDBRANCH  27  28
ENDBRANCH   5  27
TORSDOF 6
