REMARK  Name = ZINC45828568
REMARK  4 active torsions:
REMARK  status: ('A' for Active; 'I' for Inactive)
REMARK    1  A    between atoms: C_5  and  O_8
REMARK    2  A    between atoms: O_8  and  C_9
REMARK    3  A    between atoms: C_9  and  C_11
REMARK    4  A    between atoms: C_11  and  N_12
REMARK                            x       y       z     vdW  Elec       q    Type
REMARK                         _______ _______ _______ _____ _____    ______ ____
ROOT
ATOM      1  N   UNL     1       3.478  -5.088   0.489  0.00  0.00    -0.231 N 
ATOM      2  C   UNL     1       2.457  -5.943   0.363  0.00  0.00    +0.227 C 
ATOM      3  O   UNL     1       1.454  -5.940   1.043  0.00  0.00    -0.275 OA
ATOM      4  C   UNL     1       2.748  -6.912  -0.760  0.00  0.00    +0.095 C 
ATOM      5  C   UNL     1       1.782  -6.593  -1.945  0.00  0.00    +0.025 C 
ATOM      6  C   UNL     1       2.712  -6.924  -3.168  0.00  0.00    +0.016 C 
ATOM      7  C   UNL     1       3.823  -5.907  -2.718  0.00  0.00    +0.025 C 
ATOM      8  C   UNL     1       4.147  -6.458  -1.271  0.00  0.00    +0.095 C 
ATOM      9  C   UNL     1       4.477  -5.283  -0.380  0.00  0.00    +0.227 C 
ATOM     10  O   UNL     1       5.490  -4.620  -0.442  0.00  0.00    -0.275 OA
ATOM     11  C   UNL     1       2.957  -4.666  -2.470  0.00  0.00    -0.027 C 
ATOM     12  C   UNL     1       1.764  -5.061  -2.010  0.00  0.00    -0.027 C 
ENDROOT
BRANCH   1  13
ATOM     13  C   UNL     1       3.498  -4.021   1.493  0.00  0.00    +0.236 C 
BRANCH  13  14
ATOM     14  C   UNL     1       2.875  -2.776   0.915  0.00  0.00    +0.325 C 
ATOM     15  O   UNL     1       2.457  -2.780  -0.218  0.00  0.00    -0.249 OA
BRANCH  14  16
ATOM     16  O   UNL     1       2.785  -1.663   1.661  0.00  0.00    -0.460 OA
BRANCH  16  21
ATOM     17  C   UNL     1      -0.018   1.451   0.010  0.00  0.00    +0.000 C 
ATOM     18  C   UNL     1       1.400   2.058  -0.000  0.00  0.00    +0.000 C 
ATOM     19  C   UNL     1       1.950   2.011   1.399  0.00  0.00    +0.004 C 
ATOM     20  C   UNL     1       2.801   0.753   1.656  0.00  0.00    +0.044 C 
ATOM     21  C   UNL     1       2.183  -0.521   1.050  0.00  0.00    +0.176 C 
ATOM     22  C   UNL     1       0.693  -0.589   1.251  0.00  0.00    +0.044 C 
ATOM     23  C   UNL     1       0.002  -0.004   0.002  0.00  0.00    +0.004 C 
ENDBRANCH  16  21
ENDBRANCH  14  16
ENDBRANCH  13  14
ENDBRANCH   1  13
TORSDOF 4
