REMARK  Name = ZINC40109725
REMARK  10 active torsions:
REMARK  status: ('A' for Active; 'I' for Inactive)
REMARK    1  A    between atoms: C_6  and  C_7
REMARK    2  A    between atoms: C_7  and  O_8
REMARK    3  A    between atoms: O_8  and  C_9
REMARK    4  A    between atoms: C_12  and  C_15
REMARK    5  A    between atoms: C_15  and  C_17
REMARK    6  A    between atoms: N_21  and  C_33
REMARK    7  A    between atoms: C_22  and  C_24
REMARK    8  A    between atoms: C_27  and  N_30
REMARK    9  A    between atoms: C_33  and  C_34
REMARK   10  A    between atoms: C_34  and  O_35
REMARK                            x       y       z     vdW  Elec       q    Type
REMARK                         _______ _______ _______ _____ _____    ______ ____
ROOT
ATOM      1  C   UNL     1      -7.054  -3.885  -3.688  0.00  0.00    +0.076 C 
ATOM      2  C   UNL     1      -8.291  -4.249  -4.101  0.00  0.00    +0.249 C 
ATOM      3  C   UNL     1      -8.261  -4.509  -5.555  0.00  0.00    +0.288 C 
ATOM      4  O   UNL     1      -9.216  -4.854  -6.222  0.00  0.00    -0.266 OA
ATOM      5  N   UNL     1      -7.019  -4.306  -6.032  0.00  0.00    -0.281 N 
ATOM      6  C   UNL     1      -6.167  -3.895  -4.911  0.00  0.00    +0.145 C 
ATOM      7  O   UNL     1      -9.381  -4.359  -3.307  0.00  0.00    -0.282 OA
ENDROOT
BRANCH   6   8
ATOM      8  C   UNL     1      -5.610  -2.516  -5.158  0.00  0.00    -0.022 A 
ATOM      9  C   UNL     1      -6.467  -1.448  -5.343  0.00  0.00    +0.008 A 
ATOM     10  C   UNL     1      -5.956  -0.183  -5.569  0.00  0.00    +0.033 A 
ATOM     11  C   UNL     1      -4.588   0.012  -5.611  0.00  0.00    +0.126 A 
ATOM     12  C   UNL     1      -3.731  -1.056  -5.425  0.00  0.00    +0.033 A 
ATOM     13  C   UNL     1      -4.242  -2.320  -5.194  0.00  0.00    +0.008 A 
BRANCH  11  14
ATOM     14  N   UNL     1      -4.041   1.366  -5.854  0.00  0.00    +0.056 N 
ATOM     15  O   UNL     1      -4.790   2.301  -6.017  0.00  0.00    -0.126 OA
ATOM     16  O   UNL     1      -2.845   1.537  -5.890  0.00  0.00    -0.126 OA
ENDBRANCH  11  14
ENDBRANCH   6   8
BRANCH   1  17
ATOM     17  C   UNL     1      -6.654  -3.541  -2.320  0.00  0.00    +0.195 C 
ATOM     18  O   UNL     1      -7.114  -2.551  -1.783  0.00  0.00    -0.287 OA
BRANCH  17  22
ATOM     19  C   UNL     1      -3.893  -6.002  -0.233  0.00  0.00    +0.121 A 
ATOM     20  C   UNL     1      -4.346  -4.822   0.347  0.00  0.00    +0.046 A 
ATOM     21  C   UNL     1      -5.241  -4.021  -0.326  0.00  0.00    +0.015 A 
ATOM     22  C   UNL     1      -5.694  -4.396  -1.595  0.00  0.00    +0.022 A 
ATOM     23  C   UNL     1      -5.236  -5.583  -2.174  0.00  0.00    +0.015 A 
ATOM     24  C   UNL     1      -4.337  -6.375  -1.496  0.00  0.00    +0.046 A 
BRANCH  19  25
ATOM     25  O   UNL     1      -3.010  -6.788   0.434  0.00  0.00    -0.487 OA
BRANCH  25  26
ATOM     26  C   UNL     1      -2.596  -6.345   1.728  0.00  0.00    +0.264 C 
BRANCH  26  32
ATOM     27  C   UNL     1      -0.268  -7.193   2.082  0.00  0.00    +0.008 A 
ATOM     28  C   UNL     1       0.625  -8.102   2.616  0.00  0.00    +0.020 A 
ATOM     29  C   UNL     1       0.161  -9.158   3.382  0.00  0.00    +0.041 A 
ATOM     30  C   UNL     1      -1.196  -9.302   3.611  0.00  0.00    +0.020 A 
ATOM     31  C   UNL     1      -2.087  -8.391   3.076  0.00  0.00    +0.008 A 
ATOM     32  C   UNL     1      -1.623  -7.337   2.311  0.00  0.00    -0.010 A 
ATOM     33 CL   UNL     1       1.282 -10.301   4.053  0.00  0.00    -0.084 Cl
ENDBRANCH  26  32
ENDBRANCH  25  26
ENDBRANCH  19  25
ENDBRANCH  17  22
ENDBRANCH   1  17
BRANCH   5  34
ATOM     34  C   UNL     1      -6.596  -4.462  -7.426  0.00  0.00    +0.137 C 
BRANCH  34  35
ATOM     35  C   UNL     1      -6.945  -3.196  -8.210  0.00  0.00    +0.175 C 
BRANCH  35  36
ATOM     36  O   UNL     1      -6.107  -2.122  -7.779  0.00  0.00    -0.393 OA
ATOM     37  H   UNL     1      -6.274  -1.286  -8.235  0.00  0.00    +0.209 HD
ENDBRANCH  35  36
ENDBRANCH  34  35
ENDBRANCH   5  34
TORSDOF 10
