REMARK  Name = ZINC22276750
REMARK  1 active torsions:
REMARK  status: ('A' for Active; 'I' for Inactive)
REMARK    1  A    between atoms: C_4  and  C_7
REMARK                            x       y       z     vdW  Elec       q    Type
REMARK                         _______ _______ _______ _____ _____    ______ ____
ROOT
ATOM      1  C   UNL     1       3.711  -0.707  -0.038  0.00  0.00    +0.173 C 
ATOM      2  C   UNL     1       4.046  -1.151   1.363  0.00  0.00    +0.041 C 
ATOM      3  C   UNL     1       3.871  -2.439   1.730  0.00  0.00    +0.019 C 
ATOM      4  C   UNL     1       4.186  -2.903   3.129  0.00  0.00    +0.052 C 
ATOM      5  C   UNL     1       5.325  -2.058   3.705  0.00  0.00    +0.014 C 
ATOM      6  C   UNL     1       4.901  -0.586   3.681  0.00  0.00    +0.080 C 
ATOM      7  C   UNL     1       4.543  -0.201   2.271  0.00  0.00    +0.163 C 
ATOM      8  O   UNL     1       4.686   0.951   1.911  0.00  0.00    -0.292 OA
ATOM      9  N   UNL     1       3.402  -3.347   0.817  0.00  0.00    -0.290 N 
ATOM     10  C   UNL     1       3.464  -3.058  -0.528  0.00  0.00    +0.188 C 
ATOM     11  N   UNL     1       3.610  -1.843  -0.944  0.00  0.00    -0.243 NA
ATOM     12  N   UNL     1       3.368  -4.082  -1.446  0.00  0.00    -0.241 N 
ATOM     13  C   UNL     1       3.428  -3.806  -2.797  0.00  0.00    +0.295 A 
ATOM     14  N   UNL     1       3.579  -2.613  -3.312  0.00  0.00    -0.195 NA
ATOM     15  C   UNL     1       3.594  -2.722  -4.669  0.00  0.00    +0.111 A 
ATOM     16  C   UNL     1       3.724  -1.800  -5.708  0.00  0.00    +0.031 A 
ATOM     17  C   UNL     1       3.699  -2.235  -7.015  0.00  0.00    +0.002 A 
ATOM     18  C   UNL     1       3.545  -3.583  -7.303  0.00  0.00    +0.004 A 
ATOM     19  C   UNL     1       3.416  -4.505  -6.284  0.00  0.00    +0.048 A 
ATOM     20  C   UNL     1       3.440  -4.085  -4.964  0.00  0.00    +0.157 A 
ATOM     21  O   UNL     1       3.346  -4.724  -3.776  0.00  0.00    -0.424 OA
ATOM     22  H   UNL     1       3.029  -4.190   1.117  0.00  0.00    +0.154 HD
ATOM     23  H   UNL     1       3.259  -4.997  -1.143  0.00  0.00    +0.159 HD
ENDROOT
BRANCH   1  27
ATOM     24  C   UNL     1      -0.017   1.378   0.010  0.00  0.00    +0.000 A 
ATOM     25  C   UNL     1       1.171   2.086   0.002  0.00  0.00    +0.000 A 
ATOM     26  C   UNL     1       2.377   1.411  -0.013  0.00  0.00    +0.006 A 
ATOM     27  C   UNL     1       2.396   0.029  -0.020  0.00  0.00    -0.019 A 
ATOM     28  C   UNL     1       1.208  -0.679  -0.012  0.00  0.00    +0.006 A 
ATOM     29  C   UNL     1       0.002  -0.004   0.002  0.00  0.00    +0.000 A 
ENDBRANCH   1  27
TORSDOF 1
