REMARK  Name = ZINC21526806
REMARK  8 active torsions:
REMARK  status: ('A' for Active; 'I' for Inactive)
REMARK    1  A    between atoms: C_1  and  C_2
REMARK    2  A    between atoms: C_11  and  C_24
REMARK    3  A    between atoms: C_11  and  C_25
REMARK    4  A    between atoms: N_12  and  C_15
REMARK    5  A    between atoms: C_15  and  C_16
REMARK    6  A    between atoms: C_21  and  O_22
REMARK    7  A    between atoms: O_22  and  C_23
REMARK    8  A    between atoms: N_27  and  C_28
REMARK                            x       y       z     vdW  Elec       q    Type
REMARK                         _______ _______ _______ _____ _____    ______ ____
ROOT
ATOM      1  C   UNL     1       5.397   6.707 -11.372  0.00  0.00    +0.086 C 
ATOM      2  C   UNL     1       5.480   5.760 -10.203  0.00  0.00    +0.105 A 
ATOM      3  C   UNL     1       4.465   5.459  -9.376  0.00  0.00    +0.071 A 
ATOM      4  C   UNL     1       4.960   4.538  -8.421  0.00  0.00    +0.088 A 
ATOM      5  C   UNL     1       6.300   4.327  -8.746  0.00  0.00    +0.154 A 
ATOM      6  O   UNL     1       6.579   5.086  -9.827  0.00  0.00    -0.458 OA
ATOM      7  C   UNL     1       6.822   3.413  -7.819  0.00  0.00    +0.079 A 
ATOM      8  C   UNL     1       5.814   3.071  -6.967  0.00  0.00    +0.109 A 
ATOM      9  N   UNL     1       4.670   3.782  -7.325  0.00  0.00    -0.331 N 
ATOM     10  C   UNL     1       3.424   3.663  -6.564  0.00  0.00    +0.157 C 
ATOM     11  C   UNL     1       3.344   2.265  -5.950  0.00  0.00    +0.129 C 
ATOM     12  N   UNL     1       4.584   1.874  -5.291  0.00  0.00    -0.276 N 
ATOM     13  C   UNL     1       5.798   2.155  -5.821  0.00  0.00    +0.264 C 
ATOM     14  O   UNL     1       6.821   1.673  -5.370  0.00  0.00    -0.268 OA
ATOM     15  C   UNL     1       3.033   1.256  -7.058  0.00  0.00    +0.043 C 
ENDROOT
BRANCH  11  16
ATOM     16  C   UNL     1       2.226   2.240  -4.941  0.00  0.00    +0.238 C 
ATOM     17  O   UNL     1       1.182   1.681  -5.205  0.00  0.00    -0.273 OA
ATOM     18  N   UNL     1       2.385   2.838  -3.743  0.00  0.00    -0.311 N 
ATOM     19  H   UNL     1       3.296   3.417  -3.535  0.00  0.00    +0.149 HD
BRANCH  18  20
ATOM     20  C   UNL     1       1.344   2.716  -2.720  0.00  0.00    +0.073 C 
ATOM     21  C   UNL     1       0.191   3.678  -3.065  0.00  0.00    +0.022 C 
ATOM     22  C   UNL     1      -0.738   3.951  -1.866  0.00  0.00    +0.002 C 
ATOM     23  C   UNL     1      -1.033   2.708  -1.071  0.00  0.00    +0.000 C 
ATOM     24  C   UNL     1      -0.027   2.623   0.095  0.00  0.00    +0.000 C 
ATOM     25  C   UNL     1       1.266   2.103  -0.325  0.00  0.00    +0.002 C 
ATOM     26  C   UNL     1       1.950   3.004  -1.373  0.00  0.00    +0.022 C 
ENDBRANCH  18  20
ENDBRANCH  11  16
BRANCH  12  27
ATOM     27  C   UNL     1       4.515   1.155  -4.016  0.00  0.00    +0.148 C 
BRANCH  27  28
ATOM     28  C   UNL     1       4.311  -0.315  -4.278  0.00  0.00    +0.012 A 
ATOM     29  C   UNL     1       3.066  -0.885  -4.089  0.00  0.00    +0.009 A 
ATOM     30  C   UNL     1       2.878  -2.232  -4.334  0.00  0.00    +0.001 A 
ATOM     31  C   UNL     1       3.935  -3.015  -4.759  0.00  0.00    +0.004 A 
ATOM     32  C   UNL     1       5.183  -2.451  -4.944  0.00  0.00    +0.046 A 
ATOM     33  C   UNL     1       5.373  -1.098  -4.704  0.00  0.00    +0.125 A 
BRANCH  33  34
ATOM     34  O   UNL     1       6.600  -0.541  -4.886  0.00  0.00    -0.495 OA
ATOM     35  C   UNL     1       7.647  -1.407  -5.326  0.00  0.00    +0.277 C 
ENDBRANCH  33  34
ENDBRANCH  27  28
ENDBRANCH  12  27
TORSDOF 5
