REMARK  Name = ZINC25580044
REMARK  6 active torsions:
REMARK  status: ('A' for Active; 'I' for Inactive)
REMARK    1  A    between atoms: C_6  and  C_7
REMARK    2  A    between atoms: C_16  and  S_18
REMARK    3  A    between atoms: S_18  and  C_19
REMARK    4  A    between atoms: C_19  and  C_20
REMARK    5  A    between atoms: C_20  and  C_21
REMARK    6  A    between atoms: N_26  and  C_27
REMARK                            x       y       z     vdW  Elec       q    Type
REMARK                         _______ _______ _______ _____ _____    ______ ____
ROOT
ATOM      1  C   UNL     1      -7.300  -3.248   0.055  0.00  0.00    +0.004 A 
ATOM      2  C   UNL     1      -8.001  -2.090   0.068  0.00  0.00    +0.056 A 
ATOM      3  S   UNL     1      -6.733  -0.838   0.062  0.00  0.00    -0.076 S 
ATOM      4  C   UNL     1      -5.303  -1.887   0.043  0.00  0.00    +0.117 A 
ATOM      5  C   UNL     1      -5.842  -3.186   0.041  0.00  0.00    +0.080 A 
ATOM      6  C   UNL     1      -4.894  -4.254   0.026  0.00  0.00    +0.261 A 
ATOM      7  O   UNL     1      -5.270  -5.414   0.024  0.00  0.00    -0.267 OA
ATOM      8  N   UNL     1      -3.579  -3.965   0.015  0.00  0.00    -0.301 N 
ATOM      9  H   UNL     1      -2.838  -4.777   0.003  0.00  0.00    +0.171 HD
ATOM     10  C   UNL     1      -3.140  -2.673   0.018  0.00  0.00    +0.170 A 
ATOM     11  N   UNL     1      -3.993  -1.669   0.037  0.00  0.00    -0.216 NA
ENDROOT
BRANCH   1  17
ATOM     12  C   UNL     1      -7.660  -5.530  -0.882  0.00  0.00    +0.011 A 
ATOM     13  C   UNL     1      -8.311  -6.746  -0.875  0.00  0.00    +0.039 A 
ATOM     14  C   UNL     1      -9.309  -6.995   0.053  0.00  0.00    +0.123 A 
ATOM     15  C   UNL     1      -9.654  -6.027   0.983  0.00  0.00    +0.039 A 
ATOM     16  C   UNL     1      -9.005  -4.810   0.987  0.00  0.00    +0.011 A 
ATOM     17  C   UNL     1      -8.000  -4.554   0.054  0.00  0.00    -0.016 A 
ATOM     18  F   UNL     1      -9.947  -8.186   0.053  0.00  0.00    -0.205 F 
ENDBRANCH   1  17
BRANCH  10  19
ATOM     19  S   UNL     1      -1.409  -2.344   0.003  0.00  0.00    -0.087 S 
BRANCH  19  20
ATOM     20  C   UNL     1      -1.433  -0.534   0.013  0.00  0.00    +0.086 C 
BRANCH  20  21
ATOM     21  C   UNL     1       0.002  -0.004   0.002  0.00  0.00    +0.107 C 
BRANCH  21  22
ATOM     22  C   UNL     1      -0.018   1.503   0.010  0.00  0.00    +0.221 C 
ATOM     23  O   UNL     1      -1.076   2.095   0.018  0.00  0.00    -0.275 OA
ATOM     24  N   UNL     1       1.139   2.192   0.003  0.00  0.00    -0.240 N 
ATOM     25  C   UNL     1       1.121   3.540   0.010  0.00  0.00    +0.306 C 
ATOM     26  O   UNL     1       0.061   4.133   0.024  0.00  0.00    -0.252 OA
ATOM     27  N   UNL     1       2.279   4.230   0.003  0.00  0.00    -0.296 N 
ATOM     28  H   UNL     1       2.099   1.655  -0.009  0.00  0.00    +0.159 HD
ATOM     29  H   UNL     1       3.239   3.693  -0.009  0.00  0.00    +0.151 HD
BRANCH  27  30
ATOM     30  C   UNL     1       2.259   5.695   0.011  0.00  0.00    +0.074 C 
ATOM     31  C   UNL     1       2.183   6.230  -1.434  0.00  0.00    +0.022 C 
ATOM     32  C   UNL     1       3.074   7.497  -1.416  0.00  0.00    +0.002 C 
ATOM     33  C   UNL     1       4.242   7.082  -0.488  0.00  0.00    +0.002 C 
ATOM     34  C   UNL     1       3.568   6.236   0.613  0.00  0.00    +0.022 C 
ENDBRANCH  27  30
ENDBRANCH  21  22
ENDBRANCH  20  21
ENDBRANCH  19  20
ENDBRANCH  10  19
TORSDOF 6
