REMARK  Name = ZINC39465240
REMARK  4 active torsions:
REMARK  status: ('A' for Active; 'I' for Inactive)
REMARK    1  A    between atoms: C_1  and  O_2
REMARK    2  A    between atoms: O_2  and  C_3
REMARK    3  A    between atoms: C_8  and  C_9
REMARK    4  A    between atoms: C_9  and  C_10
REMARK                            x       y       z     vdW  Elec       q    Type
REMARK                         _______ _______ _______ _____ _____    ______ ____
ROOT
ATOM      1  C   UNL     1      -1.200  -0.637   0.010  0.00  0.00    +0.124 A 
ATOM      2  C   UNL     1      -2.375   0.098   0.019  0.00  0.00    +0.050 A 
ATOM      3  C   UNL     1      -3.602  -0.545   0.028  0.00  0.00    -0.038 A 
ATOM      4  C   UNL     1      -3.658  -1.923   0.027  0.00  0.00    -0.023 A 
ATOM      5  C   UNL     1      -2.482  -2.659   0.017  0.00  0.00    +0.013 A 
ATOM      6  C   UNL     1      -1.258  -2.023   0.003  0.00  0.00    -0.001 A 
ATOM      7  C   UNL     1      -4.966  -2.670   0.034  0.00  0.00    +0.130 C 
ATOM      8  C   UNL     1      -4.864  -3.847   1.009  0.00  0.00    +0.196 C 
ATOM      9  O   UNL     1      -6.074  -4.624   0.923  0.00  0.00    -0.292 OA
ATOM     10  P   UNL     1      -7.499  -3.846   1.031  0.00  0.00    +0.448 P 
ATOM     11  O   UNL     1      -8.614  -4.680   0.363  0.00  0.00    -0.236 OA
ATOM     12  N   UNL     1      -7.289  -2.420   0.222  0.00  0.00    -0.154 NA
ATOM     13  N   UNL     1      -6.074  -1.792   0.411  0.00  0.00    -0.224 NA
ATOM     14  C   UNL     1      -6.048  -0.547  -0.372  0.00  0.00    +0.108 C 
ATOM     15  C   UNL     1      -4.854   0.294   0.042  0.00  0.00    +0.052 C 
ATOM     16  O   UNL     1      -7.849  -3.577   2.511  0.00  0.00    -0.126 OA
ATOM     17  H   UNL     1      -7.984  -2.047  -0.343  0.00  0.00    +0.153 HD
ENDROOT
BRANCH   1  19
ATOM     18  C   UNL     1      -0.017   1.425   0.010  0.00  0.00    +0.277 C 
ATOM     19  O   UNL     1       0.002  -0.004   0.002  0.00  0.00    -0.495 OA
ENDBRANCH   1  19
BRANCH   6  20
ATOM     20  C   UNL     1       0.013  -2.832  -0.013  0.00  0.00    +0.074 C 
BRANCH  20  21
ATOM     21  C   UNL     1       0.556  -2.886  -1.418  0.00  0.00    -0.043 A 
ATOM     22  C   UNL     1       0.166  -3.901  -2.271  0.00  0.00    +0.004 A 
ATOM     23  C   UNL     1       0.664  -3.951  -3.560  0.00  0.00    +0.000 A 
ATOM     24  C   UNL     1       1.552  -2.985  -3.995  0.00  0.00    +0.000 A 
ATOM     25  C   UNL     1       1.942  -1.969  -3.142  0.00  0.00    +0.000 A 
ATOM     26  C   UNL     1       1.440  -1.917  -1.855  0.00  0.00    +0.004 A 
ENDBRANCH  20  21
ENDBRANCH   6  20
TORSDOF 3
