REMARK  Name = ZINC36500527
REMARK  13 active torsions:
REMARK  status: ('A' for Active; 'I' for Inactive)
REMARK    1  A    between atoms: C_1  and  C_2
REMARK    2  A    between atoms: C_2  and  C_3
REMARK    3  A    between atoms: C_3  and  C_4
REMARK    4  A    between atoms: C_4  and  N_5
REMARK    5  A    between atoms: C_6  and  C_8
REMARK    6  A    between atoms: C_8  and  C_10
REMARK    7  A    between atoms: C_8  and  N_17
REMARK    8  A    between atoms: C_15  and  O_16
REMARK    9  A    between atoms: N_17  and  C_18
REMARK   10  A    between atoms: C_18  and  C_19
REMARK   11  A    between atoms: C_24  and  C_26
REMARK   12  A    between atoms: C_27  and  O_33
REMARK   13  A    between atoms: C_31  and  O_32
REMARK                            x       y       z     vdW  Elec       q    Type
REMARK                         _______ _______ _______ _____ _____    ______ ____
ROOT
ATOM      1  N   UNL     1       2.502  -5.823   3.862  0.00  0.00    -0.274 N 
ATOM      2  C   UNL     1       3.357  -6.384   2.984  0.00  0.00    +0.255 C 
ATOM      3  O   UNL     1       3.747  -5.748   2.023  0.00  0.00    -0.270 OA
ENDROOT
BRANCH   2   4
ATOM      4  C   UNL     1       3.818  -7.767   3.187  0.00  0.00    +0.119 A 
ATOM      5  C   UNL     1       3.106  -8.839   2.629  0.00  0.00    +0.133 A 
ATOM      6  C   UNL     1       3.550 -10.136   2.827  0.00  0.00    +0.046 A 
ATOM      7  C   UNL     1       4.690 -10.377   3.571  0.00  0.00    +0.007 A 
ATOM      8  C   UNL     1       5.399  -9.328   4.126  0.00  0.00    +0.046 A 
ATOM      9  C   UNL     1       4.977  -8.022   3.936  0.00  0.00    +0.133 A 
BRANCH   9  10
ATOM     10  O   UNL     1       5.678  -6.995   4.476  0.00  0.00    -0.506 OA
ATOM     11  H   UNL     1       5.394  -6.751   5.368  0.00  0.00    +0.292 HD
ENDBRANCH   9  10
BRANCH   5  12
ATOM     12  O   UNL     1       1.987  -8.605   1.899  0.00  0.00    -0.506 OA
ATOM     13  H   UNL     1       2.152  -8.482   0.955  0.00  0.00    +0.292 HD
ENDBRANCH   5  12
ENDBRANCH   2   4
BRANCH   1  14
ATOM     14  C   UNL     1       2.111  -4.419   3.709  0.00  0.00    +0.196 C 
BRANCH  14  15
ATOM     15  C   UNL     1       3.302  -3.534   3.975  0.00  0.00    +0.023 A 
ATOM     16  C   UNL     1       4.581  -4.046   3.870  0.00  0.00    +0.009 A 
ATOM     17  C   UNL     1       5.673  -3.235   4.115  0.00  0.00    +0.001 A 
ATOM     18  C   UNL     1       5.489  -1.910   4.464  0.00  0.00    +0.004 A 
ATOM     19  C   UNL     1       4.213  -1.393   4.570  0.00  0.00    +0.046 A 
ATOM     20  C   UNL     1       3.115  -2.204   4.320  0.00  0.00    +0.122 A 
BRANCH  20  21
ATOM     21  O   UNL     1       1.858  -1.696   4.418  0.00  0.00    -0.506 OA
ATOM     22  H   UNL     1       1.470  -1.775   5.300  0.00  0.00    +0.292 HD
ENDBRANCH  20  21
ENDBRANCH  14  15
BRANCH  14  24
ATOM     23  N   UNL     1       1.200  -2.959   1.932  0.00  0.00    -0.313 N 
ATOM     24  C   UNL     1       1.616  -4.186   2.304  0.00  0.00    +0.238 C 
ATOM     25  O   UNL     1       1.592  -5.102   1.510  0.00  0.00    -0.273 OA
ATOM     26  H   UNL     1       1.220  -2.227   2.567  0.00  0.00    +0.149 HD
BRANCH  23  27
ATOM     27  C   UNL     1       0.719  -2.733   0.567  0.00  0.00    +0.104 C 
BRANCH  27  28
ATOM     28  C   UNL     1       0.311  -1.267   0.407  0.00  0.00    +0.018 C 
BRANCH  28  30
ATOM     29  C   UNL     1      -0.600   0.436  -1.179  0.00  0.00    +0.004 C 
ATOM     30  C   UNL     1      -0.192  -1.030  -1.019  0.00  0.00    -0.002 C 
ENDBRANCH  28  30
ENDBRANCH  27  28
ENDBRANCH  23  27
ENDBRANCH  14  24
ENDBRANCH   1  14
BRANCH   1  31
ATOM     31  C   UNL     1       1.964  -6.616   4.970  0.00  0.00    +0.183 C 
BRANCH  31  32
ATOM     32  C   UNL     1       0.606  -7.150   4.592  0.00  0.00    +0.122 A 
ATOM     33  C   UNL     1       0.352  -8.377   4.103  0.00  0.00    +0.046 A 
ATOM     34  C   UNL     1      -1.044  -8.452   3.890  0.00  0.00    +0.041 A 
ATOM     35  C   UNL     1      -1.559  -7.266   4.262  0.00  0.00    +0.195 A 
ATOM     36  O   UNL     1      -0.555  -6.484   4.691  0.00  0.00    -0.466 OA
ENDBRANCH  31  32
ENDBRANCH   1  31
TORSDOF 12
