REMARK  Name = ZINC66229636
REMARK  7 active torsions:
REMARK  status: ('A' for Active; 'I' for Inactive)
REMARK    1  A    between atoms: C_1  and  C_2
REMARK    2  A    between atoms: C_2  and  C_4
REMARK    3  A    between atoms: C_2  and  N_18
REMARK    4  A    between atoms: C_4  and  C_5
REMARK    5  A    between atoms: N_7  and  S_8
REMARK    6  A    between atoms: S_8  and  C_11
REMARK    7  A    between atoms: C_19  and  C_21
REMARK                            x       y       z     vdW  Elec       q    Type
REMARK                         _______ _______ _______ _____ _____    ______ ____
ROOT
ATOM      1  C   UNL     1       0.847  -1.998  -1.206  0.00  0.00    +0.266 C 
ATOM      2  O   UNL     1       1.450  -2.658  -2.216  0.00  0.00    -0.269 OA
ATOM      3  N   UNL     1       0.382  -2.652  -0.195  0.00  0.00    -0.091 NA
ENDROOT
BRANCH   3   4
ATOM      4  S   UNL     1       0.523  -4.301  -0.139  0.00  0.00    +0.102 S 
ATOM      5  O   UNL     1      -0.282  -4.814  -1.192  0.00  0.00    -0.146 OA
ATOM      6  O   UNL     1       1.912  -4.585  -0.034  0.00  0.00    -0.146 OA
BRANCH   4   7
ATOM      7  C   UNL     1      -0.217  -4.836   1.367  0.00  0.00    +0.113 A 
ATOM      8  C   UNL     1       0.546  -4.931   2.517  0.00  0.00    +0.030 A 
ATOM      9  C   UNL     1      -0.034  -5.351   3.699  0.00  0.00    +0.022 A 
ATOM     10  C   UNL     1      -1.378  -5.677   3.732  0.00  0.00    +0.041 A 
ATOM     11  C   UNL     1      -2.141  -5.582   2.582  0.00  0.00    +0.022 A 
ATOM     12  C   UNL     1      -1.561  -5.156   1.401  0.00  0.00    +0.030 A 
ATOM     13 CL   UNL     1      -2.107  -6.205   5.216  0.00  0.00    -0.084 Cl
ENDBRANCH   4   7
ENDBRANCH   3   4
BRANCH   1  14
ATOM     14  C   UNL     1       0.718  -0.497  -1.257  0.00  0.00    +0.124 C 
BRANCH  14  16
ATOM     15  C   UNL     1      -0.019   1.526   0.010  0.00  0.00    +0.028 C 
ATOM     16  C   UNL     1       0.002  -0.004   0.002  0.00  0.00    +0.079 C 
BRANCH  16  17
ATOM     17  N   UNL     1      -1.372  -0.511   0.012  0.00  0.00    -0.312 N 
ATOM     18  C   UNL     1      -2.029  -0.655   1.181  0.00  0.00    +0.216 C 
ATOM     19  O   UNL     1      -1.481  -0.365   2.224  0.00  0.00    -0.276 OA
ATOM     20  H   UNL     1      -1.810  -0.743  -0.822  0.00  0.00    +0.149 HD
BRANCH  18  21
ATOM     21  C   UNL     1      -3.442  -1.177   1.191  0.00  0.00    +0.075 C 
ATOM     22  C   UNL     1      -4.370  -0.205   0.434  0.00  0.00    +0.013 C 
ATOM     23  C   UNL     1      -5.691  -0.233   1.242  0.00  0.00    +0.001 C 
ATOM     24  C   UNL     1      -5.195  -0.318   2.706  0.00  0.00    +0.001 C 
ATOM     25  C   UNL     1      -3.967  -1.249   2.636  0.00  0.00    +0.013 C 
ENDBRANCH  18  21
ENDBRANCH  16  17
ENDBRANCH  14  16
ENDBRANCH   1  14
TORSDOF 6
