REMARK  Name = ZINC64176365
REMARK  4 active torsions:
REMARK  status: ('A' for Active; 'I' for Inactive)
REMARK    1  A    between atoms: C_8  and  C_13
REMARK    2  A    between atoms: N_15  and  C_16
REMARK    3  A    between atoms: C_20  and  S_22
REMARK    4  A    between atoms: S_22  and  N_25
REMARK                            x       y       z     vdW  Elec       q    Type
REMARK                         _______ _______ _______ _____ _____    ______ ____
ROOT
ATOM      1  C   UNL     1       2.700  -4.042  -0.925  0.00  0.00    +0.233 C 
ATOM      2  O   UNL     1       1.690  -4.469  -1.444  0.00  0.00    -0.274 OA
ATOM      3  N   UNL     1       3.906  -4.356  -1.438  0.00  0.00    -0.285 N 
ATOM      4  H   UNL     1       4.709  -3.961  -1.064  0.00  0.00    +0.155 HD
ENDROOT
BRANCH   1  12
ATOM      5  C   UNL     1      -1.434  -0.590   1.279  0.00  0.00    +0.001 A 
ATOM      6  C   UNL     1      -0.723   0.560   0.936  0.00  0.00    +0.002 A 
ATOM      7  C   UNL     1       0.575   0.527   0.535  0.00  0.00    +0.024 A 
ATOM      8  C   UNL     1       1.265  -0.697   0.450  0.00  0.00    +0.040 A 
ATOM      9  N   UNL     1       2.538  -0.717   0.055  0.00  0.00    -0.284 N 
ATOM     10  C   UNL     1       3.244  -1.831  -0.047  0.00  0.00    +0.233 C 
ATOM     11  O   UNL     1       4.404  -1.787  -0.413  0.00  0.00    -0.274 OA
ATOM     12  C   UNL     1       2.605  -3.158   0.292  0.00  0.00    +0.184 C 
ATOM     13  C   UNL     1       1.157  -3.140   0.741  0.00  0.00    +0.004 C 
ATOM     14  C   UNL     1       0.538  -1.927   0.806  0.00  0.00    -0.007 A 
ATOM     15  C   UNL     1      -0.858  -1.819   1.230  0.00  0.00    +0.009 A 
ATOM     16  H   UNL     1       2.967   0.124  -0.167  0.00  0.00    +0.155 HD
ENDBRANCH   1  12
BRANCH   3  17
ATOM     17  C   UNL     1       3.999  -5.252  -2.508  0.00  0.00    +0.035 A 
ATOM     18  C   UNL     1       3.018  -5.267  -3.491  0.00  0.00    +0.023 A 
ATOM     19  C   UNL     1       3.113  -6.152  -4.546  0.00  0.00    +0.004 A 
ATOM     20  C   UNL     1       4.183  -7.024  -4.625  0.00  0.00    +0.028 A 
ATOM     21  C   UNL     1       5.162  -7.013  -3.648  0.00  0.00    +0.107 A 
ATOM     22  C   UNL     1       5.076  -6.125  -2.594  0.00  0.00    +0.051 A 
BRANCH  21  23
ATOM     23  S   UNL     1       6.523  -8.126  -3.753  0.00  0.00    +0.061 S 
ATOM     24  O   UNL     1       7.016  -8.291  -2.430  0.00  0.00    -0.153 OA
ATOM     25  O   UNL     1       6.091  -9.223  -4.547  0.00  0.00    -0.153 OA
BRANCH  23  26
ATOM     26  N   UNL     1       7.716  -7.362  -4.610  0.00  0.00    -0.177 NA
ATOM     27  C   UNL     1       7.886  -7.408  -6.070  0.00  0.00    +0.109 C 
ATOM     28  C   UNL     1       9.138  -6.574  -6.412  0.00  0.00    +0.018 C 
ATOM     29  C   UNL     1       9.929  -6.571  -5.078  0.00  0.00    +0.018 C 
ATOM     30  C   UNL     1       8.780  -6.517  -4.037  0.00  0.00    +0.109 C 
ENDBRANCH  23  26
ENDBRANCH  21  23
ENDBRANCH   3  17
TORSDOF 4
