REMARK  Name = ZINC35958937
REMARK  6 active torsions:
REMARK  status: ('A' for Active; 'I' for Inactive)
REMARK    1  A    between atoms: C_4  and  C_7
REMARK    2  A    between atoms: C_7  and  C_8
REMARK    3  A    between atoms: C_8  and  N_9
REMARK    4  A    between atoms: C_10  and  C_12
REMARK    5  A    between atoms: N_15  and  C_18
REMARK    6  A    between atoms: C_24  and  C_26
REMARK                            x       y       z     vdW  Elec       q    Type
REMARK                         _______ _______ _______ _____ _____    ______ ____
ROOT
ATOM      1  C   UNL     1       7.447  -2.716   2.454  0.00  0.00    +0.071 C 
ATOM      2  C   UNL     1       7.269  -4.058   1.740  0.00  0.00    -0.006 C 
ATOM      3  C   UNL     1       8.579  -4.846   1.811  0.00  0.00    -0.078 C 
ATOM      4  N   UNL     1       8.937  -5.081   3.215  0.00  0.00    +0.382 N 
ATOM      5  C   UNL     1       9.180  -3.800   3.889  0.00  0.00    -0.078 C 
ATOM      6  C   UNL     1       7.893  -2.972   3.897  0.00  0.00    -0.006 C 
ATOM      7  H   UNL     1       8.181  -5.565   3.677  0.00  0.00    -0.081 HD
ENDROOT
BRANCH   4   8
ATOM      8  C   UNL     1      10.152  -5.904   3.278  0.00  0.00    -0.066 C 
ATOM      9  C   UNL     1      10.527  -6.148   4.742  0.00  0.00    +0.004 C 
ATOM     10  C   UNL     1      11.814  -6.976   4.803  0.00  0.00    +0.106 C 
ATOM     11  N   UNL     1      11.626  -8.203   4.016  0.00  0.00    -0.298 N 
ATOM     12  C   UNL     1      11.177  -8.085   2.622  0.00  0.00    +0.106 C 
ATOM     13  C   UNL     1       9.898  -7.244   2.584  0.00  0.00    +0.004 C 
ATOM     14  C   UNL     1      11.859  -9.412   4.562  0.00  0.00    +0.248 C 
ATOM     15  O   UNL     1      11.601 -10.422   3.936  0.00  0.00    -0.270 OA
BRANCH  14  16
ATOM     16  C   UNL     1      12.430  -9.511   5.922  0.00  0.00    +0.051 A 
ATOM     17  C   UNL     1      13.618  -8.849   6.234  0.00  0.00    +0.014 A 
ATOM     18  C   UNL     1      14.145  -8.945   7.505  0.00  0.00    +0.001 A 
ATOM     19  C   UNL     1      13.499  -9.696   8.471  0.00  0.00    +0.001 A 
ATOM     20  C   UNL     1      12.321 -10.356   8.169  0.00  0.00    +0.016 A 
ATOM     21  C   UNL     1      11.779 -10.264   6.902  0.00  0.00    +0.030 A 
ATOM     22 BR   UNL     1      10.164 -11.159   6.494  0.00  0.00    -0.050 Br
ENDBRANCH  14  16
ENDBRANCH   4   8
BRANCH   1  24
ATOM     23  N   UNL     1       5.553  -1.632   1.290  0.00  0.00    -0.315 N 
ATOM     24  C   UNL     1       6.139  -1.968   2.456  0.00  0.00    +0.216 C 
ATOM     25  O   UNL     1       5.613  -1.669   3.507  0.00  0.00    -0.276 OA
ATOM     26  H   UNL     1       5.974  -1.872   0.449  0.00  0.00    +0.149 HD
BRANCH  23  27
ATOM     27  C   UNL     1       4.281  -0.905   1.291  0.00  0.00    +0.109 C 
BRANCH  27  28
ATOM     28  C   UNL     1       3.838  -0.650  -0.151  0.00  0.00    +0.054 C 
BRANCH  28  32
ATOM     29  C   UNL     1       0.129   1.469  -0.149  0.00  0.00    +0.000 A 
ATOM     30  C   UNL     1       1.323   2.166  -0.147  0.00  0.00    +0.000 A 
ATOM     31  C   UNL     1       2.523   1.480  -0.147  0.00  0.00    +0.004 A 
ATOM     32  C   UNL     1       2.530   0.098  -0.149  0.00  0.00    -0.046 A 
ATOM     33  C   UNL     1       1.335  -0.599  -0.150  0.00  0.00    +0.004 A 
ATOM     34  C   UNL     1       0.135   0.087  -0.151  0.00  0.00    +0.000 A 
ENDBRANCH  28  32
ENDBRANCH  27  28
ENDBRANCH  23  27
ENDBRANCH   1  24
TORSDOF 6
