REMARK  Name = ZINC15330003
REMARK  7 active torsions:
REMARK  status: ('A' for Active; 'I' for Inactive)
REMARK    1  A    between atoms: C_1  and  C_2
REMARK    2  A    between atoms: C_2  and  C_4
REMARK    3  A    between atoms: C_2  and  N_11
REMARK    4  A    between atoms: C_12  and  C_14
REMARK    5  A    between atoms: C_14  and  N_15
REMARK    6  A    between atoms: C_18  and  C_22
REMARK    7  A    between atoms: C_18  and  C_23
REMARK                            x       y       z     vdW  Elec       q    Type
REMARK                         _______ _______ _______ _____ _____    ______ ____
ROOT
ATOM      1  N   UNL     1       1.048   2.037   0.003  0.00  0.00    -0.215 N 
ATOM      2  C   UNL     1      -0.014   1.208   0.009  0.00  0.00    +0.251 C 
ATOM      3  O   UNL     1       0.002  -0.004   0.002  0.00  0.00    -0.272 OA
ATOM      4  C   UNL     1      -1.235   2.107   0.018  0.00  0.00    +0.135 C 
ATOM      5  N   UNL     1      -0.664   3.465   0.026  0.00  0.00    -0.281 N 
ATOM      6  C   UNL     1       0.673   3.321   0.013  0.00  0.00    +0.310 C 
ATOM      7  O   UNL     1       1.453   4.253   0.010  0.00  0.00    -0.252 OA
ATOM      8  C   UNL     1      -2.068   1.870   1.279  0.00  0.00    +0.047 C 
ATOM      9  H   UNL     1      -1.157   4.301   0.035  0.00  0.00    +0.152 HD
ENDROOT
BRANCH   4  10
ATOM     10  C   UNL     1      -2.067   1.885  -1.218  0.00  0.00    -0.014 A 
ATOM     11  C   UNL     1      -2.814   2.923  -1.744  0.00  0.00    +0.008 A 
ATOM     12  C   UNL     1      -3.578   2.721  -2.878  0.00  0.00    +0.022 A 
ATOM     13  C   UNL     1      -3.594   1.480  -3.488  0.00  0.00    +0.059 A 
ATOM     14  C   UNL     1      -2.845   0.441  -2.962  0.00  0.00    +0.060 A 
ATOM     15  C   UNL     1      -2.078   0.646  -1.830  0.00  0.00    +0.027 A 
ATOM     16 CL   UNL     1      -2.865  -1.118  -3.728  0.00  0.00    -0.082 Cl
ATOM     17 CL   UNL     1      -4.553   1.225  -4.913  0.00  0.00    -0.082 Cl
ENDBRANCH   4  10
BRANCH   1  18
ATOM     18  C   UNL     1       2.443   1.587  -0.011  0.00  0.00    +0.213 C 
BRANCH  18  20
ATOM     19  N   UNL     1       4.167   1.033  -1.696  0.00  0.00    -0.307 N 
ATOM     20  C   UNL     1       2.908   1.439  -1.437  0.00  0.00    +0.231 C 
ATOM     21  O   UNL     1       2.150   1.685  -2.351  0.00  0.00    -0.274 OA
ATOM     22  H   UNL     1       4.773   0.836  -0.965  0.00  0.00    +0.149 HD
BRANCH  19  24
ATOM     23  C   UNL     1       5.105   2.243  -3.603  0.00  0.00    +0.033 C 
ATOM     24  C   UNL     1       4.620   0.889  -3.082  0.00  0.00    +0.100 C 
BRANCH  24  25
ATOM     25  C   UNL     1       5.750  -0.107  -3.140  0.00  0.00    -0.027 A 
ATOM     26  C   UNL     1       6.720  -0.108  -2.156  0.00  0.00    +0.008 A 
ATOM     27  C   UNL     1       7.754  -1.024  -2.206  0.00  0.00    +0.038 A 
ATOM     28  C   UNL     1       7.823  -1.933  -3.249  0.00  0.00    +0.123 A 
ATOM     29  C   UNL     1       6.854  -1.927  -4.237  0.00  0.00    +0.038 A 
ATOM     30  C   UNL     1       5.818  -1.013  -4.182  0.00  0.00    +0.008 A 
ATOM     31  F   UNL     1       8.836  -2.825  -3.301  0.00  0.00    -0.205 F 
ENDBRANCH  24  25
ENDBRANCH  19  24
ENDBRANCH  18  20
ENDBRANCH   1  18
TORSDOF 5
