REMARK  Name = ZINC01903788
REMARK  13 active torsions:
REMARK  status: ('A' for Active; 'I' for Inactive)
REMARK    1  A    between atoms: C_1  and  C_2
REMARK    2  A    between atoms: C_2  and  N_57
REMARK    3  A    between atoms: C_3  and  C_4
REMARK    4  A    between atoms: C_3  and  N_57
REMARK    5  A    between atoms: C_5  and  C_6
REMARK    6  A    between atoms: C_5  and  N_57
REMARK    7  A    between atoms: C_7  and  C_17
REMARK    8  A    between atoms: N_19  and  N_20
REMARK    9  A    between atoms: C_21  and  C_22
REMARK   10  A    between atoms: C_24  and  O_30
REMARK   11  A    between atoms: C_25  and  O_29
REMARK   12  A    between atoms: O_30  and  C_31
REMARK   13  A    between atoms: C_31  and  C_32
REMARK                            x       y       z     vdW  Elec       q    Type
REMARK                         _______ _______ _______ _____ _____    ______ ____
ROOT
ATOM      1  C   UNL     1      -0.523   5.691   0.026  0.00  0.00    +0.063 A 
ATOM      2  C   UNL     1       0.641   6.317  -0.319  0.00  0.00    +0.170 A 
ATOM      3  N   UNL     1       1.626   5.402  -0.345  0.00  0.00    -0.124 NA
ATOM      4  N   UNL     1       1.150   4.247  -0.032  0.00  0.00    -0.058 NA
ATOM      5  N   UNL     1      -0.223   4.386   0.217  0.00  0.00    -0.194 N 
ATOM      6  C   UNL     1      -1.112   3.371   0.586  0.00  0.00    +0.240 A 
ATOM      7  C   UNL     1      -0.768   1.960   0.783  0.00  0.00    +0.206 A 
ATOM      8  N   UNL     1      -1.850   1.318   1.127  0.00  0.00    -0.032 NA
ATOM      9  O   UNL     1      -2.916   2.251   1.161  0.00  0.00    -0.239 OA
ATOM     10  N   UNL     1      -2.387   3.517   0.809  0.00  0.00    -0.027 NA
ATOM     11  N   UNL     1       0.497   1.402   0.635  0.00  0.00    -0.337 N 
ATOM     12  H   UNL     1       0.630   0.454   0.791  0.00  0.00    +0.144 HD
ATOM     13  H   UNL     1       1.246   1.960   0.372  0.00  0.00    +0.144 HD
ENDROOT
BRANCH   2  14
ATOM     14  C   UNL     1       0.791   7.753  -0.620  0.00  0.00    +0.285 C 
ATOM     15  O   UNL     1      -0.175   8.490  -0.565  0.00  0.00    -0.267 OA
ATOM     16  N   UNL     1       1.998   8.249  -0.955  0.00  0.00    -0.202 N 
ATOM     17  H   UNL     1       2.769   7.661  -0.999  0.00  0.00    +0.178 HD
BRANCH  16  18
ATOM     18  N   UNL     1       2.141   9.613  -1.241  0.00  0.00    -0.187 NA
ATOM     19  C   UNL     1       3.304  10.091  -1.563  0.00  0.00    +0.138 C 
BRANCH  19  20
ATOM     20  C   UNL     1       3.454  11.526  -1.864  0.00  0.00    -0.001 A 
ATOM     21  C   UNL     1       4.706  12.043  -2.206  0.00  0.00    +0.059 A 
ATOM     22  C   UNL     1       4.840  13.389  -2.492  0.00  0.00    +0.163 A 
ATOM     23  C   UNL     1       3.731  14.229  -2.428  0.00  0.00    +0.173 A 
ATOM     24  C   UNL     1       2.488  13.717  -2.083  0.00  0.00    +0.063 A 
ATOM     25  C   UNL     1       2.345  12.374  -1.802  0.00  0.00    +0.028 A 
ATOM     26 BR   UNL     1       0.986  14.864  -1.999  0.00  0.00    -0.046 Br
BRANCH  23  27
ATOM     27  O   UNL     1       3.866  15.553  -2.704  0.00  0.00    -0.503 OA
ATOM     28  H   UNL     1       4.076  16.097  -1.932  0.00  0.00    +0.292 HD
ENDBRANCH  23  27
BRANCH  22  29
ATOM     29  O   UNL     1       6.057  13.894  -2.829  0.00  0.00    -0.489 OA
BRANCH  29  30
ATOM     30  C   UNL     1       7.151  12.975  -2.876  0.00  0.00    +0.226 C 
ATOM     31  C   UNL     1       8.427  13.721  -3.270  0.00  0.00    +0.048 C 
ENDBRANCH  29  30
ENDBRANCH  22  29
ENDBRANCH  19  20
ENDBRANCH  16  18
ENDBRANCH   2  14
BRANCH   1  32
ATOM     32  C   UNL     1      -1.880   6.331   0.169  0.00  0.00    -0.020 C 
BRANCH  32  33
ATOM     33  N   UNL     1      -2.251   6.336   1.600  0.00  0.00    +0.383 N 
ATOM     34  H   UNL     1      -1.969   5.443   2.021  0.00  0.00    -0.081 HD
BRANCH  33  36
ATOM     35  C   UNL     1      -0.127   6.991   2.615  0.00  0.00    -0.017 C 
ATOM     36  C   UNL     1      -1.556   7.438   2.298  0.00  0.00    -0.082 C 
ENDBRANCH  33  36
BRANCH  33  37
ATOM     37  C   UNL     1      -3.714   6.493   1.741  0.00  0.00    -0.082 C 
ATOM     38  C   UNL     1      -4.112   6.126   3.172  0.00  0.00    -0.017 C 
ENDBRANCH  33  37
ENDBRANCH  32  33
ENDBRANCH   1  32
TORSDOF 10
