REMARK  Name = ZINC06088780
REMARK  12 active torsions:
REMARK  status: ('A' for Active; 'I' for Inactive)
REMARK    1  A    between atoms: C_1  and  O_2
REMARK    2  A    between atoms: O_2  and  C_3
REMARK    3  A    between atoms: C_8  and  N_9
REMARK    4  A    between atoms: C_10  and  C_26
REMARK    5  A    between atoms: C_13  and  S_14
REMARK    6  A    between atoms: S_14  and  C_15
REMARK    7  A    between atoms: C_15  and  C_16
REMARK    8  A    between atoms: N_18  and  C_19
REMARK    9  A    between atoms: C_19  and  C_20
REMARK   10  A    between atoms: C_29  and  N_32
REMARK   11  A    between atoms: N_32  and  S_33
REMARK   12  A    between atoms: S_33  and  C_36
REMARK                            x       y       z     vdW  Elec       q    Type
REMARK                         _______ _______ _______ _____ _____    ______ ____
ROOT
ATOM      1  N   UNL     1      -3.860   5.481   9.256  0.00  0.00    -0.267 N 
ATOM      2  C   UNL     1      -2.710   5.666   9.990  0.00  0.00    +0.169 A 
ATOM      3  N   UNL     1      -1.699   5.388   9.199  0.00  0.00    -0.128 NA
ATOM      4  N   UNL     1      -2.131   5.041   8.040  0.00  0.00    -0.122 NA
ATOM      5  C   UNL     1      -3.444   5.076   8.017  0.00  0.00    +0.197 A 
ENDROOT
BRANCH   1  11
ATOM      6  C   UNL     1      -5.796   6.908   9.548  0.00  0.00    +0.144 A 
ATOM      7  C   UNL     1      -7.104   7.083   9.972  0.00  0.00    +0.048 A 
ATOM      8  C   UNL     1      -7.792   6.029  10.543  0.00  0.00    +0.004 A 
ATOM      9  C   UNL     1      -7.181   4.797  10.688  0.00  0.00    +0.002 A 
ATOM     10  C   UNL     1      -5.880   4.613  10.263  0.00  0.00    +0.030 A 
ATOM     11  C   UNL     1      -5.183   5.665   9.689  0.00  0.00    +0.092 A 
BRANCH   6  13
ATOM     12  C   UNL     1      -5.808   9.189   8.878  0.00  0.00    +0.277 C 
ATOM     13  O   UNL     1      -5.116   7.944   8.991  0.00  0.00    -0.493 OA
ENDBRANCH   6  13
ENDBRANCH   1  11
BRANCH   2  14
ATOM     14  C   UNL     1      -2.628   6.102  11.400  0.00  0.00    +0.020 A 
ATOM     15  C   UNL     1      -3.765   6.069  12.210  0.00  0.00    +0.013 A 
ATOM     16  C   UNL     1      -3.684   6.471  13.525  0.00  0.00    +0.025 A 
ATOM     17  C   UNL     1      -2.474   6.920  14.043  0.00  0.00    +0.048 A 
ATOM     18  C   UNL     1      -1.341   6.959  13.238  0.00  0.00    +0.025 A 
ATOM     19  C   UNL     1      -1.415   6.553  11.923  0.00  0.00    +0.013 A 
BRANCH  17  20
ATOM     20  N   UNL     1      -2.397   7.333  15.374  0.00  0.00    -0.221 N 
ATOM     21  H   UNL     1      -2.393   6.674  16.087  0.00  0.00    +0.173 HD
BRANCH  20  22
ATOM     22  S   UNL     1      -2.312   8.946  15.738  0.00  0.00    +0.040 S 
ATOM     23  O   UNL     1      -2.240   8.995  17.156  0.00  0.00    -0.155 OA
ATOM     24  O   UNL     1      -1.245   9.441  14.941  0.00  0.00    -0.155 OA
ATOM     25  C   UNL     1      -3.890   9.636  15.168  0.00  0.00    +0.218 C 
ENDBRANCH  20  22
ENDBRANCH  17  20
ENDBRANCH   2  14
BRANCH   5  26
ATOM     26  S   UNL     1      -4.477   4.683   6.644  0.00  0.00    -0.076 S 
BRANCH  26  27
ATOM     27  C   UNL     1      -3.218   4.260   5.414  0.00  0.00    +0.173 C 
BRANCH  27  28
ATOM     28  C   UNL     1      -3.888   3.879   4.119  0.00  0.00    +0.223 C 
ATOM     29  O   UNL     1      -5.098   3.893   4.036  0.00  0.00    -0.275 OA
ATOM     30  N   UNL     1      -3.143   3.524   3.054  0.00  0.00    -0.312 N 
ATOM     31  H   UNL     1      -2.175   3.513   3.121  0.00  0.00    +0.149 HD
BRANCH  30  32
ATOM     32  C   UNL     1      -3.794   3.154   1.795  0.00  0.00    +0.135 C 
BRANCH  32  33
ATOM     33  C   UNL     1      -2.730   2.796   0.756  0.00  0.00    +0.135 C 
ATOM     34  C   UNL     1      -3.383   2.521  -0.622  0.00  0.00    +0.035 C 
ATOM     35  C   UNL     1      -2.336   1.605  -1.301  0.00  0.00    +0.031 C 
ATOM     36  C   UNL     1      -1.521   1.029  -0.127  0.00  0.00    +0.160 C 
ATOM     37  O   UNL     1      -2.096   1.540   1.088  0.00  0.00    -0.375 OA
ENDBRANCH  32  33
ENDBRANCH  30  32
ENDBRANCH  27  28
ENDBRANCH  26  27
ENDBRANCH   5  26
TORSDOF 10
