REMARK  Name = ZINC04177341
REMARK  8 active torsions:
REMARK  status: ('A' for Active; 'I' for Inactive)
REMARK    1  A    between atoms: C_1  and  C_2
REMARK    2  A    between atoms: C_2  and  O_3
REMARK    3  A    between atoms: O_3  and  C_4
REMARK    4  A    between atoms: N_9  and  S_12
REMARK    5  A    between atoms: S_12  and  C_15
REMARK    6  A    between atoms: C_18  and  C_21
REMARK    7  A    between atoms: N_23  and  C_24
REMARK    8  A    between atoms: C_25  and  C_33
REMARK                            x       y       z     vdW  Elec       q    Type
REMARK                         _______ _______ _______ _____ _____    ______ ____
ROOT
ATOM      1  C   UNL     1       0.102   0.313   3.526  0.00  0.00    +0.106 A 
ATOM      2  C   UNL     1       1.054  -0.672   3.335  0.00  0.00    +0.029 A 
ATOM      3  C   UNL     1       2.091  -0.817   4.234  0.00  0.00    +0.015 A 
ATOM      4  C   UNL     1       2.172   0.027   5.343  0.00  0.00    +0.037 A 
ATOM      5  C   UNL     1       1.204   1.015   5.533  0.00  0.00    +0.015 A 
ATOM      6  C   UNL     1       0.176   1.152   4.624  0.00  0.00    +0.029 A 
ENDROOT
BRANCH   4   7
ATOM      7  C   UNL     1       3.277  -0.126   6.312  0.00  0.00    +0.249 C 
ATOM      8  O   UNL     1       3.345   0.610   7.277  0.00  0.00    -0.270 OA
ATOM      9  N   UNL     1       4.209  -1.081   6.127  0.00  0.00    -0.275 N 
ATOM     10  H   UNL     1       4.155  -1.669   5.357  0.00  0.00    +0.156 HD
BRANCH   9  11
ATOM     11  C   UNL     1       5.245  -1.224   7.035  0.00  0.00    +0.085 A 
ATOM     12  C   UNL     1       6.286  -2.142   7.019  0.00  0.00    +0.068 A 
ATOM     13  C   UNL     1       7.256  -2.077   8.099  0.00  0.00    -0.023 A 
ATOM     14  C   UNL     1       7.024  -1.119   9.023  0.00  0.00    -0.004 A 
ATOM     15  S   UNL     1       5.552  -0.306   8.472  0.00  0.00    -0.077 S 
ATOM     16  C   UNL     1       7.844  -0.822  10.241  0.00  0.00    +0.043 C 
ATOM     17  C   UNL     1       8.783  -2.010  10.493  0.00  0.00    +0.005 C 
ATOM     18  C   UNL     1       9.471  -2.384   9.177  0.00  0.00    +0.005 C 
ATOM     19  C   UNL     1       8.455  -3.009   8.219  0.00  0.00    +0.037 C 
BRANCH  12  20
ATOM     20  C   UNL     1       6.405  -3.138   5.949  0.00  0.00    +0.244 C 
ATOM     21  O   UNL     1       7.040  -2.878   4.944  0.00  0.00    -0.270 OA
ATOM     22  N   UNL     1       5.812  -4.341   6.080  0.00  0.00    -0.325 N 
ATOM     23  H   UNL     1       5.306  -4.548   6.881  0.00  0.00    +0.145 HD
ATOM     24  H   UNL     1       5.891  -5.000   5.372  0.00  0.00    +0.145 HD
ENDBRANCH  12  20
ENDBRANCH   9  11
ENDBRANCH   4   7
BRANCH   1  25
ATOM     25  S   UNL     1      -1.216   0.495   2.371  0.00  0.00    +0.061 S 
ATOM     26  O   UNL     1      -2.282   1.127   3.066  0.00  0.00    -0.153 OA
ATOM     27  O   UNL     1      -1.367  -0.762   1.726  0.00  0.00    -0.153 OA
BRANCH  25  33
ATOM     28  C   UNL     1      -0.580   3.909  -2.014  0.00  0.00    +0.403 C 
ATOM     29  O   UNL     1      -0.003   3.502  -3.003  0.00  0.00    -0.226 OA
ATOM     30  N   UNL     1      -0.997   3.039  -1.073  0.00  0.00    -0.265 N 
ATOM     31  C   UNL     1      -0.761   1.597  -1.229  0.00  0.00    +0.128 C 
ATOM     32  C   UNL     1      -0.013   1.086   0.008  0.00  0.00    +0.128 C 
ATOM     33  N   UNL     1      -0.707   1.563   1.212  0.00  0.00    -0.174 NA
ATOM     34  C   UNL     1      -0.947   3.005   1.367  0.00  0.00    +0.128 C 
ATOM     35  C   UNL     1      -1.695   3.517   0.130  0.00  0.00    +0.128 C 
BRANCH  28  36
ATOM     36  O   UNL     1      -0.802   5.228  -1.858  0.00  0.00    -0.451 OA
BRANCH  36  38
ATOM     37  C   UNL     1      -0.666   7.555  -2.562  0.00  0.00    +0.048 C 
ATOM     38  C   UNL     1      -0.325   6.105  -2.912  0.00  0.00    +0.230 C 
ENDBRANCH  36  38
ENDBRANCH  28  36
ENDBRANCH  25  33
ENDBRANCH   1  25
TORSDOF 7
