REMARK  Name = ZINC40316927
REMARK  9 active torsions:
REMARK  status: ('A' for Active; 'I' for Inactive)
REMARK    1  A    between atoms: C_5  and  C_7
REMARK    2  A    between atoms: C_7  and  N_8
REMARK    3  A    between atoms: N_8  and  C_9
REMARK    4  A    between atoms: N_8  and  C_22
REMARK    5  A    between atoms: C_9  and  C_10
REMARK    6  A    between atoms: C_10  and  C_12
REMARK    7  A    between atoms: C_10  and  O_21
REMARK    8  A    between atoms: C_12  and  O_13
REMARK    9  A    between atoms: O_13  and  C_14
REMARK                            x       y       z     vdW  Elec       q    Type
REMARK                         _______ _______ _______ _____ _____    ______ ____
ROOT
ATOM      1  N   UNL     1       1.190  -2.510   1.328  0.00  0.00    +0.387 N 
ATOM      2  H   UNL     1       0.469  -2.568   2.031  0.00  0.00    -0.081 HD
ENDROOT
BRANCH   1   3
ATOM      3  C   UNL     1       2.297  -1.685   1.831  0.00  0.00    -0.045 C 
ATOM      4  C   UNL     1       1.878  -0.206   1.843  0.00  0.00    +0.009 C 
ATOM      5  C   UNL     1       3.120   0.693   2.059  0.00  0.00    +0.164 C 
ATOM      6  S   UNL     1       4.480  -0.320   1.345  0.00  0.00    -0.033 S 
ATOM      7  O   UNL     1       5.403  -0.645   2.375  0.00  0.00    -0.174 OA
ATOM      8  O   UNL     1       4.949   0.306   0.159  0.00  0.00    -0.174 OA
ATOM      9  C   UNL     1       3.529  -1.831   0.892  0.00  0.00    +0.151 C 
ENDBRANCH   1   3
BRANCH   1  10
ATOM     10  C   UNL     1       0.640  -1.901   0.110  0.00  0.00    -0.041 C 
BRANCH  10  15
ATOM     11  C   UNL     1      -2.722  -0.854   1.472  0.00  0.00    +0.000 A 
ATOM     12  C   UNL     1      -2.759   0.482   1.118  0.00  0.00    +0.001 A 
ATOM     13  C   UNL     1      -1.698   1.048   0.438  0.00  0.00    +0.020 A 
ATOM     14  C   UNL     1      -0.596   0.276   0.111  0.00  0.00    +0.042 A 
ATOM     15  C   UNL     1      -0.559  -1.060   0.466  0.00  0.00    -0.046 A 
ATOM     16  C   UNL     1      -1.622  -1.625   1.146  0.00  0.00    +0.003 A 
ATOM     17 CL   UNL     1       0.738   0.985  -0.744  0.00  0.00    -0.083 Cl
ENDBRANCH  10  15
ENDBRANCH   1  10
BRANCH   1  18
ATOM     18  C   UNL     1       1.685  -3.859   1.022  0.00  0.00    -0.043 C 
BRANCH  18  19
ATOM     19  C   UNL     1       2.055  -4.574   2.322  0.00  0.00    +0.135 C 
BRANCH  19  20
ATOM     20  O   UNL     1       3.189  -3.935   2.911  0.00  0.00    -0.390 OA
ATOM     21  H   UNL     1       3.964  -3.899   2.334  0.00  0.00    +0.210 HD
ENDBRANCH  19  20
BRANCH  19  22
ATOM     22  C   UNL     1       2.393  -6.036   2.022  0.00  0.00    +0.258 C 
BRANCH  22  23
ATOM     23  O   UNL     1       2.625  -6.732   3.248  0.00  0.00    -0.488 OA
BRANCH  23  24
ATOM     24  C   UNL     1       2.939  -8.052   3.158  0.00  0.00    +0.135 A 
ATOM     25  C   UNL     1       3.027  -8.662   1.916  0.00  0.00    +0.047 A 
ATOM     26  C   UNL     1       3.346 -10.003   1.827  0.00  0.00    +0.004 A 
ATOM     27  C   UNL     1       3.578 -10.738   2.975  0.00  0.00    +0.001 A 
ATOM     28  C   UNL     1       3.491 -10.133   4.215  0.00  0.00    +0.019 A 
ATOM     29  C   UNL     1       3.178  -8.790   4.309  0.00  0.00    +0.059 A 
ATOM     30 BR   UNL     1       3.067  -7.960   6.005  0.00  0.00    -0.047 Br
ENDBRANCH  23  24
ENDBRANCH  22  23
ENDBRANCH  19  22
ENDBRANCH  18  19
ENDBRANCH   1  18
TORSDOF 9
