REMARK  Name = ZINC05555862
REMARK  7 active torsions:
REMARK  status: ('A' for Active; 'I' for Inactive)
REMARK    1  A    between atoms: C_1  and  C_2
REMARK    2  A    between atoms: C_2  and  C_4
REMARK    3  A    between atoms: C_7  and  N_10
REMARK    4  A    between atoms: C_11  and  C_13
REMARK    5  A    between atoms: C_13  and  N_14
REMARK    6  A    between atoms: C_26  and  C_28
REMARK    7  A    between atoms: C_26  and  C_29
REMARK                            x       y       z     vdW  Elec       q    Type
REMARK                         _______ _______ _______ _____ _____    ______ ____
ROOT
ATOM      1  N   UNL     1      -4.179   1.777   4.587  0.00  0.00    -0.201 N 
ATOM      2  C   UNL     1      -3.273   1.893   3.586  0.00  0.00    +0.279 A 
ATOM      3  O   UNL     1      -2.119   2.227   3.791  0.00  0.00    -0.265 OA
ATOM      4  C   UNL     1      -3.761   1.598   2.267  0.00  0.00    +0.079 A 
ATOM      5  C   UNL     1      -3.005   1.645   1.034  0.00  0.00    -0.018 A 
ATOM      6  C   UNL     1      -3.672   1.326  -0.105  0.00  0.00    +0.021 A 
ATOM      7  S   UNL     1      -5.324   0.951   0.417  0.00  0.00    -0.069 S 
ATOM      8  C   UNL     1      -5.119   1.222   2.150  0.00  0.00    +0.138 A 
ATOM      9  N   UNL     1      -5.959   1.126   3.175  0.00  0.00    -0.123 NA
ATOM     10  N   UNL     1      -5.502   1.396   4.359  0.00  0.00    -0.061 NA
ATOM     11  C   UNL     1      -3.102   1.306  -1.488  0.00  0.00    +0.203 C 
ATOM     12  O   UNL     1      -1.833   1.978  -1.454  0.00  0.00    -0.368 OA
ATOM     13  C   UNL     1      -0.984   1.538  -0.392  0.00  0.00    +0.068 C 
ATOM     14  C   UNL     1      -1.531   2.024   0.953  0.00  0.00    +0.071 C 
ATOM     15  C   UNL     1      -0.922   0.009  -0.391  0.00  0.00    +0.041 C 
ATOM     16  C   UNL     1       0.423   2.102  -0.600  0.00  0.00    +0.041 C 
ENDROOT
BRANCH   1  17
ATOM     17  C   UNL     1      -3.754   2.062   5.960  0.00  0.00    +0.245 C 
BRANCH  17  19
ATOM     18  N   UNL     1      -3.650   4.017   7.471  0.00  0.00    -0.284 N 
ATOM     19  C   UNL     1      -3.971   3.523   6.259  0.00  0.00    +0.239 C 
ATOM     20  O   UNL     1      -4.436   4.254   5.410  0.00  0.00    -0.273 OA
ATOM     21  H   UNL     1      -3.349   3.421   8.174  0.00  0.00    +0.155 HD
BRANCH  18  25
ATOM     22  C   UNL     1      -3.950   8.103   8.197  0.00  0.00    +0.017 A 
ATOM     23  C   UNL     1      -3.590   7.640   6.925  0.00  0.00    +0.013 A 
ATOM     24  C   UNL     1      -3.492   6.293   6.691  0.00  0.00    +0.024 A 
ATOM     25  C   UNL     1      -3.750   5.385   7.714  0.00  0.00    +0.033 A 
ATOM     26  C   UNL     1      -4.113   5.841   8.979  0.00  0.00    +0.024 A 
ATOM     27  C   UNL     1      -4.208   7.186   9.224  0.00  0.00    +0.013 A 
BRANCH  22  29
ATOM     28  C   UNL     1      -4.320  10.045   9.850  0.00  0.00    +0.091 C 
ATOM     29  C   UNL     1      -4.055   9.545   8.453  0.00  0.00    +0.160 C 
ATOM     30  O   UNL     1      -3.929  10.334   7.541  0.00  0.00    -0.292 OA
ENDBRANCH  22  29
ENDBRANCH  18  25
ENDBRANCH  17  19
ENDBRANCH   1  17
TORSDOF 4
