REMARK  Name = ZINC01184262
REMARK  5 active torsions:
REMARK  status: ('A' for Active; 'I' for Inactive)
REMARK    1  A    between atoms: C_8  and  C_10
REMARK    2  A    between atoms: C_13  and  N_16
REMARK    3  A    between atoms: N_16  and  C_17
REMARK    4  A    between atoms: C_17  and  N_19
REMARK    5  A    between atoms: C_20  and  C_22
REMARK                            x       y       z     vdW  Elec       q    Type
REMARK                         _______ _______ _______ _____ _____    ______ ____
ROOT
ATOM      1  C   UNL     1       9.700   1.107   0.082  0.00  0.00    +0.037 A 
ATOM      2  C   UNL     1       9.512   2.491   0.117  0.00  0.00    +0.015 A 
ATOM      3  C   UNL     1       8.238   3.012   0.078  0.00  0.00    +0.024 A 
ATOM      4  C   UNL     1       7.139   2.163   0.002  0.00  0.00    +0.033 A 
ATOM      5  C   UNL     1       7.323   0.784  -0.027  0.00  0.00    +0.024 A 
ATOM      6  C   UNL     1       8.595   0.257   0.007  0.00  0.00    +0.015 A 
ENDROOT
BRANCH   1  14
ATOM      7  C   UNL     1      14.915  -1.799   0.217  0.00  0.00    +0.002 A 
ATOM      8  C   UNL     1      15.447  -0.520   0.280  0.00  0.00    +0.004 A 
ATOM      9  C   UNL     1      14.618   0.584   0.279  0.00  0.00    +0.048 A 
ATOM     10  C   UNL     1      13.244   0.416   0.214  0.00  0.00    +0.156 A 
ATOM     11  C   UNL     1      12.701  -0.878   0.150  0.00  0.00    +0.110 A 
ATOM     12  C   UNL     1      13.553  -1.986   0.152  0.00  0.00    +0.031 A 
ATOM     13  N   UNL     1      11.352  -0.732   0.096  0.00  0.00    -0.209 NA
ATOM     14  C   UNL     1      11.065   0.545   0.124  0.00  0.00    +0.228 A 
ATOM     15  O   UNL     1      12.197   1.271   0.190  0.00  0.00    -0.435 OA
ENDBRANCH   1  14
BRANCH   4  16
ATOM     16  N   UNL     1       5.849   2.694  -0.038  0.00  0.00    -0.297 N 
ATOM     17  H   UNL     1       5.613   3.439   0.537  0.00  0.00    +0.154 HD
BRANCH  16  18
ATOM     18  C   UNL     1       4.931   2.172  -0.875  0.00  0.00    +0.141 C 
ATOM     19  S   UNL     1       5.383   0.953  -1.989  0.00  0.00    -0.018 S 
BRANCH  18  20
ATOM     20  N   UNL     1       3.657   2.610  -0.836  0.00  0.00    -0.263 N 
ATOM     21  C   UNL     1       2.739   2.088  -1.673  0.00  0.00    +0.256 C 
ATOM     22  O   UNL     1       3.061   1.221  -2.465  0.00  0.00    -0.269 OA
ATOM     23  H   UNL     1       3.401   3.300  -0.205  0.00  0.00    +0.157 HD
BRANCH  21  24
ATOM     24  C   UNL     1       1.354   2.563  -1.630  0.00  0.00    +0.074 A 
ATOM     25  C   UNL     1       0.269   2.164  -2.395  0.00  0.00    +0.021 A 
ATOM     26  C   UNL     1      -0.931   2.784  -2.150  0.00  0.00    +0.008 A 
ATOM     27  C   UNL     1      -1.000   3.734  -1.181  0.00  0.00    +0.046 A 
ATOM     28  S   UNL     1       0.624   3.807  -0.580  0.00  0.00    -0.092 S 
ENDBRANCH  21  24
ENDBRANCH  18  20
ENDBRANCH  16  18
ENDBRANCH   4  16
TORSDOF 5
