REMARK  Name = ZINC04482821
REMARK  5 active torsions:
REMARK  status: ('A' for Active; 'I' for Inactive)
REMARK    1  A    between atoms: C_1  and  C_2
REMARK    2  A    between atoms: N_13  and  C_16
REMARK    3  A    between atoms: C_16  and  C_17
REMARK    4  A    between atoms: N_19  and  N_20
REMARK    5  A    between atoms: C_21  and  C_22
REMARK                            x       y       z     vdW  Elec       q    Type
REMARK                         _______ _______ _______ _____ _____    ______ ____
ROOT
ATOM      1  C   UNL     1       2.882   3.841  -3.020  0.00  0.00    +0.008 C 
ATOM      2  C   UNL     1       1.695   3.008  -2.533  0.00  0.00    -0.009 C 
ATOM      3  C   UNL     1       0.851   3.831  -1.556  0.00  0.00    +0.008 C 
ATOM      4  C   UNL     1      -0.461   3.104  -1.261  0.00  0.00    +0.037 C 
ATOM      5  C   UNL     1      -0.146   1.679  -0.814  0.00  0.00    -0.023 A 
ATOM      6  C   UNL     1       1.059   1.124  -1.082  0.00  0.00    -0.004 A 
ATOM      7  S   UNL     1       0.983  -0.509  -0.391  0.00  0.00    -0.073 S 
ATOM      8  C   UNL     1      -0.658  -0.446   0.253  0.00  0.00    +0.116 A 
ATOM      9  C   UNL     1      -1.097   0.852  -0.092  0.00  0.00    +0.076 A 
ATOM     10  C   UNL     1      -2.428   1.217   0.302  0.00  0.00    +0.263 A 
ATOM     11  O   UNL     1      -2.902   2.312   0.052  0.00  0.00    -0.267 OA
ATOM     12  N   UNL     1      -3.124   0.266   0.970  0.00  0.00    -0.290 N 
ATOM     13  C   UNL     1      -2.616  -0.957   1.257  0.00  0.00    +0.203 A 
ATOM     14  N   UNL     1      -1.403  -1.328   0.912  0.00  0.00    -0.230 NA
ATOM     15  C   UNL     1       2.207   1.756  -1.806  0.00  0.00    +0.046 C 
ENDROOT
BRANCH  12  16
ATOM     16  C   UNL     1      -4.490   0.574   1.401  0.00  0.00    +0.223 C 
BRANCH  16  17
ATOM     17  C   UNL     1      -5.460   0.182   0.317  0.00  0.00    +0.252 C 
ATOM     18  O   UNL     1      -5.051  -0.306  -0.715  0.00  0.00    -0.272 OA
ATOM     19  N   UNL     1      -6.782   0.375   0.494  0.00  0.00    -0.205 N 
ATOM     20  H   UNL     1      -7.109   0.765   1.319  0.00  0.00    +0.177 HD
BRANCH  19  21
ATOM     21  N   UNL     1      -7.684   0.010  -0.514  0.00  0.00    -0.186 NA
ATOM     22  C   UNL     1      -8.962   0.073  -0.296  0.00  0.00    +0.158 C 
BRANCH  22  23
ATOM     23  C   UNL     1      -9.464   0.349   1.063  0.00  0.00    +0.083 A 
ATOM     24  C   UNL     1     -10.832   0.545   1.269  0.00  0.00    +0.029 A 
ATOM     25  C   UNL     1     -11.288   0.797   2.551  0.00  0.00    +0.004 A 
ATOM     26  C   UNL     1     -10.363   0.858   3.584  0.00  0.00    +0.020 A 
ATOM     27  C   UNL     1      -9.022   0.661   3.308  0.00  0.00    +0.111 A 
ATOM     28  N   UNL     1      -8.613   0.416   2.081  0.00  0.00    -0.254 NA
ENDBRANCH  22  23
ENDBRANCH  19  21
ENDBRANCH  16  17
ENDBRANCH  12  16
TORSDOF 4
