REMARK  Name = ZINC19375354
REMARK  5 active torsions:
REMARK  status: ('A' for Active; 'I' for Inactive)
REMARK    1  A    between atoms: N_9  and  C_11
REMARK    2  A    between atoms: C_11  and  C_13
REMARK    3  A    between atoms: C_11  and  C_20
REMARK    4  A    between atoms: C_16  and  O_19
REMARK    5  A    between atoms: N_24  and  C_25
REMARK                            x       y       z     vdW  Elec       q    Type
REMARK                         _______ _______ _______ _____ _____    ______ ____
ROOT
ATOM      1  C   UNL     1       3.510   0.737  -0.027  0.00  0.00    +0.157 C 
ENDROOT
BRANCH   1  10
ATOM      2  C   UNL     1       4.703   6.626  -2.308  0.00  0.00    +0.000 A 
ATOM      3  C   UNL     1       3.679   6.706  -1.383  0.00  0.00    +0.000 A 
ATOM      4  C   UNL     1       3.278   5.574  -0.702  0.00  0.00    +0.005 A 
ATOM      5  C   UNL     1       3.897   4.356  -0.941  0.00  0.00    -0.030 A 
ATOM      6  C   UNL     1       4.916   4.277  -1.865  0.00  0.00    -0.042 A 
ATOM      7  C   UNL     1       5.320   5.415  -2.548  0.00  0.00    +0.004 A 
ATOM      8  C   UNL     1       5.612   2.974  -2.167  0.00  0.00    +0.051 C 
ATOM      9  C   UNL     1       5.331   1.963  -1.054  0.00  0.00    +0.090 C 
ATOM     10  N   UNL     1       3.878   1.916  -0.821  0.00  0.00    -0.285 NA
ATOM     11  C   UNL     1       3.428   3.150  -0.169  0.00  0.00    +0.120 C 
ENDBRANCH   1  10
BRANCH   1  12
ATOM     12  C   UNL     1       3.953   0.934   1.400  0.00  0.00    -0.023 A 
ATOM     13  C   UNL     1       5.073   0.275   1.872  0.00  0.00    +0.009 A 
ATOM     14  C   UNL     1       5.484   0.458   3.178  0.00  0.00    +0.046 A 
ATOM     15  C   UNL     1       4.766   1.295   4.019  0.00  0.00    +0.117 A 
ATOM     16  C   UNL     1       3.639   1.951   3.545  0.00  0.00    +0.046 A 
ATOM     17  C   UNL     1       3.236   1.769   2.236  0.00  0.00    +0.009 A 
BRANCH  15  18
ATOM     18  O   UNL     1       5.165   1.472   5.306  0.00  0.00    -0.507 OA
ATOM     19  H   UNL     1       4.594   2.136   5.973  0.00  0.00    +0.292 HD
ENDBRANCH  15  18
ENDBRANCH   1  12
BRANCH   1  20
ATOM     20  C   UNL     1       2.015   0.550  -0.068  0.00  0.00    +0.173 A 
ATOM     21  N   UNL     1       1.106   1.482   0.082  0.00  0.00    -0.111 NA
ATOM     22  N   UNL     1      -0.052   0.927  -0.018  0.00  0.00    -0.023 NA
ATOM     23  N   UNL     1       0.094  -0.334  -0.227  0.00  0.00    -0.044 NA
ATOM     24  N   UNL     1       1.355  -0.606  -0.264  0.00  0.00    -0.224 N 
BRANCH  24  25
ATOM     25  C   UNL     1       1.955  -1.925  -0.480  0.00  0.00    +0.111 C 
ATOM     26  C   UNL     1       1.514  -2.470  -1.840  0.00  0.00    +0.027 C 
ATOM     27  C   UNL     1       2.140  -3.848  -2.064  0.00  0.00    +0.002 C 
ATOM     28  C   UNL     1       1.683  -4.802  -0.960  0.00  0.00    +0.000 C 
ATOM     29  C   UNL     1       2.124  -4.257   0.400  0.00  0.00    +0.002 C 
ATOM     30  C   UNL     1       1.497  -2.880   0.625  0.00  0.00    +0.027 C 
ENDBRANCH  24  25
ENDBRANCH   1  20
TORSDOF 5
