REMARK  Name = ZINC20416512
REMARK  6 active torsions:
REMARK  status: ('A' for Active; 'I' for Inactive)
REMARK    1  A    between atoms: N_15  and  C_16
REMARK    2  A    between atoms: C_16  and  C_17
REMARK    3  A    between atoms: C_17  and  C_18
REMARK    4  A    between atoms: C_18  and  C_19
REMARK    5  A    between atoms: N_21  and  C_22
REMARK    6  A    between atoms: C_22  and  C_23
REMARK                            x       y       z     vdW  Elec       q    Type
REMARK                         _______ _______ _______ _____ _____    ______ ____
ROOT
ATOM      1  C   UNL     1      10.716  -2.210  -0.028  0.00  0.00    +0.123 C 
ENDROOT
BRANCH   1  16
ATOM      2  C   UNL     1      15.179   0.368   0.957  0.00  0.00    +0.001 A 
ATOM      3  C   UNL     1      14.032   0.851   0.343  0.00  0.00    +0.002 A 
ATOM      4  C   UNL     1      12.938   0.035   0.159  0.00  0.00    +0.026 A 
ATOM      5  C   UNL     1      12.979  -1.288   0.593  0.00  0.00    +0.050 A 
ATOM      6  C   UNL     1      14.143  -1.769   1.218  0.00  0.00    +0.009 A 
ATOM      7  C   UNL     1      15.238  -0.924   1.397  0.00  0.00    +0.010 A 
ATOM      8  C   UNL     1      13.882  -3.177   1.549  0.00  0.00    +0.033 A 
ATOM      9  C   UNL     1      14.642  -4.191   2.170  0.00  0.00    +0.143 A 
ATOM     10  N   UNL     1      14.138  -5.382   2.336  0.00  0.00    -0.179 NA
ATOM     11  N   UNL     1      12.842  -5.688   1.909  0.00  0.00    -0.242 N 
ATOM     12  H   UNL     1      12.438  -6.700   2.061  0.00  0.00    +0.192 HD
ATOM     13  C   UNL     1      12.073  -4.758   1.309  0.00  0.00    +0.289 A 
ATOM     14  O   UNL     1      10.943  -5.037   0.940  0.00  0.00    -0.264 OA
ATOM     15  C   UNL     1      12.587  -3.454   1.113  0.00  0.00    +0.118 A 
ATOM     16  N   UNL     1      12.059  -2.314   0.547  0.00  0.00    -0.335 N 
ENDBRANCH   1  16
BRANCH   1  17
ATOM     17  C   UNL     1       9.729  -1.774   1.058  0.00  0.00    +0.031 C 
BRANCH  17  18
ATOM     18  C   UNL     1       8.326  -1.665   0.457  0.00  0.00    +0.097 C 
BRANCH  18  19
ATOM     19  C   UNL     1       7.355  -1.236   1.526  0.00  0.00    +0.213 C 
ATOM     20  O   UNL     1       7.746  -1.037   2.657  0.00  0.00    -0.276 OA
ATOM     21  N   UNL     1       6.051  -1.073   1.226  0.00  0.00    -0.311 N 
ATOM     22  H   UNL     1       5.696  -1.253   0.201  0.00  0.00    +0.149 HD
BRANCH  21  23
ATOM     23  C   UNL     1       5.107  -0.655   2.265  0.00  0.00    +0.139 C 
BRANCH  23  24
ATOM     24  C   UNL     1       3.725  -0.548   1.674  0.00  0.00    -0.027 A 
ATOM     25  C   UNL     1       2.885  -1.646   1.677  0.00  0.00    +0.009 A 
ATOM     26  C   UNL     1       1.617  -1.553   1.135  0.00  0.00    +0.050 A 
ATOM     27  C   UNL     1       1.183  -0.356   0.589  0.00  0.00    +0.166 A 
ATOM     28  C   UNL     1       2.028   0.751   0.586  0.00  0.00    +0.167 A 
ATOM     29  C   UNL     1       3.298   0.650   1.131  0.00  0.00    +0.054 A 
ATOM     30  O   UNL     1       1.376   1.797  -0.001  0.00  0.00    -0.453 OA
ATOM     31  C   UNL     1      -0.018   1.436   0.010  0.00  0.00    +0.466 C 
ATOM     32  O   UNL     1       0.002  -0.004   0.002  0.00  0.00    -0.453 OA
ENDBRANCH  23  24
ENDBRANCH  21  23
ENDBRANCH  18  19
ENDBRANCH  17  18
ENDBRANCH   1  17
TORSDOF 6
