REMARK  Name = ZINC41070159
REMARK  6 active torsions:
REMARK  status: ('A' for Active; 'I' for Inactive)
REMARK    1  A    between atoms: C_1  and  C_2
REMARK    2  A    between atoms: C_2  and  C_3
REMARK    3  A    between atoms: N_8  and  S_9
REMARK    4  A    between atoms: S_9  and  C_12
REMARK    5  A    between atoms: C_17  and  N_18
REMARK    6  A    between atoms: N_18  and  N_19
REMARK                            x       y       z     vdW  Elec       q    Type
REMARK                         _______ _______ _______ _____ _____    ______ ____
ROOT
ATOM      1  C   UNL     1      -1.774   2.102  -1.947  0.00  0.00    +0.147 A 
ATOM      2  C   UNL     1      -1.748   2.971  -0.871  0.00  0.00    +0.048 A 
ATOM      3  C   UNL     1      -2.944   3.272  -0.233  0.00  0.00    +0.038 A 
ATOM      4  C   UNL     1      -4.116   2.699  -0.688  0.00  0.00    +0.128 A 
ATOM      5  N   UNL     1      -4.111   1.873  -1.716  0.00  0.00    -0.236 NA
ATOM      6  C   UNL     1      -2.992   1.566  -2.355  0.00  0.00    +0.159 A 
ATOM      7 BR   UNL     1      -2.969   4.453   1.244  0.00  0.00    -0.049 Br
ENDROOT
BRANCH   1   8
ATOM      8  S   UNL     1      -0.287   1.685  -2.795  0.00  0.00    +0.064 S 
ATOM      9  O   UNL     1       0.763   2.386  -2.142  0.00  0.00    -0.153 OA
ATOM     10  O   UNL     1      -0.555   1.833  -4.182  0.00  0.00    -0.153 OA
BRANCH   8  15
ATOM     11  C   UNL     1       0.667  -0.504  -1.365  0.00  0.00    +0.080 C 
ATOM     12  C   UNL     1       0.719  -2.033  -1.568  0.00  0.00    +0.022 C 
ATOM     13  C   UNL     1       0.569  -2.185  -3.105  0.00  0.00    +0.019 C 
ATOM     14  C   UNL     1      -0.407  -1.029  -3.438  0.00  0.00    +0.110 C 
ATOM     15  N   UNL     1      -0.012   0.072  -2.535  0.00  0.00    -0.173 NA
BRANCH  11  17
ATOM     16  C   UNL     1       0.657  -0.673   1.127  0.00  0.00    +0.005 C 
ATOM     17  C   UNL     1      -0.118  -0.174  -0.094  0.00  0.00    +0.017 C 
ENDBRANCH  11  17
ENDBRANCH   8  15
ENDBRANCH   1   8
BRANCH   6  18
ATOM     18  N   UNL     1      -3.033   0.696  -3.439  0.00  0.00    -0.266 N 
ATOM     19  H   UNL     1      -2.209   0.409  -3.862  0.00  0.00    +0.167 HD
BRANCH  18  20
ATOM     20  N   UNL     1      -4.234   0.246  -3.908  0.00  0.00    -0.255 NA
ATOM     21  H   UNL     1      -4.107  -0.374  -4.693  0.00  0.00    +0.140 HD
ATOM     22  H   UNL     1      -4.763  -0.203  -3.175  0.00  0.00    +0.140 HD
ENDBRANCH  18  20
ENDBRANCH   6  18
TORSDOF 5
