REMARK  Name = ZINC15219729
REMARK  5 active torsions:
REMARK  status: ('A' for Active; 'I' for Inactive)
REMARK    1  A    between atoms: C_1  and  C_2
REMARK    2  A    between atoms: C_9  and  C_15
REMARK    3  A    between atoms: C_11  and  O_14
REMARK    4  A    between atoms: C_17  and  C_28
REMARK    5  A    between atoms: N_19  and  C_22
REMARK                            x       y       z     vdW  Elec       q    Type
REMARK                         _______ _______ _______ _____ _____    ______ ____
ROOT
ATOM      1  C   UNL     1       1.300  -4.916   2.949  0.00  0.00    +0.009 C 
ATOM      2  C   UNL     1       1.178  -5.482   4.168  0.00  0.00    +0.064 C 
ATOM      3  C   UNL     1      -0.073  -5.812   4.893  0.00  0.00    +0.102 C 
ATOM      4  N   UNL     1       0.268  -6.344   6.033  0.00  0.00    -0.171 NA
ATOM      5  N   UNL     1       1.654  -6.416   6.171  0.00  0.00    -0.156 N 
ATOM      6  C   UNL     1       2.263  -5.918   5.076  0.00  0.00    +0.272 C 
ATOM      7  O   UNL     1       3.461  -5.840   4.876  0.00  0.00    -0.268 OA
ENDROOT
BRANCH   1  16
ATOM      8  C   UNL     1       0.015   1.347  -0.159  0.00  0.00    +0.044 C 
ATOM      9  C   UNL     1       0.028  -0.160  -0.139  0.00  0.00    -0.050 A 
ATOM     10  C   UNL     1       0.028  -0.858  -1.343  0.00  0.00    +0.005 A 
ATOM     11  C   UNL     1       0.040  -2.220  -1.384  0.00  0.00    +0.024 A 
ATOM     12  C   UNL     1       0.052  -2.957  -0.188  0.00  0.00    +0.044 A 
ATOM     13  N   UNL     1       0.064  -4.296  -0.231  0.00  0.00    -0.284 N 
ATOM     14  C   UNL     1       0.076  -5.058   0.844  0.00  0.00    +0.231 C 
ATOM     15  O   UNL     1       0.086  -6.270   0.729  0.00  0.00    -0.274 OA
ATOM     16  C   UNL     1       0.076  -4.429   2.218  0.00  0.00    +0.164 C 
ATOM     17  C   UNL     1       0.063  -2.914   2.291  0.00  0.00    +0.119 C 
ATOM     18  C   UNL     1       0.052  -2.221   1.079  0.00  0.00    +0.035 A 
ATOM     19  C   UNL     1       0.044  -0.811   1.056  0.00  0.00    +0.016 A 
ATOM     20  H   UNL     1       0.064  -4.727  -1.100  0.00  0.00    +0.155 HD
BRANCH  17  21
ATOM     21  O   UNL     1       0.062  -2.272   3.463  0.00  0.00    -0.509 OA
ATOM     22  H   UNL     1       0.053  -1.308   3.384  0.00  0.00    +0.292 HD
ENDBRANCH  17  21
ENDBRANCH   1  16
BRANCH   5  23
ATOM     23  C   UNL     1       2.319  -6.938   7.286  0.00  0.00    +0.060 A 
ATOM     24  C   UNL     1       3.707  -6.956   7.323  0.00  0.00    +0.025 A 
ATOM     25  C   UNL     1       4.361  -7.472   8.425  0.00  0.00    +0.002 A 
ATOM     26  C   UNL     1       3.634  -7.970   9.491  0.00  0.00    +0.000 A 
ATOM     27  C   UNL     1       2.252  -7.954   9.458  0.00  0.00    +0.002 A 
ATOM     28  C   UNL     1       1.592  -7.433   8.361  0.00  0.00    +0.025 A 
ENDBRANCH   5  23
BRANCH   3  29
ATOM     29  C   UNL     1      -1.454  -5.580   4.411  0.00  0.00    +0.003 A 
ATOM     30  C   UNL     1      -2.133  -6.584   3.720  0.00  0.00    +0.010 A 
ATOM     31  C   UNL     1      -3.419  -6.361   3.274  0.00  0.00    +0.001 A 
ATOM     32  C   UNL     1      -4.036  -5.145   3.510  0.00  0.00    +0.000 A 
ATOM     33  C   UNL     1      -3.367  -4.145   4.193  0.00  0.00    +0.001 A 
ATOM     34  C   UNL     1      -2.083  -4.358   4.650  0.00  0.00    +0.010 A 
ENDBRANCH   3  29
TORSDOF 4
