REMARK  Name = ZINC67555271
REMARK  6 active torsions:
REMARK  status: ('A' for Active; 'I' for Inactive)
REMARK    1  A    between atoms: C_1  and  S_2
REMARK    2  A    between atoms: S_2  and  C_3
REMARK    3  A    between atoms: C_3  and  C_4
REMARK    4  A    between atoms: C_7  and  N_10
REMARK    5  A    between atoms: C_11  and  C_13
REMARK    6  A    between atoms: N_15  and  C_16
REMARK                            x       y       z     vdW  Elec       q    Type
REMARK                         _______ _______ _______ _____ _____    ______ ____
ROOT
ATOM      1  C   UNL     1      -2.174  -8.298   1.135  0.00  0.00    +0.300 C 
ATOM      2  O   UNL     1      -2.229  -8.894   0.079  0.00  0.00    -0.265 OA
ATOM      3  N   UNL     1      -2.122  -8.984   2.294  0.00  0.00    -0.301 N 
ATOM      4  H   UNL     1      -2.078  -8.508   3.138  0.00  0.00    +0.150 HD
ENDROOT
BRANCH   3   5
ATOM      5  C   UNL     1      -2.132 -10.449   2.279  0.00  0.00    +0.104 C 
ATOM      6  C   UNL     1      -1.492 -11.002   3.570  0.00  0.00    +0.032 C 
ATOM      7  C   UNL     1      -2.322 -12.276   3.833  0.00  0.00    +0.037 C 
ATOM      8  C   UNL     1      -3.664 -12.014   3.184  0.00  0.00    -0.041 A 
ATOM      9  C   UNL     1      -3.555 -10.964   2.288  0.00  0.00    -0.024 A 
ATOM     10  C   UNL     1      -4.665 -10.548   1.572  0.00  0.00    +0.007 A 
ATOM     11  C   UNL     1      -5.881 -11.178   1.746  0.00  0.00    +0.020 A 
ATOM     12  C   UNL     1      -5.993 -12.228   2.639  0.00  0.00    +0.041 A 
ATOM     13  C   UNL     1      -4.884 -12.645   3.361  0.00  0.00    +0.024 A 
ATOM     14 CL   UNL     1      -7.521 -13.021   2.862  0.00  0.00    -0.084 Cl
ENDBRANCH   3   5
BRANCH   1  16
ATOM     15  N   UNL     1      -2.216  -6.119  -0.010  0.00  0.00    -0.278 N 
ATOM     16  C   UNL     1      -2.164  -6.805   1.149  0.00  0.00    +0.303 C 
ATOM     17  O   UNL     1      -2.108  -6.209   2.205  0.00  0.00    -0.265 OA
ATOM     18  H   UNL     1      -2.337  -6.592  -0.848  0.00  0.00    +0.155 HD
BRANCH  15  22
ATOM     19  C   UNL     1      -1.858  -1.970   0.009  0.00  0.00    -0.037 A 
ATOM     20  C   UNL     1      -2.664  -2.589  -0.929  0.00  0.00    +0.006 A 
ATOM     21  C   UNL     1      -2.786  -3.965  -0.938  0.00  0.00    +0.023 A 
ATOM     22  C   UNL     1      -2.095  -4.727  -0.004  0.00  0.00    +0.034 A 
ATOM     23  C   UNL     1      -1.285  -4.102   0.936  0.00  0.00    +0.023 A 
ATOM     24  C   UNL     1      -1.165  -2.727   0.936  0.00  0.00    +0.006 A 
BRANCH  19  25
ATOM     25  C   UNL     1      -1.728  -0.469   0.015  0.00  0.00    +0.104 C 
BRANCH  25  27
ATOM     26  C   UNL     1      -0.331   1.834  -0.943  0.00  0.00    +0.084 C 
ATOM     27  S   UNL     1      -0.352   0.024  -1.060  0.00  0.00    -0.159 S 
ENDBRANCH  25  27
ENDBRANCH  19  25
ENDBRANCH  15  22
ENDBRANCH   1  16
TORSDOF 5
