REMARK  Name = ZINC66857780
REMARK  9 active torsions:
REMARK  status: ('A' for Active; 'I' for Inactive)
REMARK    1  A    between atoms: C_1  and  C_2
REMARK    2  A    between atoms: C_2  and  C_3
REMARK    3  A    between atoms: C_3  and  C_4
REMARK    4  A    between atoms: C_4  and  C_5
REMARK    5  A    between atoms: C_5  and  C_7
REMARK    6  A    between atoms: C_5  and  N_24
REMARK    7  A    between atoms: N_9  and  C_10
REMARK    8  A    between atoms: N_14  and  C_15
REMARK    9  A    between atoms: C_15  and  C_16
REMARK                            x       y       z     vdW  Elec       q    Type
REMARK                         _______ _______ _______ _____ _____    ______ ____
ROOT
ATOM      1  C   UNL     1       1.417  -4.051   2.529  0.00  0.00    +0.239 C 
ATOM      2  O   UNL     1       2.354  -4.726   2.156  0.00  0.00    -0.273 OA
ATOM      3  N   UNL     1       0.301  -4.646   2.994  0.00  0.00    -0.269 N 
ATOM      4  H   UNL     1      -0.448  -4.106   3.292  0.00  0.00    +0.156 HD
ENDROOT
BRANCH   3   5
ATOM      5  C   UNL     1       0.222  -6.037   3.046  0.00  0.00    +0.124 A 
ATOM      6  C   UNL     1       1.193  -6.913   2.668  0.00  0.00    +0.065 A 
ATOM      7  C   UNL     1       0.710  -8.206   2.882  0.00  0.00    +0.136 A 
ATOM      8  N   UNL     1      -0.501  -8.118   3.369  0.00  0.00    -0.178 NA
ATOM      9  N   UNL     1      -0.832  -6.762   3.487  0.00  0.00    -0.246 N 
BRANCH   9  10
ATOM     10  C   UNL     1      -2.096  -6.224   3.995  0.00  0.00    +0.180 C 
BRANCH  10  11
ATOM     11  C   UNL     1      -3.067  -6.059   2.854  0.00  0.00    -0.023 A 
ATOM     12  C   UNL     1      -3.106  -4.871   2.147  0.00  0.00    +0.007 A 
ATOM     13  C   UNL     1      -3.995  -4.718   1.100  0.00  0.00    +0.023 A 
ATOM     14  C   UNL     1      -4.847  -5.753   0.759  0.00  0.00    +0.076 A 
ATOM     15  C   UNL     1      -4.808  -6.943   1.467  0.00  0.00    +0.142 A 
ATOM     16  C   UNL     1      -3.913  -7.096   2.512  0.00  0.00    +0.045 A 
ATOM     17  F   UNL     1      -5.640  -7.955   1.135  0.00  0.00    -0.204 F 
ATOM     18 CL   UNL     1      -5.965  -5.560  -0.555  0.00  0.00    -0.081 Cl
ENDBRANCH  10  11
ENDBRANCH   9  10
ENDBRANCH   3   5
BRANCH   1  19
ATOM     19  C   UNL     1       1.503  -2.548   2.473  0.00  0.00    +0.161 C 
BRANCH  19  20
ATOM     20  N   UNL     1       2.908  -2.140   2.403  0.00  0.00    -0.288 N 
ATOM     21  C   UNL     1       3.678  -2.549   1.374  0.00  0.00    +0.298 C 
ATOM     22  O   UNL     1       3.206  -3.255   0.505  0.00  0.00    -0.253 OA
ATOM     23  N   UNL     1       4.971  -2.175   1.310  0.00  0.00    -0.313 N 
ATOM     24  H   UNL     1       3.285  -1.577   3.097  0.00  0.00    +0.151 HD
ATOM     25  H   UNL     1       5.348  -1.611   2.004  0.00  0.00    +0.146 HD
ATOM     26  H   UNL     1       5.525  -2.469   0.570  0.00  0.00    +0.146 HD
ENDBRANCH  19  20
BRANCH  19  27
ATOM     27  C   UNL     1       0.763  -2.041   1.233  0.00  0.00    +0.032 C 
BRANCH  27  28
ATOM     28  C   UNL     1       0.742  -0.511   1.242  0.00  0.00    +0.002 C 
BRANCH  28  30
ATOM     29  C   UNL     1      -0.019   1.526   0.010  0.00  0.00    +0.004 C 
ATOM     30  C   UNL     1       0.002  -0.004   0.002  0.00  0.00    -0.003 C 
ENDBRANCH  28  30
ENDBRANCH  27  28
ENDBRANCH  19  27
ENDBRANCH   1  19
TORSDOF 8
