REMARK  Name = ZINC13249316
REMARK  4 active torsions:
REMARK  status: ('A' for Active; 'I' for Inactive)
REMARK    1  A    between atoms: C_3  and  N_17
REMARK    2  A    between atoms: C_6  and  C_7
REMARK    3  A    between atoms: C_18  and  C_20
REMARK    4  A    between atoms: C_26  and  C_28
REMARK                            x       y       z     vdW  Elec       q    Type
REMARK                         _______ _______ _______ _____ _____    ______ ____
ROOT
ATOM      1  C   UNL     1       2.093  -3.210   1.983  0.00  0.00    +0.013 A 
ATOM      2  C   UNL     1       2.612  -4.356   2.547  0.00  0.00    +0.024 A 
ATOM      3  C   UNL     1       2.122  -5.601   2.170  0.00  0.00    +0.033 A 
ATOM      4  C   UNL     1       1.104  -5.694   1.228  0.00  0.00    +0.024 A 
ATOM      5  C   UNL     1       0.577  -4.552   0.665  0.00  0.00    +0.013 A 
ATOM      6  C   UNL     1       1.067  -3.301   1.041  0.00  0.00    +0.019 A 
ENDROOT
BRANCH   6   7
ATOM      7  C   UNL     1       0.504  -2.073   0.439  0.00  0.00    +0.164 A 
ATOM      8  N   UNL     1      -0.189  -1.993  -0.677  0.00  0.00    -0.129 NA
ATOM      9  N   UNL     1      -0.525  -0.769  -0.894  0.00  0.00    -0.134 NA
ATOM     10  C   UNL     1      -0.077  -0.009   0.065  0.00  0.00    +0.134 A 
ATOM     11  N   UNL     1       0.602  -0.805   0.934  0.00  0.00    -0.311 N 
ATOM     12  C   UNL     1       1.301  -0.376   2.145  0.00  0.00    +0.125 C 
ATOM     13  C   UNL     1       0.634   0.889   2.695  0.00  0.00    +0.022 C 
ATOM     14  C   UNL     1       1.278   2.124   2.068  0.00  0.00    +0.002 C 
ATOM     15  C   UNL     1       1.085   2.121   0.555  0.00  0.00    +0.008 C 
ATOM     16  C   UNL     1      -0.263   1.480   0.210  0.00  0.00    +0.076 C 
ENDBRANCH   6   7
BRANCH   3  17
ATOM     17  N   UNL     1       2.655  -6.761   2.738  0.00  0.00    -0.285 N 
ATOM     18  C   UNL     1       3.970  -6.828   3.028  0.00  0.00    +0.221 C 
ATOM     19  O   UNL     1       4.675  -5.854   2.871  0.00  0.00    -0.275 OA
ATOM     20  H   UNL     1       2.078  -7.519   2.925  0.00  0.00    +0.155 HD
BRANCH  18  21
ATOM     21  C   UNL     1       4.563  -8.112   3.546  0.00  0.00    +0.093 C 
ATOM     22  C   UNL     1       5.952  -8.319   2.939  0.00  0.00    +0.040 C 
ATOM     23  C   UNL     1       6.918  -7.321   3.507  0.00  0.00    -0.030 C 
ATOM     24  C   UNL     1       6.708  -6.643   4.590  0.00  0.00    -0.030 C 
ATOM     25  C   UNL     1       5.464  -6.753   5.422  0.00  0.00    +0.042 C 
ATOM     26  C   UNL     1       4.707  -8.035   5.072  0.00  0.00    +0.118 C 
BRANCH  26  27
ATOM     27  C   UNL     1       3.341  -8.012   5.708  0.00  0.00    +0.360 C 
ATOM     28  O   UNL     1       2.351  -8.053   5.017  0.00  0.00    -0.246 OA
ATOM     29  O   UNL     1       3.225  -7.946   7.044  0.00  0.00    -0.246 OA
ENDBRANCH  26  27
ENDBRANCH  18  21
ENDBRANCH   3  17
TORSDOF 4
