REMARK  Name = ZINC05128757
REMARK  9 active torsions:
REMARK  status: ('A' for Active; 'I' for Inactive)
REMARK    1  A    between atoms: C_1  and  C_2
REMARK    2  A    between atoms: C_2  and  C_3
REMARK    3  A    between atoms: C_2  and  C_4
REMARK    4  A    between atoms: C_4  and  C_5
REMARK    5  A    between atoms: C_5  and  N_6
REMARK    6  A    between atoms: N_14  and  N_15
REMARK    7  A    between atoms: C_16  and  C_18
REMARK    8  A    between atoms: C_20  and  N_25
REMARK    9  A    between atoms: C_23  and  O_24
REMARK                            x       y       z     vdW  Elec       q    Type
REMARK                         _______ _______ _______ _____ _____    ______ ____
ROOT
ATOM      1  N   UNL     1       8.195   2.539  -0.358  0.00  0.00    -0.265 N 
ATOM      2  C   UNL     1       7.523   3.755  -0.287  0.00  0.00    +0.046 A 
ATOM      3  C   UNL     1       7.982   5.067  -0.326  0.00  0.00    +0.025 A 
ATOM      4  C   UNL     1       7.090   6.116  -0.233  0.00  0.00    +0.022 A 
ATOM      5  C   UNL     1       5.731   5.878  -0.103  0.00  0.00    +0.042 A 
ATOM      6  C   UNL     1       5.257   4.581  -0.063  0.00  0.00    +0.032 A 
ATOM      7  C   UNL     1       6.149   3.518  -0.154  0.00  0.00    +0.030 A 
ATOM      8  C   UNL     1       5.978   2.046  -0.144  0.00  0.00    +0.153 C 
ATOM      9  N   UNL     1       4.857   1.374  -0.038  0.00  0.00    -0.174 NA
ATOM     10  C   UNL     1       7.344   1.502  -0.273  0.00  0.00    +0.271 C 
ATOM     11  O   UNL     1       7.646   0.324  -0.300  0.00  0.00    -0.268 OA
ATOM     12 CL   UNL     1       4.623   7.210   0.011  0.00  0.00    -0.084 Cl
ENDROOT
BRANCH   9  13
ATOM     13  N   UNL     1       3.656   2.049   0.216  0.00  0.00    -0.202 N 
ATOM     14  C   UNL     1       2.488   1.376   0.203  0.00  0.00    +0.267 C 
ATOM     15  O   UNL     1       2.477   0.183  -0.030  0.00  0.00    -0.268 OA
ATOM     16  H   UNL     1       3.665   3.001   0.402  0.00  0.00    +0.178 HD
BRANCH  14  17
ATOM     17  C   UNL     1       1.225   2.087   0.470  0.00  0.00    +0.081 A 
ATOM     18  C   UNL     1       1.233   3.458   0.737  0.00  0.00    +0.039 A 
ATOM     19  C   UNL     1       0.043   4.118   0.987  0.00  0.00    +0.025 A 
ATOM     20  C   UNL     1      -1.160   3.420   0.973  0.00  0.00    +0.026 A 
ATOM     21  C   UNL     1      -1.177   2.066   0.703  0.00  0.00    +0.048 A 
ATOM     22  C   UNL     1       0.009   1.390   0.457  0.00  0.00    +0.129 A 
BRANCH  19  23
ATOM     23  N   UNL     1       0.049   5.492   1.255  0.00  0.00    -0.358 N 
ATOM     24  H   UNL     1       0.887   5.980   1.266  0.00  0.00    +0.142 HD
ATOM     25  H   UNL     1      -0.784   5.956   1.430  0.00  0.00    +0.142 HD
ENDBRANCH  19  23
BRANCH  22  26
ATOM     26  O   UNL     1      -0.009   0.057   0.199  0.00  0.00    -0.506 OA
ATOM     27  H   UNL     1       0.073  -0.497   0.986  0.00  0.00    +0.292 HD
ENDBRANCH  22  26
ENDBRANCH  14  17
ENDBRANCH   9  13
BRANCH   1  28
ATOM     28  C   UNL     1       9.647   2.405  -0.499  0.00  0.00    +0.114 C 
BRANCH  28  29
ATOM     29  C   UNL     1      10.292   2.353   0.887  0.00  0.00    +0.022 C 
BRANCH  29  31
ATOM     30  C   UNL     1      12.374   3.471   0.077  0.00  0.00    +0.007 C 
ATOM     31  C   UNL     1      11.808   2.213   0.739  0.00  0.00    -0.016 C 
ATOM     32  C   UNL     1      12.441   2.035   2.120  0.00  0.00    +0.007 C 
ENDBRANCH  29  31
ENDBRANCH  28  29
ENDBRANCH   1  28
TORSDOF 7
