REMARK  Name = ZINC04176366
REMARK  4 active torsions:
REMARK  status: ('A' for Active; 'I' for Inactive)
REMARK    1  A    between atoms: C_4  and  C_7
REMARK    2  A    between atoms: C_21  and  S_22
REMARK    3  A    between atoms: S_22  and  C_23
REMARK    4  A    between atoms: C_23  and  C_24
REMARK                            x       y       z     vdW  Elec       q    Type
REMARK                         _______ _______ _______ _____ _____    ______ ____
ROOT
ATOM      1  C   UNL     1       7.247   0.263  -0.066  0.00  0.00    +0.224 C 
ATOM      2  C   UNL     1       5.735   0.178  -0.052  0.00  0.00    +0.256 C 
ATOM      3  O   UNL     1       5.056  -0.826  -0.051  0.00  0.00    -0.272 OA
ATOM      4  N   UNL     1       5.302   1.460  -0.041  0.00  0.00    -0.200 N 
ATOM      5  C   UNL     1       6.378   2.331  -0.046  0.00  0.00    +0.139 C 
ATOM      6  N   UNL     1       7.522   1.706  -0.061  0.00  0.00    -0.250 NA
ATOM      7  C   UNL     1       6.077   3.779  -0.036  0.00  0.00    +0.041 A 
ATOM      8  C   UNL     1       7.091   4.731  -0.041  0.00  0.00    +0.013 A 
ATOM      9  C   UNL     1       6.764   6.072  -0.030  0.00  0.00    +0.001 A 
ATOM     10  C   UNL     1       5.436   6.473  -0.016  0.00  0.00    +0.002 A 
ATOM     11  C   UNL     1       4.419   5.544  -0.012  0.00  0.00    +0.028 A 
ATOM     12  C   UNL     1       4.726   4.181  -0.021  0.00  0.00    +0.077 A 
ATOM     13  N   UNL     1       3.749   3.239  -0.022  0.00  0.00    -0.225 NA
ATOM     14  C   UNL     1       4.017   1.961  -0.026  0.00  0.00    +0.169 C 
ENDROOT
BRANCH   1  18
ATOM     15  C   UNL     1       8.815  -1.548  -3.602  0.00  0.00    +0.000 A 
ATOM     16  C   UNL     1       8.818  -2.246  -2.409  0.00  0.00    +0.000 A 
ATOM     17  C   UNL     1       8.310  -1.660  -1.264  0.00  0.00    +0.006 A 
ATOM     18  C   UNL     1       7.800  -0.376  -1.313  0.00  0.00    -0.014 A 
ATOM     19  C   UNL     1       7.792   0.320  -2.508  0.00  0.00    +0.006 A 
ATOM     20  C   UNL     1       8.304  -0.265  -3.651  0.00  0.00    +0.000 A 
ENDBRANCH   1  18
BRANCH  14  21
ATOM     21  S   UNL     1       2.672   0.823  -0.019  0.00  0.00    -0.080 S 
BRANCH  21  22
ATOM     22  C   UNL     1       1.280   1.980   0.001  0.00  0.00    +0.172 C 
BRANCH  22  23
ATOM     23  C   UNL     1      -0.014   1.209   0.009  0.00  0.00    +0.221 C 
ATOM     24  O   UNL     1       0.002  -0.004   0.002  0.00  0.00    -0.275 OA
ATOM     25  N   UNL     1      -1.191   1.867   0.018  0.00  0.00    -0.329 N 
ATOM     26  H   UNL     1      -2.024   1.370   0.019  0.00  0.00    +0.145 HD
ATOM     27  H   UNL     1      -1.204   2.837   0.023  0.00  0.00    +0.145 HD
ENDBRANCH  22  23
ENDBRANCH  21  22
ENDBRANCH  14  21
TORSDOF 4
