REMARK  Name = ZINC34895448
REMARK  1 active torsions:
REMARK  status: ('A' for Active; 'I' for Inactive)
REMARK    1  A    between atoms: N_20  and  C_23
REMARK                            x       y       z     vdW  Elec       q    Type
REMARK                         _______ _______ _______ _____ _____    ______ ____
ROOT
ATOM      1  C   UNL     1      -0.016   1.390  -0.042  0.00  0.00    +0.000 A 
ATOM      2  C   UNL     1       1.169   2.102  -0.092  0.00  0.00    +0.002 A 
ATOM      3  C   UNL     1       2.377   1.439  -0.132  0.00  0.00    +0.023 A 
ATOM      4  C   UNL     1       2.414   0.046  -0.123  0.00  0.00    +0.036 A 
ATOM      5  C   UNL     1       1.215  -0.659  -0.072  0.00  0.00    -0.027 A 
ATOM      6  C   UNL     1       0.011   0.007  -0.031  0.00  0.00    +0.004 A 
ATOM      7  C   UNL     1       1.593  -2.114  -0.075  0.00  0.00    +0.053 C 
ATOM      8  C   UNL     1       0.988  -2.848  -1.277  0.00  0.00    +0.089 C 
ATOM      9  C   UNL     1      -0.267  -3.566  -0.710  0.00  0.00    +0.074 C 
ATOM     10  C   UNL     1      -0.312  -3.184   0.781  0.00  0.00    -0.054 C 
ATOM     11  N   UNL     1       1.097  -2.805   1.127  0.00  0.00    +0.395 N 
ATOM     12  C   UNL     1       1.819  -4.090   1.282  0.00  0.00    -0.076 C 
ATOM     13  C   UNL     1       0.809  -5.041   1.956  0.00  0.00    -0.020 C 
ATOM     14  C   UNL     1      -0.612  -4.441   1.618  0.00  0.00    -0.016 C 
ATOM     15  C   UNL     1       0.073  -5.032  -0.857  0.00  0.00    +0.228 C 
ATOM     16  O   UNL     1      -0.643  -5.953  -0.529  0.00  0.00    -0.275 OA
ATOM     17  N   UNL     1       1.287  -5.153  -1.406  0.00  0.00    -0.209 N 
ATOM     18  C   UNL     1       1.899  -3.982  -1.693  0.00  0.00    +0.229 C 
ATOM     19  O   UNL     1       2.994  -3.852  -2.197  0.00  0.00    -0.275 OA
ATOM     20  C   UNL     1       3.098  -2.125  -0.130  0.00  0.00    +0.212 C 
ATOM     21  O   UNL     1       3.814  -3.103  -0.149  0.00  0.00    -0.277 OA
ATOM     22  N   UNL     1       3.494  -0.838  -0.156  0.00  0.00    -0.286 N 
ATOM     23  H   UNL     1       4.422  -0.558  -0.193  0.00  0.00    +0.155 HD
ATOM     24  H   UNL     1       1.146  -2.226   1.952  0.00  0.00    -0.079 HD
ENDROOT
BRANCH  17  25
ATOM     25  C   UNL     1       1.880  -6.397  -1.668  0.00  0.00    +0.058 A 
ATOM     26  C   UNL     1       2.722  -6.979  -0.730  0.00  0.00    +0.025 A 
ATOM     27  C   UNL     1       3.303  -8.204  -0.991  0.00  0.00    +0.002 A 
ATOM     28  C   UNL     1       3.048  -8.852  -2.186  0.00  0.00    +0.001 A 
ATOM     29  C   UNL     1       2.210  -8.276  -3.123  0.00  0.00    +0.017 A 
ATOM     30  C   UNL     1       1.621  -7.052  -2.865  0.00  0.00    +0.040 A 
ATOM     31 BR   UNL     1       0.469  -6.268  -4.144  0.00  0.00    -0.048 Br
ENDBRANCH  17  25
TORSDOF 1
