REMARK  Name = ZINC00481033
REMARK  4 active torsions:
REMARK  status: ('A' for Active; 'I' for Inactive)
REMARK    1  A    between atoms: C_1  and  C_2
REMARK    2  A    between atoms: C_2  and  C_3
REMARK    3  A    between atoms: C_2  and  N_4
REMARK    4  A    between atoms: C_20  and  C_22
REMARK                            x       y       z     vdW  Elec       q    Type
REMARK                         _______ _______ _______ _____ _____    ______ ____
ROOT
ATOM      1  N   UNL     1       3.491   3.619   0.330  0.00  0.00    -0.297 N 
ATOM      2  C   UNL     1       2.220   3.338   0.678  0.00  0.00    +0.303 C 
ATOM      3  O   UNL     1       1.657   4.012   1.520  0.00  0.00    -0.253 OA
ATOM      4  N   UNL     1       1.572   2.310   0.095  0.00  0.00    -0.269 N 
ATOM      5  C   UNL     1       0.149   2.045   0.375  0.00  0.00    +0.147 C 
ATOM      6  C   UNL     1      -0.124   0.575   0.531  0.00  0.00    -0.006 A 
ATOM      7  C   UNL     1      -0.336   0.022   1.777  0.00  0.00    +0.007 A 
ATOM      8  C   UNL     1      -0.632  -1.324   1.893  0.00  0.00    +0.000 A 
ATOM      9  C   UNL     1      -0.720  -2.119   0.765  0.00  0.00    +0.002 A 
ATOM     10  C   UNL     1      -0.489  -1.576  -0.485  0.00  0.00    +0.026 A 
ATOM     11  C   UNL     1      -0.169  -0.234  -0.600  0.00  0.00    +0.051 A 
ATOM     12  N   UNL     1       0.196   0.321  -1.836  0.00  0.00    -0.318 N 
ATOM     13  C   UNL     1      -0.429   0.225  -3.037  0.00  0.00    +0.091 A 
ATOM     14  C   UNL     1       0.293   0.923  -3.941  0.00  0.00    +0.020 A 
ATOM     15  C   UNL     1       1.407   1.468  -3.266  0.00  0.00    +0.025 A 
ATOM     16  C   UNL     1       1.323   1.087  -1.982  0.00  0.00    +0.049 A 
ATOM     17  C   UNL     1       2.262   1.407  -0.848  0.00  0.00    +0.155 C 
ATOM     18  H   UNL     1       3.916   3.129  -0.391  0.00  0.00    +0.150 HD
ENDROOT
BRANCH  17  19
ATOM     19  C   UNL     1       2.652   0.136  -0.139  0.00  0.00    -0.021 A 
ATOM     20  C   UNL     1       2.858   0.142   1.228  0.00  0.00    +0.006 A 
ATOM     21  C   UNL     1       3.211  -1.025   1.879  0.00  0.00    +0.000 A 
ATOM     22  C   UNL     1       3.367  -2.196   1.162  0.00  0.00    +0.000 A 
ATOM     23  C   UNL     1       3.165  -2.202  -0.205  0.00  0.00    +0.000 A 
ATOM     24  C   UNL     1       2.808  -1.036  -0.856  0.00  0.00    +0.006 A 
ENDBRANCH  17  19
BRANCH   1  26
ATOM     25  C   UNL     1       5.732   4.389   0.932  0.00  0.00    +0.027 C 
ATOM     26  C   UNL     1       4.231   4.664   1.041  0.00  0.00    +0.068 C 
ATOM     27  C   UNL     1       3.915   6.026   0.419  0.00  0.00    +0.027 C 
ENDBRANCH   1  26
TORSDOF 2
