REMARK  Name = ZINC06015051
REMARK  11 active torsions:
REMARK  status: ('A' for Active; 'I' for Inactive)
REMARK    1  A    between atoms: C_1  and  C_2
REMARK    2  A    between atoms: C_2  and  C_3
REMARK    3  A    between atoms: C_2  and  C_4
REMARK    4  A    between atoms: C_2  and  N_5
REMARK    5  A    between atoms: C_6  and  C_10
REMARK    6  A    between atoms: C_10  and  C_12
REMARK    7  A    between atoms: C_10  and  N_68
REMARK    8  A    between atoms: C_27  and  C_28
REMARK    9  A    between atoms: C_27  and  N_68
REMARK   10  A    between atoms: C_34  and  C_35
REMARK   11  A    between atoms: C_34  and  N_68
REMARK                            x       y       z     vdW  Elec       q    Type
REMARK                         _______ _______ _______ _____ _____    ______ ____
ROOT
ATOM      1  C   UNL     1       4.939   0.868   0.284  0.00  0.00    +0.040 C 
ENDROOT
BRANCH   1   2
ATOM      2  C   UNL     1       5.843   1.738   1.118  0.00  0.00    +0.011 A 
ATOM      3  C   UNL     1       6.806   2.484   0.518  0.00  0.00    +0.017 A 
ATOM      4  C   UNL     1       7.664   3.322   1.354  0.00  0.00    +0.002 A 
ATOM      5  C   UNL     1       8.669   4.117   0.789  0.00  0.00    +0.059 A 
ATOM      6  C   UNL     1       9.467   4.891   1.602  0.00  0.00    +0.167 A 
ATOM      7  C   UNL     1       9.275   4.885   2.990  0.00  0.00    +0.168 A 
ATOM      8  C   UNL     1       8.285   4.104   3.557  0.00  0.00    +0.075 A 
ATOM      9  C   UNL     1       7.472   3.318   2.749  0.00  0.00    +0.053 A 
ATOM     10  N   UNL     1       6.478   2.533   3.297  0.00  0.00    -0.322 N 
ATOM     11  H   UNL     1       6.342   2.531   4.288  0.00  0.00    +0.169 HD
ATOM     12  C   UNL     1       5.691   1.770   2.519  0.00  0.00    +0.251 A 
ATOM     13  O   UNL     1       4.823   1.089   3.038  0.00  0.00    -0.268 OA
ATOM     14  O   UNL     1      10.187   5.728   3.556  0.00  0.00    -0.453 OA
ATOM     15  C   UNL     1      11.199   5.931   2.552  0.00  0.00    +0.466 C 
ATOM     16  O   UNL     1      10.497   5.738   1.310  0.00  0.00    -0.453 OA
ENDBRANCH   1   2
BRANCH   1  18
ATOM     17  N   UNL     1       5.845  -1.502   0.023  0.00  0.00    -0.225 N 
ATOM     18  C   UNL     1       5.124  -0.574   0.680  0.00  0.00    +0.143 A 
ATOM     19  N   UNL     1       4.610  -1.170   1.728  0.00  0.00    -0.115 NA
ATOM     20  N   UNL     1       4.999  -2.398   1.718  0.00  0.00    -0.023 NA
ATOM     21  N   UNL     1       5.748  -2.601   0.691  0.00  0.00    -0.043 NA
BRANCH  17  23
ATOM     22  C   UNL     1       7.605  -0.162  -1.020  0.00  0.00    +0.036 C 
ATOM     23  C   UNL     1       6.601  -1.300  -1.215  0.00  0.00    +0.059 C 
ATOM     24  C   UNL     1       7.350  -2.585  -1.571  0.00  0.00    +0.036 C 
ATOM     25  C   UNL     1       5.637  -0.941  -2.348  0.00  0.00    +0.036 C 
ENDBRANCH  17  23
ENDBRANCH   1  18
BRANCH   1  26
ATOM     26  N   UNL     1       3.534   1.254   0.532  0.00  0.00    +0.395 N 
ATOM     27  H   UNL     1       3.285   1.006   1.497  0.00  0.00    -0.079 HD
BRANCH  26  28
ATOM     28  C   UNL     1       3.372   2.713   0.356  0.00  0.00    -0.041 C 
BRANCH  28  29
ATOM     29  C   UNL     1       2.072   3.135   0.990  0.00  0.00    -0.064 A 
ATOM     30  C   UNL     1       0.939   3.284   0.211  0.00  0.00    +0.002 A 
ATOM     31  C   UNL     1      -0.255   3.666   0.794  0.00  0.00    +0.000 A 
ATOM     32  C   UNL     1      -0.313   3.911   2.153  0.00  0.00    +0.000 A 
ATOM     33  C   UNL     1       0.821   3.768   2.931  0.00  0.00    +0.000 A 
ATOM     34  C   UNL     1       2.013   3.380   2.349  0.00  0.00    +0.002 A 
ENDBRANCH  28  29
ENDBRANCH  26  28
BRANCH  26  35
ATOM     35  C   UNL     1       2.640   0.530  -0.395  0.00  0.00    -0.040 C 
BRANCH  35  36
ATOM     36  C   UNL     1       2.386  -0.849   0.158  0.00  0.00    -0.046 A 
ATOM     37  C   UNL     1       1.434  -1.045   1.146  0.00  0.00    +0.005 A 
ATOM     38  C   UNL     1       1.239  -2.330   1.628  0.00  0.00    +0.020 A 
ATOM     39  C   UNL     1       1.986  -3.367   1.103  0.00  0.00    +0.111 A 
ATOM     40  N   UNL     1       2.883  -3.143   0.163  0.00  0.00    -0.263 NA
ATOM     41  C   UNL     1       3.100  -1.933  -0.315  0.00  0.00    +0.112 A 
ENDBRANCH  35  36
ENDBRANCH  26  35
ENDBRANCH   1  26
TORSDOF 8
