REMARK  Name = ZINC31848417
REMARK  8 active torsions:
REMARK  status: ('A' for Active; 'I' for Inactive)
REMARK    1  A    between atoms: C_1  and  C_2
REMARK    2  A    between atoms: C_2  and  C_3
REMARK    3  A    between atoms: C_3  and  C_4
REMARK    4  A    between atoms: C_4  and  C_5
REMARK    5  A    between atoms: C_8  and  C_11
REMARK    6  A    between atoms: C_11  and  C_13
REMARK    7  A    between atoms: C_14  and  N_32
REMARK    8  A    between atoms: C_15  and  C_22
REMARK                            x       y       z     vdW  Elec       q    Type
REMARK                         _______ _______ _______ _____ _____    ______ ____
ROOT
ATOM      1  C   UNL     1      -1.245   1.901   0.055  0.00  0.00    +0.116 A 
ATOM      2  C   UNL     1      -1.418   3.285   0.012  0.00  0.00    +0.065 A 
ATOM      3  C   UNL     1      -2.800   3.535   0.028  0.00  0.00    +0.064 A 
ATOM      4  C   UNL     1      -3.450   2.284   0.089  0.00  0.00    +0.059 A 
ATOM      5  N   UNL     1      -2.496   1.305   0.104  0.00  0.00    -0.311 N 
ATOM      6  C   UNL     1      -2.862  -0.007   0.161  0.00  0.00    +0.092 A 
ATOM      7  C   UNL     1      -4.167  -0.360   0.203  0.00  0.00    +0.018 A 
ATOM      8  C   UNL     1      -5.165   0.623   0.188  0.00  0.00    +0.003 A 
ATOM      9  C   UNL     1      -4.808   1.940   0.132  0.00  0.00    +0.027 A 
ENDROOT
BRANCH   3  10
ATOM     10  C   UNL     1      -3.449   4.853  -0.006  0.00  0.00    +0.143 A 
ATOM     11  N   UNL     1      -2.801   6.047  -0.196  0.00  0.00    -0.338 N 
ATOM     12  H   UNL     1      -1.711   6.065  -0.339  0.00  0.00    +0.167 HD
ATOM     13  C   UNL     1      -3.762   7.043  -0.162  0.00  0.00    +0.066 A 
ATOM     14  C   UNL     1      -3.719   8.423  -0.291  0.00  0.00    +0.028 A 
ATOM     15  C   UNL     1      -4.884   9.158  -0.207  0.00  0.00    +0.002 A 
ATOM     16  C   UNL     1      -6.100   8.526   0.007  0.00  0.00    +0.002 A 
ATOM     17  C   UNL     1      -6.162   7.157   0.138  0.00  0.00    +0.030 A 
ATOM     18  C   UNL     1      -4.991   6.397   0.055  0.00  0.00    +0.089 A 
ATOM     19  N   UNL     1      -4.738   5.067   0.135  0.00  0.00    -0.228 NA
ENDBRANCH   3  10
BRANCH   2  20
ATOM     20  N   UNL     1      -0.410   4.239  -0.039  0.00  0.00    -0.356 N 
ATOM     21  H   UNL     1      -0.666   5.308  -0.069  0.00  0.00    +0.142 HD
ATOM     22  H   UNL     1       0.644   3.925  -0.049  0.00  0.00    +0.142 HD
ENDBRANCH   2  20
BRANCH   1  23
ATOM     23  C   UNL     1      -0.010   1.226   0.053  0.00  0.00    +0.212 C 
ATOM     24  O   UNL     1       0.544   0.972  -1.003  0.00  0.00    -0.285 OA
BRANCH  23  28
ATOM     25  C   UNL     1       1.793   0.086   3.728  0.00  0.00    -0.047 A 
ATOM     26  C   UNL     1       2.367  -0.300   2.530  0.00  0.00    +0.004 A 
ATOM     27  C   UNL     1       1.787   0.067   1.334  0.00  0.00    +0.012 A 
ATOM     28  C   UNL     1       0.618   0.829   1.333  0.00  0.00    +0.024 A 
ATOM     29  C   UNL     1       0.046   1.220   2.545  0.00  0.00    +0.012 A 
ATOM     30  C   UNL     1       0.634   0.842   3.735  0.00  0.00    +0.004 A 
BRANCH  25  31
ATOM     31  C   UNL     1       2.432  -0.318   5.032  0.00  0.00    +0.035 C 
BRANCH  31  32
ATOM     32  C   UNL     1       3.436   0.753   5.461  0.00  0.00    +0.004 C 
BRANCH  32  34
ATOM     33  C   UNL     1       5.089   1.414   7.214  0.00  0.00    +0.004 C 
ATOM     34  C   UNL     1       4.085   0.343   6.785  0.00  0.00    -0.003 C 
ENDBRANCH  32  34
ENDBRANCH  31  32
ENDBRANCH  25  31
ENDBRANCH  23  28
ENDBRANCH   1  23
TORSDOF 7
