REMARK  Name = ZINC13503460
REMARK  5 active torsions:
REMARK  status: ('A' for Active; 'I' for Inactive)
REMARK    1  A    between atoms: C_7  and  C_11
REMARK    2  A    between atoms: C_11  and  C_12
REMARK    3  A    between atoms: C_12  and  N_13
REMARK    4  A    between atoms: C_14  and  C_16
REMARK    5  A    between atoms: C_17  and  N_33
REMARK                            x       y       z     vdW  Elec       q    Type
REMARK                         _______ _______ _______ _____ _____    ______ ____
ROOT
ATOM      1  C   UNL     1      -4.595  -3.184  -2.570  0.00  0.00    +0.097 A 
ATOM      2  C   UNL     1      -5.343  -3.615  -3.640  0.00  0.00    +0.053 A 
ATOM      3  C   UNL     1      -6.468  -4.508  -3.387  0.00  0.00    +0.030 A 
ATOM      4  C   UNL     1      -7.354  -5.066  -4.330  0.00  0.00    +0.022 A 
ATOM      5  C   UNL     1      -8.379  -5.900  -3.881  0.00  0.00    +0.005 A 
ATOM      6  C   UNL     1      -9.297  -6.490  -4.769  0.00  0.00    +0.059 A 
ATOM      7  C   UNL     1     -10.287  -7.298  -4.287  0.00  0.00    +0.163 A 
ATOM      8  C   UNL     1     -10.408  -7.558  -2.913  0.00  0.00    +0.164 A 
ATOM      9  C   UNL     1      -9.542  -7.010  -2.007  0.00  0.00    +0.077 A 
ATOM     10  C   UNL     1      -8.507  -6.171  -2.447  0.00  0.00    +0.076 A 
ATOM     11  N   UNL     1      -7.640  -5.616  -1.597  0.00  0.00    -0.239 NA
ATOM     12  C   UNL     1      -6.677  -4.833  -2.021  0.00  0.00    +0.111 A 
ATOM     13  S   UNL     1      -5.385  -3.956  -1.172  0.00  0.00    -0.062 S 
ATOM     14  O   UNL     1     -11.398  -8.371  -2.449  0.00  0.00    -0.485 OA
ATOM     15  C   UNL     1     -12.497  -8.619  -3.331  0.00  0.00    +0.270 C 
ATOM     16  C   UNL     1     -11.933  -8.963  -4.716  0.00  0.00    +0.270 C 
ATOM     17  O   UNL     1     -11.163  -7.847  -5.175  0.00  0.00    -0.485 OA
ENDROOT
BRANCH   1  19
ATOM     18  N   UNL     1      -2.859  -2.006  -1.417  0.00  0.00    -0.311 N 
ATOM     19  C   UNL     1      -3.468  -2.326  -2.576  0.00  0.00    +0.253 C 
ATOM     20  O   UNL     1      -3.050  -1.879  -3.629  0.00  0.00    -0.270 OA
ATOM     21  H   UNL     1      -3.192  -2.362  -0.579  0.00  0.00    +0.149 HD
BRANCH  18  22
ATOM     22  C   UNL     1      -1.693  -1.118  -1.424  0.00  0.00    +0.109 C 
BRANCH  22  23
ATOM     23  C   UNL     1      -1.197  -0.917   0.009  0.00  0.00    +0.056 C 
BRANCH  23  30
ATOM     24  C   UNL     1      -0.716   3.746   0.030  0.00  0.00    +0.001 A 
ATOM     25  C   UNL     1       0.611   4.153   0.019  0.00  0.00    +0.002 A 
ATOM     26  C   UNL     1       1.630   3.226   0.004  0.00  0.00    +0.026 A 
ATOM     27  C   UNL     1       1.329   1.868  -0.001  0.00  0.00    +0.047 A 
ATOM     28  C   UNL     1      -0.018   1.461   0.010  0.00  0.00    +0.003 A 
ATOM     29  C   UNL     1      -1.035   2.417   0.030  0.00  0.00    +0.010 A 
ATOM     30  C   UNL     1       0.002  -0.004   0.002  0.00  0.00    -0.021 A 
ATOM     31  C   UNL     1       1.291  -0.379  -0.012  0.00  0.00    +0.087 A 
ATOM     32  N   UNL     1       2.098   0.726  -0.014  0.00  0.00    -0.360 N 
ATOM     33  H   UNL     1       3.068   0.708  -0.024  0.00  0.00    +0.165 HD
ENDBRANCH  23  30
ENDBRANCH  22  23
ENDBRANCH  18  22
ENDBRANCH   1  19
BRANCH   2  34
ATOM     34  N   UNL     1      -5.033  -3.212  -4.931  0.00  0.00    -0.356 N 
ATOM     35  H   UNL     1      -4.281  -2.620  -5.086  0.00  0.00    +0.142 HD
ATOM     36  H   UNL     1      -5.569  -3.522  -5.677  0.00  0.00    +0.142 HD
ENDBRANCH   2  34
TORSDOF 5
