REMARK  Name = ZINC12317350
REMARK  12 active torsions:
REMARK  status: ('A' for Active; 'I' for Inactive)
REMARK    1  A    between atoms: C_1  and  C_2
REMARK    2  A    between atoms: C_2  and  N_3
REMARK    3  A    between atoms: C_7  and  C_8
REMARK    4  A    between atoms: C_8  and  N_57
REMARK    5  A    between atoms: C_9  and  C_10
REMARK    6  A    between atoms: C_9  and  N_57
REMARK    7  A    between atoms: C_15  and  O_16
REMARK    8  A    between atoms: O_16  and  C_17
REMARK    9  A    between atoms: C_17  and  C_18
REMARK   10  A    between atoms: C_18  and  C_20
REMARK   11  A    between atoms: C_18  and  O_26
REMARK   12  A    between atoms: C_20  and  N_60
REMARK                            x       y       z     vdW  Elec       q    Type
REMARK                         _______ _______ _______ _____ _____    ______ ____
ROOT
ATOM      1  C   UNL     1      -1.420   1.843  -5.890  0.00  0.00    -0.023 A 
ATOM      2  C   UNL     1      -1.010   1.544  -7.175  0.00  0.00    +0.005 A 
ATOM      3  C   UNL     1       0.156   0.832  -7.383  0.00  0.00    +0.000 A 
ATOM      4  C   UNL     1       0.916   0.417  -6.304  0.00  0.00    +0.004 A 
ATOM      5  C   UNL     1       0.514   0.718  -5.018  0.00  0.00    +0.046 A 
ATOM      6  C   UNL     1      -0.659   1.428  -4.807  0.00  0.00    +0.122 A 
ENDROOT
BRANCH   1   7
ATOM      7  C   UNL     1      -2.691   2.620  -5.665  0.00  0.00    -0.043 C 
BRANCH   7   8
ATOM      8  N   UNL     1      -2.355   4.032  -5.402  0.00  0.00    +0.386 N 
ATOM      9  H   UNL     1      -1.760   4.088  -4.567  0.00  0.00    -0.085 HD
ATOM     10  H   UNL     1      -1.850   4.416  -6.209  0.00  0.00    -0.085 HD
BRANCH   8  11
ATOM     11  C   UNL     1      -3.583   4.817  -5.177  0.00  0.00    -0.006 C 
BRANCH  11  16
ATOM     12  N   UNL     1      -3.073   7.217  -5.847  0.00  0.00    -0.336 N 
ATOM     13  C   UNL     1      -2.728   8.370  -5.193  0.00  0.00    +0.107 A 
ATOM     14  C   UNL     1      -2.666   8.070  -3.882  0.00  0.00    +0.130 A 
ATOM     15  N   UNL     1      -2.969   6.771  -3.738  0.00  0.00    -0.243 NA
ATOM     16  C   UNL     1      -3.209   6.253  -4.911  0.00  0.00    +0.092 A 
BRANCH  12  18
ATOM     17  C   UNL     1      -4.742   7.218  -7.634  0.00  0.00    +0.027 C 
ATOM     18  C   UNL     1      -3.260   7.059  -7.291  0.00  0.00    +0.119 C 
ENDBRANCH  12  18
ENDBRANCH  11  16
ENDBRANCH   8  11
ENDBRANCH   7   8
ENDBRANCH   1   7
BRANCH   6  19
ATOM     19  O   UNL     1      -1.060   1.721  -3.542  0.00  0.00    -0.489 OA
BRANCH  19  20
ATOM     20  C   UNL     1      -0.227   1.262  -2.475  0.00  0.00    +0.258 C 
BRANCH  20  21
ATOM     21  C   UNL     1      -0.835   1.683  -1.136  0.00  0.00    +0.135 C 
BRANCH  21  22
ATOM     22  O   UNL     1      -0.826   3.108  -1.036  0.00  0.00    -0.390 OA
ATOM     23  H   UNL     1       0.057   3.500  -1.084  0.00  0.00    +0.210 HD
ENDBRANCH  21  22
BRANCH  21  24
ATOM     24  C   UNL     1      -0.013   1.086   0.008  0.00  0.00    -0.044 C 
BRANCH  24  30
ATOM     25  C   UNL     1       0.373   1.351   2.383  0.00  0.00    -0.079 C 
ATOM     26  C   UNL     1      -0.228   1.906   3.677  0.00  0.00    -0.019 C 
ATOM     27  C   UNL     1      -1.504   1.130   4.015  0.00  0.00    -0.004 C 
ATOM     28  C   UNL     1      -2.485   1.240   2.844  0.00  0.00    -0.019 C 
ATOM     29  C   UNL     1      -1.819   0.705   1.575  0.00  0.00    -0.079 C 
ATOM     30  N   UNL     1      -0.611   1.509   1.291  0.00  0.00    +0.381 N 
ATOM     31  H   UNL     1      -0.878   2.498   1.224  0.00  0.00    -0.082 HD
ENDBRANCH  24  30
ENDBRANCH  21  24
ENDBRANCH  20  21
ENDBRANCH  19  20
ENDBRANCH   6  19
TORSDOF 11
