REMARK  Name = ZINC41222647
REMARK  11 active torsions:
REMARK  status: ('A' for Active; 'I' for Inactive)
REMARK    1  A    between atoms: C_1  and  C_2
REMARK    2  A    between atoms: C_2  and  C_3
REMARK    3  A    between atoms: N_5  and  C_6
REMARK    4  A    between atoms: C_9  and  N_12
REMARK    5  A    between atoms: C_13  and  C_15
REMARK    6  A    between atoms: N_17  and  C_18
REMARK    7  A    between atoms: C_18  and  C_20
REMARK    8  A    between atoms: C_18  and  C_21
REMARK    9  A    between atoms: C_21  and  C_22
REMARK   10  A    between atoms: C_22  and  C_23
REMARK   11  A    between atoms: C_26  and  O_29
REMARK                            x       y       z     vdW  Elec       q    Type
REMARK                         _______ _______ _______ _____ _____    ______ ____
ROOT
ATOM      1  N   UNL     1       3.676  -4.012   5.715  0.00  0.00    -0.278 N 
ATOM      2  C   UNL     1       3.929  -5.335   5.750  0.00  0.00    +0.303 C 
ATOM      3  O   UNL     1       3.469  -6.064   4.896  0.00  0.00    -0.265 OA
ATOM      4  H   UNL     1       3.987  -3.439   6.433  0.00  0.00    +0.155 HD
ENDROOT
BRANCH   1   8
ATOM      5  C   UNL     1       1.556  -2.380   2.519  0.00  0.00    +0.033 A 
ATOM      6  C   UNL     1       1.241  -3.650   2.985  0.00  0.00    +0.025 A 
ATOM      7  C   UNL     1       1.943  -4.190   4.044  0.00  0.00    +0.025 A 
ATOM      8  C   UNL     1       2.965  -3.464   4.642  0.00  0.00    +0.034 A 
ATOM      9  C   UNL     1       3.280  -2.194   4.176  0.00  0.00    +0.025 A 
ATOM     10  C   UNL     1       2.582  -1.657   3.114  0.00  0.00    +0.025 A 
BRANCH   5  13
ATOM     11  C   UNL     1       1.475  -1.048   0.548  0.00  0.00    +0.217 C 
ATOM     12  O   UNL     1       2.638  -0.749   0.717  0.00  0.00    -0.275 OA
ATOM     13  N   UNL     1       0.844  -1.832   1.445  0.00  0.00    -0.286 N 
ATOM     14  H   UNL     1      -0.103  -2.017   1.347  0.00  0.00    +0.155 HD
BRANCH  11  16
ATOM     15  C   UNL     1       1.672   0.318  -1.512  0.00  0.00    +0.013 C 
ATOM     16  C   UNL     1       0.734  -0.543  -0.663  0.00  0.00    +0.093 C 
ENDBRANCH  11  16
ENDBRANCH   5  13
ENDBRANCH   1   8
BRANCH   2  17
ATOM     17  C   UNL     1       4.776  -5.904   6.841  0.00  0.00    +0.300 C 
ATOM     18  O   UNL     1       5.236  -5.175   7.695  0.00  0.00    -0.265 OA
ATOM     19  N   UNL     1       5.029  -7.227   6.877  0.00  0.00    -0.305 N 
ATOM     20  H   UNL     1       4.661  -7.810   6.194  0.00  0.00    +0.149 HD
BRANCH  19  21
ATOM     21  C   UNL     1       5.859  -7.786   7.947  0.00  0.00    +0.071 C 
ATOM     22  C   UNL     1       4.989  -8.068   9.173  0.00  0.00    +0.028 C 
BRANCH  21  23
ATOM     23  C   UNL     1       6.502  -9.089   7.466  0.00  0.00    +0.026 C 
BRANCH  23  24
ATOM     24  C   UNL     1       7.468  -8.788   6.319  0.00  0.00    +0.037 C 
BRANCH  24  25
ATOM     25  C   UNL     1       8.101 -10.071   5.846  0.00  0.00    -0.047 A 
ATOM     26  C   UNL     1       9.278 -10.514   6.421  0.00  0.00    +0.007 A 
ATOM     27  C   UNL     1       9.860 -11.689   5.989  0.00  0.00    +0.045 A 
ATOM     28  C   UNL     1       9.263 -12.427   4.977  0.00  0.00    +0.117 A 
ATOM     29  C   UNL     1       8.082 -11.981   4.401  0.00  0.00    +0.045 A 
ATOM     30  C   UNL     1       7.501 -10.807   4.841  0.00  0.00    +0.007 A 
BRANCH  28  31
ATOM     31  O   UNL     1       9.834 -13.584   4.550  0.00  0.00    -0.507 OA
ATOM     32  H   UNL     1       9.536 -14.369   5.028  0.00  0.00    +0.292 HD
ENDBRANCH  28  31
ENDBRANCH  24  25
ENDBRANCH  23  24
ENDBRANCH  21  23
ENDBRANCH  19  21
ENDBRANCH   2  17
TORSDOF 9
