REMARK  Name = ZINC39631001
REMARK  12 active torsions:
REMARK  status: ('A' for Active; 'I' for Inactive)
REMARK    1  A    between atoms: C_1  and  C_2
REMARK    2  A    between atoms: C_5  and  C_9
REMARK    3  A    between atoms: C_6  and  C_8
REMARK    4  A    between atoms: C_13  and  C_22
REMARK    5  A    between atoms: N_24  and  C_25
REMARK    6  A    between atoms: C_25  and  C_26
REMARK    7  A    between atoms: C_26  and  C_27
REMARK    8  A    between atoms: C_26  and  C_28
REMARK    9  A    between atoms: C_26  and  C_29
REMARK   10  A    between atoms: C_29  and  N_30
REMARK   11  A    between atoms: N_30  and  C_31
REMARK   12  A    between atoms: N_30  and  C_32
REMARK                            x       y       z     vdW  Elec       q    Type
REMARK                         _______ _______ _______ _____ _____    ______ ____
ROOT
ATOM      1  C   UNL     1       0.409  -5.606  -0.020  0.00  0.00    +0.247 C 
ATOM      2  O   UNL     1       0.517  -6.168   1.052  0.00  0.00    -0.270 OA
ATOM      3  N   UNL     1       0.845  -6.209  -1.144  0.00  0.00    -0.296 N 
ATOM      4  C   UNL     1       0.898  -5.647  -2.514  0.00  0.00    +0.121 C 
ATOM      5  C   UNL     1       2.228  -6.172  -3.100  0.00  0.00    +0.100 C 
ATOM      6  C   UNL     1       2.537  -7.444  -2.293  0.00  0.00    -0.004 C 
ATOM      7  C   UNL     1       1.385  -7.582  -1.288  0.00  0.00    +0.115 C 
ATOM      8  C   UNL     1       3.861  -7.291  -1.551  0.00  0.00    -0.010 C 
ATOM      9  C   UNL     1       4.175  -8.589  -0.802  0.00  0.00    -0.082 C 
ATOM     10  N   UNL     1       4.252  -9.701  -1.758  0.00  0.00    +0.379 N 
ATOM     11  C   UNL     1       2.948  -9.901  -2.400  0.00  0.00    -0.082 C 
ATOM     12  C   UNL     1       2.582  -8.658  -3.216  0.00  0.00    -0.010 C 
ATOM     13  H   UNL     1       4.944  -9.490  -2.462  0.00  0.00    -0.086 HD
ATOM     14  H   UNL     1       4.519 -10.543  -1.270  0.00  0.00    -0.086 HD
ENDROOT
BRANCH   1  19
ATOM     15  C   UNL     1      -1.962  -0.370  -0.298  0.00  0.00    +0.044 C 
ATOM     16  C   UNL     1      -1.341  -1.741  -0.225  0.00  0.00    -0.050 A 
ATOM     17  C   UNL     1      -1.677  -2.700  -1.165  0.00  0.00    +0.004 A 
ATOM     18  C   UNL     1      -1.112  -3.957  -1.104  0.00  0.00    +0.013 A 
ATOM     19  C   UNL     1      -0.200  -4.261  -0.092  0.00  0.00    +0.040 A 
ATOM     20  C   UNL     1       0.134  -3.289   0.853  0.00  0.00    -0.038 A 
ATOM     21  C   UNL     1      -0.434  -2.034   0.777  0.00  0.00    +0.007 A 
ATOM     22  C   UNL     1       1.118  -3.608   1.949  0.00  0.00    +0.044 C 
ENDBRANCH   1  19
BRANCH   5  23
ATOM     23  C   UNL     1       3.322  -5.152  -2.915  0.00  0.00    +0.218 C 
ATOM     24  O   UNL     1       3.289  -4.392  -1.971  0.00  0.00    -0.275 OA
ATOM     25  N   UNL     1       4.337  -5.085  -3.800  0.00  0.00    -0.315 N 
ATOM     26  H   UNL     1       4.363  -5.692  -4.555  0.00  0.00    +0.149 HD
BRANCH  25  27
ATOM     27  C   UNL     1       5.400  -4.093  -3.620  0.00  0.00    +0.108 C 
BRANCH  27  28
ATOM     28  C   UNL     1       6.420  -4.228  -4.753  0.00  0.00    -0.034 C 
ATOM     29  C   UNL     1       7.024  -5.634  -4.730  0.00  0.00    +0.010 C 
ATOM     30  C   UNL     1       5.725  -3.993  -6.095  0.00  0.00    +0.010 C 
BRANCH  28  31
ATOM     31  C   UNL     1       7.531  -3.192  -4.565  0.00  0.00    -0.072 C 
BRANCH  31  32
ATOM     32  N   UNL     1       8.495  -3.304  -5.667  0.00  0.00    +0.376 N 
ATOM     33  C   UNL     1       8.033  -2.498  -6.805  0.00  0.00    -0.097 C 
ATOM     34  C   UNL     1       9.807  -2.815  -5.222  0.00  0.00    -0.097 C 
ATOM     35  H   UNL     1       8.574  -4.269  -5.949  0.00  0.00    -0.083 HD
ENDBRANCH  31  32
ENDBRANCH  28  31
ENDBRANCH  27  28
ENDBRANCH  25  27
ENDBRANCH   5  23
TORSDOF 6
