REMARK  Name = ZINC08777810
REMARK  3 active torsions:
REMARK  status: ('A' for Active; 'I' for Inactive)
REMARK    1  A    between atoms: C_10  and  C_15
REMARK    2  A    between atoms: C_10  and  O_19
REMARK    3  A    between atoms: C_22  and  C_25
REMARK                            x       y       z     vdW  Elec       q    Type
REMARK                         _______ _______ _______ _____ _____    ______ ____
ROOT
ATOM      1  C   UNL     1       8.642   7.004   0.606  0.00  0.00    +0.001 A 
ATOM      2  C   UNL     1       9.981   6.893   0.270  0.00  0.00    +0.004 A 
ATOM      3  C   UNL     1      10.540   5.664  -0.021  0.00  0.00    +0.046 A 
ATOM      4  C   UNL     1       9.764   4.516   0.020  0.00  0.00    +0.129 A 
ATOM      5  C   UNL     1       8.400   4.639   0.354  0.00  0.00    +0.040 A 
ATOM      6  C   UNL     1       7.846   5.874   0.648  0.00  0.00    +0.013 A 
ATOM      7  C   UNL     1       7.625   3.386   0.365  0.00  0.00    +0.081 C 
ATOM      8  N   UNL     1       6.380   3.143   0.271  0.00  0.00    -0.179 NA
ATOM      9  N   UNL     1       6.074   1.785   0.143  0.00  0.00    -0.160 N 
ATOM     10  C   UNL     1       7.333   1.015   0.133  0.00  0.00    +0.262 C 
ATOM     11  C   UNL     1       8.388   2.064   0.479  0.00  0.00    +0.138 C 
ATOM     12  C   UNL     1       9.516   2.165  -0.549  0.00  0.00    +0.243 C 
ATOM     13  O   UNL     1      10.319   3.308  -0.240  0.00  0.00    -0.490 OA
ATOM     14  C   UNL     1       4.800   1.251   0.046  0.00  0.00    +0.184 A 
ATOM     15  N   UNL     1       3.632   1.868   0.053  0.00  0.00    -0.223 NA
ATOM     16  C   UNL     1       2.497   1.192  -0.050  0.00  0.00    +0.080 A 
ATOM     17  C   UNL     1       2.536  -0.171  -0.160  0.00  0.00    +0.077 A 
ATOM     18  S   UNL     1       4.300  -0.457  -0.119  0.00  0.00    -0.058 S 
ENDROOT
BRANCH  16  19
ATOM     19  C   UNL     1       1.198   1.905  -0.041  0.00  0.00    +0.004 A 
ATOM     20  C   UNL     1      -0.009   1.199  -0.044  0.00  0.00    +0.030 A 
ATOM     21  C   UNL     1      -1.196   1.903  -0.041  0.00  0.00    +0.111 A 
ATOM     22  N   UNL     1      -1.200   3.222  -0.023  0.00  0.00    -0.263 NA
ATOM     23  C   UNL     1      -0.084   3.926  -0.020  0.00  0.00    +0.111 A 
ATOM     24  C   UNL     1       1.146   3.303  -0.028  0.00  0.00    +0.030 A 
ENDBRANCH  16  19
BRANCH  10  25
ATOM     25  C   UNL     1       7.595   0.426  -1.254  0.00  0.00    +0.438 C 
ATOM     26  F   UNL     1       7.553   1.448  -2.210  0.00  0.00    -0.166 F 
ATOM     27  F   UNL     1       8.856  -0.179  -1.274  0.00  0.00    -0.166 F 
ATOM     28  F   UNL     1       6.615  -0.528  -1.549  0.00  0.00    -0.166 F 
ENDBRANCH  10  25
BRANCH  10  29
ATOM     29  O   UNL     1       7.301  -0.016   1.122  0.00  0.00    -0.363 OA
ATOM     30  H   UNL     1       6.600  -0.669   0.987  0.00  0.00    +0.212 HD
ENDBRANCH  10  29
TORSDOF 3
