REMARK  Name = ZINC04624841
REMARK  5 active torsions:
REMARK  status: ('A' for Active; 'I' for Inactive)
REMARK    1  A    between atoms: C_1  and  C_2
REMARK    2  A    between atoms: C_3  and  C_26
REMARK    3  A    between atoms: C_4  and  C_17
REMARK    4  A    between atoms: C_26  and  O_28
REMARK    5  A    between atoms: O_28  and  C_29
REMARK                            x       y       z     vdW  Elec       q    Type
REMARK                         _______ _______ _______ _____ _____    ______ ____
ROOT
ATOM      1  C   UNL     1       1.169  -2.114   0.559  0.00  0.00    +0.061 C 
ATOM      2  C   UNL     1       1.189  -0.636   0.265  0.00  0.00    +0.016 C 
ATOM      3  C   UNL     1       2.368   0.002   0.271  0.00  0.00    +0.065 C 
ATOM      4  C   UNL     1       2.507   1.472  -0.020  0.00  0.00    +0.093 C 
ATOM      5  C   UNL     1       1.141   2.110   0.003  0.00  0.00    +0.034 C 
ATOM      6  C   UNL     1      -0.017   1.374   0.010  0.00  0.00    +0.047 C 
ATOM      7  N   UNL     1       0.002  -0.004   0.002  0.00  0.00    -0.317 N 
ATOM      8  C   UNL     1      -1.163   2.288   0.032  0.00  0.00    +0.007 A 
ATOM      9  C   UNL     1      -2.530   2.057   0.048  0.00  0.00    +0.010 A 
ATOM     10  C   UNL     1      -3.362   3.179   0.068  0.00  0.00    +0.001 A 
ATOM     11  C   UNL     1      -2.858   4.459   0.071  0.00  0.00    +0.001 A 
ATOM     12  C   UNL     1      -1.482   4.709   0.048  0.00  0.00    +0.012 A 
ATOM     13  C   UNL     1      -0.647   3.608   0.032  0.00  0.00    +0.031 A 
ATOM     14  C   UNL     1       0.828   3.488   0.017  0.00  0.00    +0.193 C 
ATOM     15  O   UNL     1       1.624   4.407   0.018  0.00  0.00    -0.287 OA
ATOM     16  H   UNL     1      -0.901  -0.596  -0.207  0.00  0.00    +0.152 HD
ENDROOT
BRANCH   4  17
ATOM     17  C   UNL     1       3.131   1.661  -1.379  0.00  0.00    -0.031 A 
ATOM     18  C   UNL     1       2.506   1.152  -2.502  0.00  0.00    +0.008 A 
ATOM     19  C   UNL     1       3.072   1.326  -3.751  0.00  0.00    +0.050 A 
ATOM     20  C   UNL     1       4.274   2.002  -3.879  0.00  0.00    +0.166 A 
ATOM     21  C   UNL     1       4.907   2.511  -2.747  0.00  0.00    +0.167 A 
ATOM     22  C   UNL     1       4.331   2.337  -1.499  0.00  0.00    +0.054 A 
ATOM     23  O   UNL     1       6.062   3.127  -3.133  0.00  0.00    -0.453 OA
ATOM     24  C   UNL     1       5.925   3.347  -4.550  0.00  0.00    +0.466 C 
ATOM     25  O   UNL     1       5.032   2.300  -4.974  0.00  0.00    -0.453 OA
ENDBRANCH   4  17
BRANCH   3  26
ATOM     26  C   UNL     1       3.535  -0.741   0.565  0.00  0.00    +0.337 C 
ATOM     27  O   UNL     1       3.454  -1.931   0.804  0.00  0.00    -0.245 OA
BRANCH  26  28
ATOM     28  O   UNL     1       4.738  -0.130   0.579  0.00  0.00    -0.465 OA
ATOM     29  C   UNL     1       5.874  -0.941   0.884  0.00  0.00    +0.280 C 
ENDBRANCH  26  28
ENDBRANCH   3  26
TORSDOF 3
