REMARK  Name = ZINC20220472
REMARK  7 active torsions:
REMARK  status: ('A' for Active; 'I' for Inactive)
REMARK    1  A    between atoms: C_1  and  O_2
REMARK    2  A    between atoms: O_2  and  C_3
REMARK    3  A    between atoms: C_3  and  C_5
REMARK    4  A    between atoms: C_5  and  C_6
REMARK    5  A    between atoms: C_7  and  C_25
REMARK    6  A    between atoms: C_25  and  O_27
REMARK    7  A    between atoms: O_27  and  C_28
REMARK                            x       y       z     vdW  Elec       q    Type
REMARK                         _______ _______ _______ _____ _____    ______ ____
ROOT
ATOM      1  C   UNL     1       3.160   5.564   0.675  0.00  0.00    +0.033 C 
ATOM      2  C   UNL     1       1.985   5.157   1.197  0.00  0.00    +0.079 C 
ATOM      3  C   UNL     1       1.094   4.863   0.016  0.00  0.00    +0.151 C 
ATOM      4  C   UNL     1      -0.146   5.710   0.036  0.00  0.00    -0.010 A 
ATOM      5  C   UNL     1      -0.361   7.070   0.050  0.00  0.00    +0.021 A 
ATOM      6  C   UNL     1      -1.654   7.567   0.067  0.00  0.00    +0.018 A 
ATOM      7  C   UNL     1      -2.733   6.699   0.070  0.00  0.00    +0.016 A 
ATOM      8  C   UNL     1      -2.529   5.336   0.057  0.00  0.00    +0.013 A 
ATOM      9  C   UNL     1      -1.228   4.825   0.041  0.00  0.00    +0.024 A 
ATOM     10  C   UNL     1      -0.721   3.438   0.027  0.00  0.00    +0.162 A 
ATOM     11  C   UNL     1       0.635   3.433   0.014  0.00  0.00    +0.113 A 
ATOM     12  N   UNL     1       1.040   2.153   0.004  0.00  0.00    -0.198 NA
ATOM     13  C   UNL     1      -0.017   1.375   0.010  0.00  0.00    +0.286 A 
ATOM     14  O   UNL     1      -1.119   2.141   0.018  0.00  0.00    -0.424 OA
ATOM     15  N   UNL     1       0.002  -0.004   0.002  0.00  0.00    -0.313 N 
ATOM     16 BR   UNL     1      -1.946   9.436   0.086  0.00  0.00    -0.050 Br
ATOM     17  C   UNL     1       1.954   5.169  -1.184  0.00  0.00    +0.238 C 
ATOM     18  O   UNL     1       1.642   5.074  -2.352  0.00  0.00    -0.274 OA
ATOM     19  N   UNL     1       3.143   5.571  -0.689  0.00  0.00    -0.287 N 
ATOM     20  H   UNL     1      -0.943  -0.567   0.008  0.00  0.00    +0.147 HD
ATOM     21  H   UNL     1       0.962  -0.541  -0.010  0.00  0.00    +0.147 HD
ATOM     22  H   UNL     1       4.037   5.882  -1.248  0.00  0.00    +0.155 HD
ENDROOT
BRANCH   2  23
ATOM     23  C   UNL     1       1.656   5.030   2.567  0.00  0.00    +0.338 C 
ATOM     24  O   UNL     1       2.481   5.304   3.419  0.00  0.00    -0.245 OA
BRANCH  23  25
ATOM     25  O   UNL     1       0.427   4.607   2.930  0.00  0.00    -0.465 OA
ATOM     26  C   UNL     1       0.164   4.503   4.331  0.00  0.00    +0.280 C 
ENDBRANCH  23  25
ENDBRANCH   2  23
BRANCH   1  27
ATOM     27  C   UNL     1       4.354   5.963   1.504  0.00  0.00    +0.171 C 
BRANCH  27  28
ATOM     28  C   UNL     1       5.273   4.780   1.663  0.00  0.00    +0.312 C 
ATOM     29  O   UNL     1       4.988   3.721   1.157  0.00  0.00    -0.250 OA
BRANCH  28  31
ATOM     30  C   UNL     1       7.246   3.722   2.481  0.00  0.00    +0.280 C 
ATOM     31  O   UNL     1       6.409   4.903   2.369  0.00  0.00    -0.468 OA
ENDBRANCH  28  31
ENDBRANCH  27  28
ENDBRANCH   1  27
TORSDOF 5
