REMARK  Name = ZINC25667270
REMARK  8 active torsions:
REMARK  status: ('A' for Active; 'I' for Inactive)
REMARK    1  A    between atoms: C_1  and  C_2
REMARK    2  A    between atoms: C_4  and  O_5
REMARK    3  A    between atoms: C_14  and  C_16
REMARK    4  A    between atoms: C_16  and  C_18
REMARK    5  A    between atoms: C_16  and  N_25
REMARK    6  A    between atoms: C_18  and  C_19
REMARK    7  A    between atoms: C_26  and  C_28
REMARK    8  A    between atoms: C_28  and  N_29
REMARK                            x       y       z     vdW  Elec       q    Type
REMARK                         _______ _______ _______ _____ _____    ______ ____
ROOT
ATOM      1  C   UNL     1      -7.205  -0.424  -1.145  0.00  0.00    +0.045 C 
ATOM      2  C   UNL     1      -6.020  -0.988  -0.405  0.00  0.00    -0.033 A 
ATOM      3  C   UNL     1      -6.083  -2.210   0.185  0.00  0.00    +0.091 A 
ATOM      4  C   UNL     1      -4.961  -2.716   0.872  0.00  0.00    +0.285 A 
ATOM      5  O   UNL     1      -3.817  -2.020   0.962  0.00  0.00    -0.425 OA
ATOM      6  C   UNL     1      -3.687  -0.800   0.399  0.00  0.00    +0.141 A 
ATOM      7  C   UNL     1      -4.769  -0.234  -0.302  0.00  0.00    +0.021 A 
ATOM      8  C   UNL     1      -4.640   1.030  -0.888  0.00  0.00    +0.013 A 
ATOM      9  C   UNL     1      -3.465   1.715  -0.774  0.00  0.00    +0.024 A 
ATOM     10  C   UNL     1      -2.388   1.157  -0.086  0.00  0.00    +0.037 A 
ATOM     11  C   UNL     1      -2.498  -0.095   0.501  0.00  0.00    +0.070 A 
ATOM     12  N   UNL     1      -1.191   1.867   0.018  0.00  0.00    -0.284 N 
ATOM     13  C   UNL     1      -0.014   1.209   0.005  0.00  0.00    +0.238 C 
ATOM     14  O   UNL     1       0.003  -0.004  -0.013  0.00  0.00    -0.273 OA
ATOM     15  H   UNL     1      -1.207   2.962   0.110  0.00  0.00    +0.155 HD
ENDROOT
BRANCH   4  16
ATOM     16  O   UNL     1      -5.031  -3.813   1.396  0.00  0.00    -0.480 OA
ATOM     17  H   UNL     1      -4.163  -4.222   1.936  0.00  0.00    +0.295 HD
ENDBRANCH   4  16
BRANCH  13  18
ATOM     18  C   UNL     1       1.280   1.980   0.007  0.00  0.00    +0.163 C 
BRANCH  18  19
ATOM     19  N   UNL     1       2.368   1.109   0.458  0.00  0.00    -0.305 N 
ATOM     20  C   UNL     1       2.659  -0.015  -0.227  0.00  0.00    +0.196 C 
ATOM     21  O   UNL     1       2.021  -0.304  -1.217  0.00  0.00    -0.278 OA
ATOM     22  H   UNL     1       2.946   1.371   1.356  0.00  0.00    +0.149 HD
BRANCH  20  23
ATOM     23  C   UNL     1       3.778  -0.912   0.237  0.00  0.00    +0.011 C 
BRANCH  23  24
ATOM     24  N   UNL     1       3.893  -2.061  -0.671  0.00  0.00    +0.384 N 
ATOM     25  H   UNL     1       4.710  -2.715  -0.332  0.00  0.00    -0.089 HD
ATOM     26  H   UNL     1       4.109  -1.703  -1.689  0.00  0.00    -0.089 HD
ATOM     27  H   UNL     1       2.949  -2.624  -0.672  0.00  0.00    -0.089 HD
ENDBRANCH  23  24
ENDBRANCH  20  23
ENDBRANCH  18  19
BRANCH  18  28
ATOM     28  C   UNL     1       1.580   2.478  -1.409  0.00  0.00    +0.067 C 
BRANCH  28  29
ATOM     29  C   UNL     1       2.807   3.351  -1.385  0.00  0.00    -0.045 A 
ATOM     30  C   UNL     1       2.683   4.714  -1.188  0.00  0.00    +0.004 A 
ATOM     31  C   UNL     1       3.809   5.514  -1.161  0.00  0.00    +0.000 A 
ATOM     32  C   UNL     1       5.060   4.954  -1.343  0.00  0.00    +0.000 A 
ATOM     33  C   UNL     1       5.184   3.592  -1.546  0.00  0.00    +0.000 A 
ATOM     34  C   UNL     1       4.058   2.791  -1.567  0.00  0.00    +0.004 A 
ENDBRANCH  28  29
ENDBRANCH  18  28
ENDBRANCH  13  18
TORSDOF 7
