REMARK  Name = ZINC40758004
REMARK  5 active torsions:
REMARK  status: ('A' for Active; 'I' for Inactive)
REMARK    1  A    between atoms: C_1  and  C_2
REMARK    2  A    between atoms: C_7  and  N_8
REMARK    3  A    between atoms: C_10  and  N_24
REMARK    4  A    between atoms: C_11  and  N_15
REMARK    5  A    between atoms: N_15  and  C_16
REMARK                            x       y       z     vdW  Elec       q    Type
REMARK                         _______ _______ _______ _____ _____    ______ ____
ROOT
ATOM      1  N   UNL     1       0.975  -0.011   2.495  0.00  0.00    -0.283 N 
ATOM      2  C   UNL     1       0.748  -0.721   3.670  0.00  0.00    +0.150 A 
ATOM      3  C   UNL     1       0.519  -0.048   4.871  0.00  0.00    +0.106 A 
ATOM      4  C   UNL     1       0.296  -0.809   6.021  0.00  0.00    +0.149 A 
ATOM      5  N   UNL     1       0.311  -2.137   5.927  0.00  0.00    -0.219 NA
ATOM      6  C   UNL     1       0.531  -2.732   4.773  0.00  0.00    +0.225 A 
ATOM      7  N   UNL     1       0.741  -2.052   3.664  0.00  0.00    -0.219 NA
ATOM      8  H   UNL     1       0.979   0.959   2.507  0.00  0.00    +0.155 HD
ENDROOT
BRANCH   1  15
ATOM      9  C   UNL     1       1.429   1.530   0.147  0.00  0.00    +0.047 C 
ATOM     10  C   UNL     1       1.423   0.023   0.131  0.00  0.00    -0.010 A 
ATOM     11  C   UNL     1       1.648  -0.667  -1.046  0.00  0.00    +0.008 A 
ATOM     12  C   UNL     1       1.633  -2.055  -1.014  0.00  0.00    +0.020 A 
ATOM     13  C   UNL     1       1.397  -2.701   0.183  0.00  0.00    +0.113 A 
ATOM     14  N   UNL     1       1.185  -2.017   1.291  0.00  0.00    -0.240 NA
ATOM     15  C   UNL     1       1.197  -0.693   1.302  0.00  0.00    +0.127 A 
ENDBRANCH   1  15
BRANCH   3  16
ATOM     16  N   UNL     1       0.513   1.354   4.923  0.00  0.00    -0.353 N 
ATOM     17  H   UNL     1       0.670   1.870   4.116  0.00  0.00    +0.143 HD
ATOM     18  H   UNL     1       0.352   1.808   5.765  0.00  0.00    +0.143 HD
ENDBRANCH   3  16
BRANCH   4  19
ATOM     19  N   UNL     1       0.063  -0.190   7.243  0.00  0.00    -0.297 N 
ATOM     20  H   UNL     1      -0.041   0.774   7.287  0.00  0.00    +0.154 HD
BRANCH  19  21
ATOM     21  C   UNL     1      -0.021  -0.955   8.410  0.00  0.00    +0.052 A 
ATOM     22  C   UNL     1       0.592  -2.200   8.471  0.00  0.00    +0.044 A 
ATOM     23  C   UNL     1       0.507  -2.954   9.627  0.00  0.00    +0.043 A 
ATOM     24  C   UNL     1      -0.188  -2.470  10.721  0.00  0.00    +0.021 A 
ATOM     25  C   UNL     1      -0.799  -1.231  10.664  0.00  0.00    +0.023 A 
ATOM     26  C   UNL     1      -0.713  -0.470   9.513  0.00  0.00    +0.062 A 
ATOM     27 CL   UNL     1      -1.475   1.089   9.444  0.00  0.00    -0.082 Cl
ATOM     28 CL   UNL     1       1.272  -4.511   9.704  0.00  0.00    -0.083 Cl
ENDBRANCH  19  21
ENDBRANCH   4  19
TORSDOF 4
