REMARK  Name = ZINC05213725
REMARK  8 active torsions:
REMARK  status: ('A' for Active; 'I' for Inactive)
REMARK    1  A    between atoms: C_1  and  C_2
REMARK    2  A    between atoms: C_2  and  N_3
REMARK    3  A    between atoms: C_13  and  S_14
REMARK    4  A    between atoms: S_14  and  C_15
REMARK    5  A    between atoms: C_15  and  C_17
REMARK    6  A    between atoms: C_15  and  C_18
REMARK    7  A    between atoms: N_20  and  C_21
REMARK    8  A    between atoms: C_26  and  N_27
REMARK                            x       y       z     vdW  Elec       q    Type
REMARK                         _______ _______ _______ _____ _____    ______ ____
ROOT
ATOM      1  C   UNL     1       4.650  -0.801  -0.088  0.00  0.00    +0.137 C 
ATOM      2  C   UNL     1       4.778  -2.297  -0.378  0.00  0.00    +0.029 C 
ENDROOT
BRANCH   1   3
ATOM      3  C   UNL     1       5.523  -0.440   1.086  0.00  0.00    +0.230 C 
ATOM      4  O   UNL     1       5.052  -0.402   2.203  0.00  0.00    -0.274 OA
ATOM      5  N   UNL     1       6.827  -0.159   0.895  0.00  0.00    -0.283 N 
ATOM      6  H   UNL     1       7.219  -0.252   0.012  0.00  0.00    +0.155 HD
BRANCH   5   7
ATOM      7  C   UNL     1       7.616   0.267   1.969  0.00  0.00    +0.064 A 
ATOM      8  C   UNL     1       7.394  -0.244   3.241  0.00  0.00    +0.025 A 
ATOM      9  C   UNL     1       8.174   0.178   4.299  0.00  0.00    +0.002 A 
ATOM     10  C   UNL     1       9.176   1.110   4.093  0.00  0.00    +0.002 A 
ATOM     11  C   UNL     1       9.399   1.621   2.828  0.00  0.00    +0.034 A 
ATOM     12  C   UNL     1       8.626   1.198   1.764  0.00  0.00    +0.147 A 
BRANCH  12  13
ATOM     13  N   UNL     1       8.870   1.740   0.409  0.00  0.00    +0.058 N 
ATOM     14  O   UNL     1       9.810   2.475   0.212  0.00  0.00    -0.126 OA
ATOM     15  O   UNL     1       8.130   1.448  -0.501  0.00  0.00    -0.126 OA
ENDBRANCH  12  13
ENDBRANCH   5   7
ENDBRANCH   1   3
BRANCH   1  16
ATOM     16  S   UNL     1       2.922  -0.406   0.300  0.00  0.00    -0.075 S 
BRANCH  16  27
ATOM     17  N   UNL     1       0.711  -0.538  -1.236  0.00  0.00    -0.288 N 
ATOM     18  C   UNL     1       0.011  -0.777  -2.369  0.00  0.00    +0.262 A 
ATOM     19  O   UNL     1      -1.192  -0.597  -2.418  0.00  0.00    -0.267 OA
ATOM     20  C   UNL     1       0.757  -1.262  -3.538  0.00  0.00    +0.065 A 
ATOM     21  C   UNL     1       0.128  -1.536  -4.752  0.00  0.00    +0.015 A 
ATOM     22  C   UNL     1       0.871  -1.985  -5.809  0.00  0.00    +0.001 A 
ATOM     23  C   UNL     1       2.242  -2.169  -5.686  0.00  0.00    +0.002 A 
ATOM     24  C   UNL     1       2.884  -1.907  -4.509  0.00  0.00    +0.028 A 
ATOM     25  C   UNL     1       2.153  -1.448  -3.409  0.00  0.00    +0.079 A 
ATOM     26  N   UNL     1       2.746  -1.177  -2.229  0.00  0.00    -0.223 NA
ATOM     27  C   UNL     1       2.061  -0.741  -1.201  0.00  0.00    +0.173 A 
BRANCH  17  29
ATOM     28  C   UNL     1      -0.010   1.476  -0.051  0.00  0.00    +0.027 C 
ATOM     29  C   UNL     1       0.017  -0.054  -0.040  0.00  0.00    +0.124 C 
ENDBRANCH  17  29
ENDBRANCH  16  27
ENDBRANCH   1  16
TORSDOF 6
