REMARK  Name = ZINC39481156
REMARK  7 active torsions:
REMARK  status: ('A' for Active; 'I' for Inactive)
REMARK    1  A    between atoms: C_1  and  C_2
REMARK    2  A    between atoms: C_2  and  C_3
REMARK    3  A    between atoms: C_6  and  N_17
REMARK    4  A    between atoms: C_7  and  N_9
REMARK    5  A    between atoms: N_17  and  S_18
REMARK    6  A    between atoms: S_18  and  S_21
REMARK    7  A    between atoms: S_21  and  C_24
REMARK                            x       y       z     vdW  Elec       q    Type
REMARK                         _______ _______ _______ _____ _____    ______ ____
ROOT
ATOM      1  C   UNL     1       0.731  -0.503   1.223  0.00  0.00    -0.046 A 
ATOM      2  C   UNL     1       2.097  -0.709   1.174  0.00  0.00    +0.005 A 
ATOM      3  C   UNL     1       2.772  -1.167   2.291  0.00  0.00    +0.029 A 
ATOM      4  C   UNL     1       2.078  -1.421   3.464  0.00  0.00    +0.097 A 
ATOM      5  C   UNL     1       0.700  -1.213   3.514  0.00  0.00    +0.055 A 
ATOM      6  C   UNL     1       0.032  -0.749   2.390  0.00  0.00    +0.028 A 
ENDROOT
BRANCH   5   7
ATOM      7  N   UNL     1      -0.006  -1.468   4.695  0.00  0.00    -0.323 N 
ATOM      8  C   UNL     1      -0.200  -0.413   5.702  0.00  0.00    +0.120 C 
ATOM      9  C   UNL     1       0.235  -0.957   7.067  0.00  0.00    +0.102 C 
ATOM     10  N   UNL     1      -0.476  -2.213   7.339  0.00  0.00    -0.285 NA
ATOM     11  C   UNL     1      -0.125  -3.248   6.357  0.00  0.00    +0.252 C 
ATOM     12  C   UNL     1      -0.580  -2.796   4.960  0.00  0.00    +0.158 C 
ATOM     13  F   UNL     1       1.260  -3.444   6.360  0.00  0.00    -0.227 F 
ATOM     14  H   UNL     1      -0.299  -2.533   8.280  0.00  0.00    +0.125 HD
ENDBRANCH   5   7
BRANCH   1  16
ATOM     15  C   UNL     1      -0.019   1.526   0.010  0.00  0.00    +0.009 C 
ATOM     16  C   UNL     1       0.002  -0.004   0.002  0.00  0.00    +0.032 C 
ENDBRANCH   1  16
BRANCH   4  17
ATOM     17  N   UNL     1       2.760  -1.885   4.596  0.00  0.00    -0.079 NA
BRANCH  17  18
ATOM     18  S   UNL     1       4.396  -2.131   4.534  0.00  0.00    +0.191 S 
ATOM     19  O   UNL     1       4.611  -3.203   3.626  0.00  0.00    -0.130 OA
ATOM     20  O   UNL     1       4.993  -0.854   4.360  0.00  0.00    -0.130 OA
BRANCH  18  21
ATOM     21  S   UNL     1       4.978  -2.803   6.382  0.00  0.00    +0.133 S 
ATOM     22  O   UNL     1       4.762  -1.731   7.290  0.00  0.00    -0.146 OA
ATOM     23  O   UNL     1       4.381  -4.081   6.556  0.00  0.00    -0.146 OA
BRANCH  21  24
ATOM     24  C   UNL     1       6.719  -3.065   6.316  0.00  0.00    +0.114 A 
ATOM     25  C   UNL     1       7.219  -4.295   5.932  0.00  0.00    +0.029 A 
ATOM     26  C   UNL     1       8.585  -4.501   5.881  0.00  0.00    +0.002 A 
ATOM     27  C   UNL     1       9.451  -3.476   6.213  0.00  0.00    +0.000 A 
ATOM     28  C   UNL     1       8.951  -2.246   6.596  0.00  0.00    +0.002 A 
ATOM     29  C   UNL     1       7.585  -2.039   6.643  0.00  0.00    +0.029 A 
ENDBRANCH  21  24
ENDBRANCH  18  21
ENDBRANCH  17  18
ENDBRANCH   4  17
TORSDOF 6
