REMARK  Name = ZINC63094959
REMARK  4 active torsions:
REMARK  status: ('A' for Active; 'I' for Inactive)
REMARK    1  A    between atoms: C_1  and  S_2
REMARK    2  A    between atoms: S_2  and  C_3
REMARK    3  A    between atoms: C_5  and  C_12
REMARK    4  A    between atoms: C_17  and  C_20
REMARK                            x       y       z     vdW  Elec       q    Type
REMARK                         _______ _______ _______ _____ _____    ______ ____
ROOT
ATOM      1  C   UNL     1      -5.178   0.257   0.045  0.00  0.00    +0.270 C 
ATOM      2  O   UNL     1      -6.153  -0.474   0.053  0.00  0.00    -0.268 OA
ATOM      3  N   UNL     1      -5.340   1.595   0.046  0.00  0.00    -0.258 N 
ATOM      4  C   UNL     1      -6.615   2.139   0.056  0.00  0.00    +0.185 A 
ATOM      5  N   UNL     1      -6.969   3.411   0.054  0.00  0.00    -0.204 NA
ATOM      6  C   UNL     1      -8.261   3.689   0.065  0.00  0.00    +0.170 A 
ATOM      7  N   UNL     1      -9.108   2.679   0.079  0.00  0.00    -0.187 NA
ATOM      8  S   UNL     1      -8.095   1.344   0.068  0.00  0.00    +0.050 S 
ATOM      9  H   UNL     1      -4.564   2.177   0.039  0.00  0.00    +0.157 HD
ENDROOT
BRANCH   1  12
ATOM     10  C   UNL     1      -1.702  -0.454   0.016  0.00  0.00    +0.174 A 
ATOM     11  N   UNL     1      -2.703   0.389   0.024  0.00  0.00    -0.216 NA
ATOM     12  C   UNL     1      -3.875  -0.299   0.034  0.00  0.00    +0.152 A 
ATOM     13  C   UNL     1      -3.551  -1.661   0.031  0.00  0.00    +0.079 A 
ATOM     14  N   UNL     1      -2.178  -1.735   0.013  0.00  0.00    -0.294 N 
ATOM     15  C   UNL     1      -1.558  -2.954   0.002  0.00  0.00    +0.094 A 
ATOM     16  C   UNL     1      -2.283  -4.092   0.003  0.00  0.00    +0.018 A 
ATOM     17  C   UNL     1      -3.687  -4.043   0.016  0.00  0.00    +0.004 A 
ATOM     18  C   UNL     1      -4.319  -2.835   0.037  0.00  0.00    +0.028 A 
BRANCH  10  20
ATOM     19  C   UNL     1      -0.022   1.810   0.012  0.00  0.00    +0.093 C 
ATOM     20  S   UNL     1       0.002  -0.004   0.002  0.00  0.00    -0.091 S 
ENDBRANCH  10  20
ENDBRANCH   1  12
BRANCH   6  21
ATOM     21  C   UNL     1      -8.742   5.092   0.064  0.00  0.00    +0.020 A 
ATOM     22  C   UNL     1      -7.830   6.145   0.044  0.00  0.00    +0.011 A 
ATOM     23  C   UNL     1      -8.283   7.448   0.042  0.00  0.00    +0.001 A 
ATOM     24  C   UNL     1      -9.641   7.711   0.060  0.00  0.00    +0.000 A 
ATOM     25  C   UNL     1     -10.552   6.670   0.081  0.00  0.00    +0.001 A 
ATOM     26  C   UNL     1     -10.110   5.362   0.076  0.00  0.00    +0.011 A 
ENDBRANCH   6  21
TORSDOF 3
