REMARK  Name = ZINC35682193
REMARK  7 active torsions:
REMARK  status: ('A' for Active; 'I' for Inactive)
REMARK    1  A    between atoms: C_1  and  C_2
REMARK    2  A    between atoms: C_2  and  O_3
REMARK    3  A    between atoms: O_3  and  C_4
REMARK    4  A    between atoms: C_6  and  C_11
REMARK    5  A    between atoms: C_9  and  O_10
REMARK    6  A    between atoms: N_17  and  C_22
REMARK    7  A    between atoms: C_26  and  C_28
REMARK                            x       y       z     vdW  Elec       q    Type
REMARK                         _______ _______ _______ _____ _____    ______ ____
ROOT
ATOM      1  C   UNL     1       0.584  -4.950  -0.037  0.00  0.00    +0.041 C 
ATOM      2  C   UNL     1       0.425  -6.313   0.066  0.00  0.00    +0.129 C 
ATOM      3  C   UNL     1       1.490  -7.326   0.176  0.00  0.00    +0.272 C 
ATOM      4  O   UNL     1       2.692  -7.134   0.160  0.00  0.00    -0.268 OA
ATOM      5  N   UNL     1       0.853  -8.511   0.299  0.00  0.00    -0.229 N 
ATOM      6  C   UNL     1       1.490  -9.799   0.558  0.00  0.00    +0.224 C 
ATOM      7  N   UNL     1       0.610 -10.925   0.340  0.00  0.00    -0.304 N 
ATOM      8  C   UNL     1      -0.775 -11.014   0.764  0.00  0.00    +0.184 C 
ATOM      9  S   UNL     1      -1.711  -9.575   0.175  0.00  0.00    -0.071 S 
ATOM     10  C   UNL     1      -0.503  -8.283   0.194  0.00  0.00    +0.166 C 
ATOM     11  N   UNL     1      -0.753  -7.004   0.094  0.00  0.00    -0.220 NA
ENDROOT
BRANCH   7  12
ATOM     12  C   UNL     1       1.140 -12.026  -0.338  0.00  0.00    +0.032 A 
ATOM     13  C   UNL     1       0.650 -12.373  -1.591  0.00  0.00    +0.023 A 
ATOM     14  C   UNL     1       1.177 -13.461  -2.259  0.00  0.00    +0.002 A 
ATOM     15  C   UNL     1       2.190 -14.205  -1.681  0.00  0.00    +0.003 A 
ATOM     16  C   UNL     1       2.679 -13.862  -0.434  0.00  0.00    -0.049 A 
ATOM     17  C   UNL     1       2.161 -12.771   0.236  0.00  0.00    +0.026 A 
ATOM     18  C   UNL     1       3.783 -14.676   0.191  0.00  0.00    +0.044 C 
ENDBRANCH   7  12
BRANCH   1  21
ATOM     19  C   UNL     1      -1.534  -1.858   0.024  0.00  0.00    +0.162 A 
ATOM     20  C   UNL     1      -0.425  -2.680   0.006  0.00  0.00    +0.057 A 
ATOM     21  C   UNL     1      -0.589  -4.071  -0.018  0.00  0.00    -0.019 A 
ATOM     22  C   UNL     1      -1.879  -4.620  -0.024  0.00  0.00    +0.012 A 
ATOM     23  C   UNL     1      -2.978  -3.791  -0.006  0.00  0.00    +0.050 A 
ATOM     24  C   UNL     1      -2.814  -2.413   0.024  0.00  0.00    +0.158 A 
BRANCH  24  25
ATOM     25  O   UNL     1      -3.903  -1.601   0.046  0.00  0.00    -0.503 OA
ATOM     26  H   UNL     1      -4.225  -1.350  -0.830  0.00  0.00    +0.292 HD
ENDBRANCH  24  25
BRANCH  19  27
ATOM     27  O   UNL     1      -1.379  -0.507   0.047  0.00  0.00    -0.489 OA
BRANCH  27  29
ATOM     28  C   UNL     1      -0.066   1.522   0.073  0.00  0.00    +0.048 C 
ATOM     29  C   UNL     1      -0.040  -0.008   0.046  0.00  0.00    +0.226 C 
ENDBRANCH  27  29
ENDBRANCH  19  27
ENDBRANCH   1  21
TORSDOF 5
