REMARK  Name = ZINC01074695
REMARK  6 active torsions:
REMARK  status: ('A' for Active; 'I' for Inactive)
REMARK    1  A    between atoms: C_1  and  C_2
REMARK    2  A    between atoms: C_5  and  C_9
REMARK    3  A    between atoms: C_11  and  C_18
REMARK    4  A    between atoms: C_12  and  C_17
REMARK    5  A    between atoms: C_18  and  O_20
REMARK    6  A    between atoms: O_20  and  C_21
REMARK                            x       y       z     vdW  Elec       q    Type
REMARK                         _______ _______ _______ _____ _____    ______ ____
ROOT
ATOM      1  C   UNL     1       1.239   3.433  -0.316  0.00  0.00    +0.144 C 
ATOM      2  C   UNL     1       1.230   1.921  -0.219  0.00  0.00    +0.078 C 
ATOM      3  C   UNL     1       2.391   1.304   0.093  0.00  0.00    +0.021 C 
ATOM      4  N   UNL     1       3.535   2.020   0.302  0.00  0.00    -0.273 N 
ATOM      5  C   UNL     1       3.599   3.355   0.230  0.00  0.00    +0.304 C 
ATOM      6  O   UNL     1       4.663   3.905   0.438  0.00  0.00    -0.252 OA
ATOM      7  N   UNL     1       2.522   4.110  -0.066  0.00  0.00    -0.288 N 
ATOM      8  C   UNL     1       2.425  -0.198   0.205  0.00  0.00    +0.061 C 
ATOM      9  H   UNL     1       4.346   1.534   0.519  0.00  0.00    +0.156 HD
ATOM     10  H   UNL     1       2.591   5.077  -0.113  0.00  0.00    +0.151 HD
ENDROOT
BRANCH   1  15
ATOM     11  C   UNL     1      -2.622   5.481   3.466  0.00  0.00    +0.045 C 
ATOM     12  C   UNL     1      -1.615   4.947   2.480  0.00  0.00    -0.036 A 
ATOM     13  C   UNL     1      -0.362   4.556   2.914  0.00  0.00    +0.005 A 
ATOM     14  C   UNL     1       0.559   4.061   2.010  0.00  0.00    +0.006 A 
ATOM     15  C   UNL     1       0.232   3.967   0.670  0.00  0.00    -0.021 A 
ATOM     16  C   UNL     1      -1.020   4.358   0.235  0.00  0.00    +0.021 A 
ATOM     17  C   UNL     1      -1.945   4.848   1.140  0.00  0.00    +0.021 A 
ATOM     18 BR   UNL     1      -3.659   5.382   0.546  0.00  0.00    -0.050 Br
ENDBRANCH   1  15
BRANCH   2  19
ATOM     19  C   UNL     1       0.046   1.180  -0.443  0.00  0.00    +0.339 C 
ATOM     20  O   UNL     1       0.084  -0.036  -0.467  0.00  0.00    -0.245 OA
BRANCH  19  21
ATOM     21  O   UNL     1      -1.125   1.823  -0.634  0.00  0.00    -0.458 OA
BRANCH  21  22
ATOM     22  C   UNL     1      -2.280   1.012  -0.859  0.00  0.00    +0.177 C 
ATOM     23  C   UNL     1      -2.495   0.808  -2.373  0.00  0.00    +0.044 C 
ATOM     24  C   UNL     1      -4.034   0.836  -2.546  0.00  0.00    +0.004 C 
ATOM     25  C   UNL     1      -4.471   1.930  -1.540  0.00  0.00    +0.004 C 
ATOM     26  C   UNL     1      -3.537   1.725  -0.329  0.00  0.00    +0.044 C 
ENDBRANCH  21  22
ENDBRANCH  19  21
ENDBRANCH   2  19
TORSDOF 4
