REMARK  Name = ZINC01305737
REMARK  7 active torsions:
REMARK  status: ('A' for Active; 'I' for Inactive)
REMARK    1  A    between atoms: C_1  and  C_2
REMARK    2  A    between atoms: C_2  and  C_3
REMARK    3  A    between atoms: C_3  and  C_4
REMARK    4  A    between atoms: N_7  and  C_9
REMARK    5  A    between atoms: C_16  and  N_29
REMARK    6  A    between atoms: C_17  and  C_27
REMARK    7  A    between atoms: C_18  and  C_20
REMARK                            x       y       z     vdW  Elec       q    Type
REMARK                         _______ _______ _______ _____ _____    ______ ____
ROOT
ATOM      1  C   UNL     1       1.894   4.642  -0.620  0.00  0.00    +0.071 A 
ATOM      2  C   UNL     1       1.011   3.623  -0.291  0.00  0.00    +0.050 A 
ATOM      3  C   UNL     1      -0.251   4.147  -0.263  0.00  0.00    +0.230 A 
ATOM      4  N   UNL     1      -0.152   5.460  -0.566  0.00  0.00    -0.200 N 
ATOM      5  N   UNL     1       1.204   5.746  -0.786  0.00  0.00    -0.168 NA
ATOM      6  O   UNL     1      -1.347   3.404   0.027  0.00  0.00    -0.423 OA
ATOM      7  C   UNL     1      -1.211   2.062   0.019  0.00  0.00    +0.200 C 
ATOM      8  C   UNL     1      -0.017   1.428   0.010  0.00  0.00    +0.098 C 
ATOM      9  C   UNL     1       1.295   2.172   0.001  0.00  0.00    +0.103 C 
ENDROOT
BRANCH   9  10
ATOM     10  C   UNL     1       1.960   2.045   1.347  0.00  0.00    -0.016 A 
ATOM     11  C   UNL     1       1.325   2.518   2.480  0.00  0.00    +0.006 A 
ATOM     12  C   UNL     1       1.933   2.397   3.716  0.00  0.00    +0.000 A 
ATOM     13  C   UNL     1       3.181   1.812   3.818  0.00  0.00    +0.001 A 
ATOM     14  C   UNL     1       3.820   1.343   2.686  0.00  0.00    +0.020 A 
ATOM     15  C   UNL     1       3.209   1.459   1.449  0.00  0.00    +0.045 A 
ATOM     16 CL   UNL     1       4.011   0.871   0.026  0.00  0.00    -0.083 Cl
ENDBRANCH   9  10
BRANCH   4  17
ATOM     17  C   UNL     1      -1.214   6.372  -0.646  0.00  0.00    +0.069 A 
ATOM     18  C   UNL     1      -2.449   5.961  -1.127  0.00  0.00    +0.028 A 
ATOM     19  C   UNL     1      -3.495   6.861  -1.200  0.00  0.00    +0.002 A 
ATOM     20  C   UNL     1      -3.308   8.172  -0.804  0.00  0.00    +0.000 A 
ATOM     21  C   UNL     1      -2.077   8.586  -0.330  0.00  0.00    +0.002 A 
ATOM     22  C   UNL     1      -1.030   7.690  -0.249  0.00  0.00    +0.028 A 
ENDBRANCH   4  17
BRANCH   7  23
ATOM     23  N   UNL     1      -2.350   1.296   0.026  0.00  0.00    -0.328 N 
ATOM     24  H   UNL     1      -2.284   0.329   0.024  0.00  0.00    +0.145 HD
ATOM     25  H   UNL     1      -3.221   1.723   0.033  0.00  0.00    +0.145 HD
ENDBRANCH   7  23
BRANCH   8  26
ATOM     26  C   UNL     1       0.002  -0.004   0.002  0.00  0.00    +0.101 C 
ATOM     27  N   UNL     1       0.018  -1.140  -0.004  0.00  0.00    -0.191 NA
ENDBRANCH   8  26
BRANCH   1  28
ATOM     28  C   UNL     1       3.388   4.505  -0.762  0.00  0.00    +0.057 C 
BRANCH  28  30
ATOM     29  C   UNL     1       5.249   4.008  -2.353  0.00  0.00    +0.004 C 
ATOM     30  C   UNL     1       3.732   4.147  -2.209  0.00  0.00    +0.003 C 
ENDBRANCH  28  30
ENDBRANCH   1  28
TORSDOF 6
