REMARK  Name = ZINC39604049
REMARK  9 active torsions:
REMARK  status: ('A' for Active; 'I' for Inactive)
REMARK    1  A    between atoms: C_1  and  C_2
REMARK    2  A    between atoms: C_2  and  O_3
REMARK    3  A    between atoms: O_3  and  C_4
REMARK    4  A    between atoms: C_4  and  C_6
REMARK    5  A    between atoms: C_6  and  C_7
REMARK    6  A    between atoms: C_7  and  N_8
REMARK    7  A    between atoms: C_9  and  C_11
REMARK    8  A    between atoms: C_22  and  C_24
REMARK    9  A    between atoms: C_24  and  C_30
REMARK                            x       y       z     vdW  Elec       q    Type
REMARK                         _______ _______ _______ _____ _____    ______ ____
ROOT
ATOM      1  C   UNL     1       2.945  -6.330  -5.048  0.00  0.00    +0.100 C 
ATOM      2  C   UNL     1       2.116  -6.028  -6.316  0.00  0.00    +0.121 C 
ATOM      3  N   UNL     1       2.259  -7.241  -7.155  0.00  0.00    -0.300 N 
ATOM      4  C   UNL     1       2.203  -8.365  -6.190  0.00  0.00    +0.115 C 
ATOM      5  C   UNL     1       2.999  -7.865  -4.968  0.00  0.00    -0.004 C 
ATOM      6  C   UNL     1       2.344  -8.350  -3.678  0.00  0.00    -0.010 C 
ATOM      7  C   UNL     1       2.462  -9.874  -3.593  0.00  0.00    -0.082 C 
ATOM      8  N   UNL     1       3.878 -10.260  -3.623  0.00  0.00    +0.379 N 
ATOM      9  C   UNL     1       4.477  -9.872  -4.905  0.00  0.00    -0.082 C 
ATOM     10  C   UNL     1       4.444  -8.347  -5.046  0.00  0.00    -0.010 C 
ATOM     11  C   UNL     1       2.406  -7.308  -8.493  0.00  0.00    +0.222 C 
ATOM     12  O   UNL     1       2.428  -8.386  -9.048  0.00  0.00    -0.275 OA
ATOM     13  H   UNL     1       4.367  -9.797  -2.871  0.00  0.00    -0.086 HD
ATOM     14  H   UNL     1       3.956 -11.259  -3.505  0.00  0.00    -0.086 HD
ENDROOT
BRANCH  11  15
ATOM     15  C   UNL     1       2.545  -6.043  -9.300  0.00  0.00    +0.044 C 
ATOM     16  C   UNL     1       1.353  -5.125  -9.018  0.00  0.00    +0.016 C 
ATOM     17  C   UNL     1       0.057  -5.839  -9.407  0.00  0.00    +0.001 C 
ATOM     18  C   UNL     1       0.093  -6.185 -10.897  0.00  0.00    +0.000 C 
ATOM     19  C   UNL     1       1.284  -7.103 -11.179  0.00  0.00    +0.001 C 
ATOM     20  C   UNL     1       2.581  -6.389 -10.790  0.00  0.00    +0.016 C 
ATOM     21  C   UNL     1       3.841  -5.329  -8.911  0.00  0.00    +0.021 C 
ENDBRANCH  11  15
BRANCH   1  23
ATOM     22  N   UNL     1       2.971  -5.539  -2.704  0.00  0.00    -0.314 N 
ATOM     23  C   UNL     1       2.263  -5.765  -3.829  0.00  0.00    +0.218 C 
ATOM     24  O   UNL     1       1.077  -5.512  -3.859  0.00  0.00    -0.275 OA
ATOM     25  H   UNL     1       3.920  -5.741  -2.680  0.00  0.00    +0.149 HD
BRANCH  22  26
ATOM     26  C   UNL     1       2.309  -4.990  -1.519  0.00  0.00    +0.115 C 
BRANCH  26  27
ATOM     27  C   UNL     1       3.330  -4.832  -0.391  0.00  0.00    +0.139 C 
BRANCH  27  28
ATOM     28  C   UNL     1       2.649  -4.267   0.829  0.00  0.00    +0.309 C 
ATOM     29  O   UNL     1       1.467  -4.016   0.798  0.00  0.00    -0.251 OA
BRANCH  28  30
ATOM     30  O   UNL     1       3.354  -4.043   1.948  0.00  0.00    -0.465 OA
BRANCH  30  32
ATOM     31  C   UNL     1       3.607  -3.319   4.240  0.00  0.00    +0.048 C 
ATOM     32  C   UNL     1       2.644  -3.505   3.066  0.00  0.00    +0.229 C 
ENDBRANCH  30  32
ENDBRANCH  28  30
ENDBRANCH  27  28
ENDBRANCH  26  27
ENDBRANCH  22  26
ENDBRANCH   1  23
TORSDOF 7
