REMARK  Name = ZINC39964184
REMARK  4 active torsions:
REMARK  status: ('A' for Active; 'I' for Inactive)
REMARK    1  A    between atoms: C_1  and  C_2
REMARK    2  A    between atoms: C_2  and  C_3
REMARK    3  A    between atoms: C_19  and  C_28
REMARK    4  A    between atoms: C_20  and  C_21
REMARK                            x       y       z     vdW  Elec       q    Type
REMARK                         _______ _______ _______ _____ _____    ______ ____
ROOT
ATOM      1  C   UNL     1       0.731  -0.503   1.223  0.00  0.00    +0.155 A 
ATOM      2  N   UNL     1       0.175  -0.787   2.438  0.00  0.00    -0.196 NA
ATOM      3  C   UNL     1       1.206  -1.204   3.228  0.00  0.00    +0.250 A 
ATOM      4  N   UNL     1       2.295  -1.159   2.498  0.00  0.00    -0.111 NA
ATOM      5  N   UNL     1       2.008  -0.749   1.313  0.00  0.00    -0.131 NA
ATOM      6  N   UNL     1       1.119  -1.602   4.558  0.00  0.00    -0.211 N 
ATOM      7  C   UNL     1      -0.116  -1.597   5.190  0.00  0.00    +0.085 C 
ATOM      8  C   UNL     1      -0.234  -1.732   6.493  0.00  0.00    +0.018 C 
ATOM      9  C   UNL     1       0.964  -1.890   7.372  0.00  0.00    +0.156 C 
ATOM     10  C   UNL     1       2.161  -2.332   6.568  0.00  0.00    +0.059 C 
ATOM     11  C   UNL     1       3.121  -3.118   7.126  0.00  0.00    +0.124 C 
ATOM     12  N   UNL     1       2.983  -3.672   8.335  0.00  0.00    -0.238 NA
ATOM     13  C   UNL     1       1.806  -3.615   8.936  0.00  0.00    +0.147 C 
ATOM     14  N   UNL     1       0.759  -2.860   8.440  0.00  0.00    -0.225 N 
ATOM     15  N   UNL     1      -0.370  -3.196   9.172  0.00  0.00    -0.266 N 
ATOM     16  C   UNL     1       0.001  -3.960  10.242  0.00  0.00    +0.030 C 
ATOM     17  C   UNL     1       1.325  -4.223  10.166  0.00  0.00    +0.041 C 
ATOM     18  C   UNL     1      -0.914  -4.419  11.348  0.00  0.00    +0.063 C 
ATOM     19  C   UNL     1       2.234  -1.988   5.205  0.00  0.00    +0.257 C 
ATOM     20  O   UNL     1       3.301  -2.036   4.617  0.00  0.00    -0.269 OA
ATOM     21  H   UNL     1      -1.278  -2.931   8.958  0.00  0.00    +0.170 HD
ENDROOT
BRANCH  17  22
ATOM     22  C   UNL     1       2.127  -5.008  11.135  0.00  0.00    -0.013 A 
ATOM     23  C   UNL     1       3.153  -4.396  11.852  0.00  0.00    +0.010 A 
ATOM     24  C   UNL     1       3.896  -5.131  12.753  0.00  0.00    +0.016 A 
ATOM     25  C   UNL     1       3.624  -6.474  12.945  0.00  0.00    +0.018 A 
ATOM     26  C   UNL     1       2.606  -7.088  12.235  0.00  0.00    +0.016 A 
ATOM     27  C   UNL     1       1.853  -6.360  11.336  0.00  0.00    +0.010 A 
ATOM     28 BR   UNL     1       4.646  -7.476  14.181  0.00  0.00    -0.050 Br
ENDBRANCH  17  22
BRANCH   1  30
ATOM     29  C   UNL     1      -0.019   1.526   0.010  0.00  0.00    +0.012 C 
ATOM     30  C   UNL     1       0.002  -0.004   0.002  0.00  0.00    +0.075 C 
ENDBRANCH   1  30
TORSDOF 2
