REMARK  Name = ZINC61543699
REMARK  2 active torsions:
REMARK  status: ('A' for Active; 'I' for Inactive)
REMARK    1  A    between atoms: C_3  and  S_8
REMARK    2  A    between atoms: S_8  and  C_9
REMARK                            x       y       z     vdW  Elec       q    Type
REMARK                         _______ _______ _______ _____ _____    ______ ____
ROOT
ATOM      1  C   UNL     1       5.134   1.064   0.107  0.00  0.00    +0.199 A 
ATOM      2  N   UNL     1       6.412   1.406   0.234  0.00  0.00    -0.188 NA
ATOM      3  C   UNL     1       7.343   0.463   0.332  0.00  0.00    +0.223 A 
ATOM      4  N   UNL     1       6.992  -0.821   0.303  0.00  0.00    -0.184 NA
ATOM      5  C   UNL     1       5.719  -1.159   0.177  0.00  0.00    +0.228 A 
ATOM      6  N   UNL     1       4.790  -0.222   0.085  0.00  0.00    -0.191 NA
ATOM      7 CL   UNL     1       5.267  -2.834   0.140  0.00  0.00    -0.041 Cl
ATOM      8  N   UNL     1       8.671   0.814   0.464  0.00  0.00    -0.295 N 
ATOM      9  C   UNL     1       9.081   2.226   0.503  0.00  0.00    +0.136 C 
ATOM     10  C   UNL     1       9.988   2.433   1.722  0.00  0.00    +0.179 C 
ATOM     11  O   UNL     1      11.041   1.466   1.694  0.00  0.00    -0.377 OA
ATOM     12  C   UNL     1      10.595   0.111   1.784  0.00  0.00    +0.179 C 
ATOM     13  C   UNL     1       9.718  -0.214   0.574  0.00  0.00    +0.136 C 
ENDROOT
BRANCH   1  14
ATOM     14  S   UNL     1       3.896   2.311  -0.023  0.00  0.00    -0.050 S 
BRANCH  14  17
ATOM     15  C   UNL     1       0.608   0.347   1.206  0.00  0.00    +0.039 A 
ATOM     16  C   UNL     1       1.796   1.052   1.198  0.00  0.00    +0.018 A 
ATOM     17  C   UNL     1       2.381   1.411  -0.010  0.00  0.00    +0.016 A 
ATOM     18  C   UNL     1       1.771   1.058  -1.207  0.00  0.00    +0.018 A 
ATOM     19  C   UNL     1       0.583   0.353  -1.194  0.00  0.00    +0.039 A 
ATOM     20  C   UNL     1       0.001  -0.003   0.011  0.00  0.00    +0.123 A 
ATOM     21  F   UNL     1      -1.160  -0.693   0.021  0.00  0.00    -0.205 F 
ENDBRANCH  14  17
ENDBRANCH   1  14
TORSDOF 2
