REMARK  Name = ZINC02512885
REMARK  4 active torsions:
REMARK  status: ('A' for Active; 'I' for Inactive)
REMARK    1  A    between atoms: C_10  and  N_12
REMARK    2  A    between atoms: N_12  and  S_13
REMARK    3  A    between atoms: S_13  and  C_16
REMARK    4  A    between atoms: C_21  and  N_22
REMARK                            x       y       z     vdW  Elec       q    Type
REMARK                         _______ _______ _______ _____ _____    ______ ____
ROOT
ATOM      1  S   UNL     1       4.251   3.771  -0.417  0.00  0.00    +0.061 S 
ATOM      2  O   UNL     1       4.439   4.701  -1.476  0.00  0.00    -0.153 OA
ATOM      3  O   UNL     1       3.615   4.125   0.803  0.00  0.00    -0.153 OA
ENDROOT
BRANCH   1   4
ATOM      4  C   UNL     1       5.848   3.160   0.006  0.00  0.00    +0.135 A 
ATOM      5  C   UNL     1       6.245   3.121   1.330  0.00  0.00    +0.032 A 
ATOM      6  C   UNL     1       7.497   2.642   1.662  0.00  0.00    +0.022 A 
ATOM      7  C   UNL     1       8.356   2.202   0.670  0.00  0.00    +0.043 A 
ATOM      8  C   UNL     1       7.959   2.242  -0.654  0.00  0.00    +0.054 A 
ATOM      9  C   UNL     1       6.703   2.716  -0.986  0.00  0.00    +0.154 A 
ATOM     10 CL   UNL     1       9.930   1.600   1.087  0.00  0.00    -0.083 Cl
BRANCH   9  11
ATOM     11  N   UNL     1       6.276   2.753  -2.402  0.00  0.00    +0.058 N 
ATOM     12  O   UNL     1       7.069   2.477  -3.285  0.00  0.00    -0.126 OA
ATOM     13  O   UNL     1       5.131   3.059  -2.685  0.00  0.00    -0.126 OA
ENDBRANCH   9  11
ENDBRANCH   1   4
BRANCH   1  14
ATOM     14  N   UNL     1       3.393   2.503  -1.048  0.00  0.00    -0.182 NA
ATOM     15  H   UNL     1       3.070   2.543  -1.962  0.00  0.00    +0.149 HD
BRANCH  14  25
ATOM     16  C   UNL     1      -1.059   1.263   0.674  0.00  0.00    +0.000 A 
ATOM     17  C   UNL     1      -0.343   2.445   0.714  0.00  0.00    +0.000 A 
ATOM     18  C   UNL     1       1.004   2.439   0.417  0.00  0.00    +0.005 A 
ATOM     19  C   UNL     1       1.648   1.256   0.079  0.00  0.00    -0.026 A 
ATOM     20  C   UNL     1       0.934   0.080   0.035  0.00  0.00    -0.043 A 
ATOM     21  C   UNL     1      -0.424   0.088   0.330  0.00  0.00    +0.004 A 
ATOM     22  C   UNL     1       1.564  -1.239  -0.330  0.00  0.00    +0.035 C 
ATOM     23  C   UNL     1       3.084  -1.160  -0.204  0.00  0.00    +0.007 C 
ATOM     24  C   UNL     1       3.571   0.070  -0.978  0.00  0.00    +0.025 C 
ATOM     25  C   UNL     1       3.122   1.321  -0.226  0.00  0.00    +0.107 C 
ENDBRANCH  14  25
ENDBRANCH   1  14
TORSDOF 4
