REMARK  Name = ZINC39467563
REMARK  6 active torsions:
REMARK  status: ('A' for Active; 'I' for Inactive)
REMARK    1  A    between atoms: C_1  and  O_2
REMARK    2  A    between atoms: O_2  and  C_3
REMARK    3  A    between atoms: C_15  and  S_16
REMARK    4  A    between atoms: S_16  and  C_19
REMARK    5  A    between atoms: P_27  and  C_30
REMARK    6  A    between atoms: C_35  and  O_36
REMARK                            x       y       z     vdW  Elec       q    Type
REMARK                         _______ _______ _______ _____ _____    ______ ____
ROOT
ATOM      1  C   UNL     1       0.606  -0.607  -1.056  0.00  0.00    +0.141 C 
ATOM      2  C   UNL     1       1.154   0.131  -2.029  0.00  0.00    +0.026 C 
ATOM      3  C   UNL     1       1.825  -0.569  -3.178  0.00  0.00    +0.038 C 
ATOM      4  C   UNL     1       2.845   0.333  -3.864  0.00  0.00    +0.111 C 
ATOM      5  N   UNL     1       3.461  -0.382  -4.997  0.00  0.00    -0.229 NA
ATOM      6  C   UNL     1       4.127  -1.620  -4.588  0.00  0.00    +0.100 C 
ATOM      7  C   UNL     1       3.160  -2.545  -3.837  0.00  0.00    +0.031 C 
ATOM      8  C   UNL     1       2.566  -1.802  -2.644  0.00  0.00    +0.023 C 
ATOM      9  C   UNL     1       1.595  -2.665  -1.887  0.00  0.00    +0.008 C 
ATOM     10  C   UNL     1       0.666  -2.080  -1.135  0.00  0.00    +0.131 C 
ATOM     11  C   UNL     1       4.634  -2.411  -5.800  0.00  0.00    +0.189 C 
ATOM     12  O   UNL     1       5.593  -1.618  -6.523  0.00  0.00    -0.311 OA
ATOM     13  P   UNL     1       5.173  -0.099  -6.926  0.00  0.00    +0.318 P 
ATOM     14  O   UNL     1       4.311  -0.107  -8.130  0.00  0.00    -0.266 OA
ATOM     15  N   UNL     1       4.340   0.489  -5.608  0.00  0.00    -0.175 NA
ATOM     16  H   UNL     1       4.449   1.399  -5.291  0.00  0.00    +0.151 HD
ENDROOT
BRANCH  13  17
ATOM     17  C   UNL     1       6.654   0.906  -7.222  0.00  0.00    +0.094 A 
ATOM     18  C   UNL     1       7.241   1.596  -6.179  0.00  0.00    +0.018 A 
ATOM     19  C   UNL     1       8.370   2.362  -6.404  0.00  0.00    +0.001 A 
ATOM     20  C   UNL     1       8.914   2.439  -7.673  0.00  0.00    +0.004 A 
ATOM     21  C   UNL     1       8.331   1.751  -8.719  0.00  0.00    +0.046 A 
ATOM     22  C   UNL     1       7.201   0.977  -8.495  0.00  0.00    +0.131 A 
BRANCH  22  23
ATOM     23  O   UNL     1       6.629   0.294  -9.521  0.00  0.00    -0.506 OA
ATOM     24  H   UNL     1       5.953   0.795  -9.999  0.00  0.00    +0.292 HD
ENDBRANCH  22  23
ENDBRANCH  13  17
BRANCH  10  25
ATOM     25  S   UNL     1      -0.492  -3.063  -0.242  0.00  0.00    +0.028 S 
ATOM     26  O   UNL     1      -1.779  -2.528  -0.522  0.00  0.00    -0.164 OA
ATOM     27  O   UNL     1      -0.158  -4.419  -0.501  0.00  0.00    -0.164 OA
BRANCH  25  28
ATOM     28  C   UNL     1      -0.195  -2.789   1.473  0.00  0.00    +0.094 A 
ATOM     29  C   UNL     1       0.705  -3.587   2.154  0.00  0.00    +0.027 A 
ATOM     30  C   UNL     1       0.939  -3.372   3.500  0.00  0.00    +0.002 A 
ATOM     31  C   UNL     1       0.273  -2.359   4.164  0.00  0.00    +0.000 A 
ATOM     32  C   UNL     1      -0.627  -1.560   3.482  0.00  0.00    +0.002 A 
ATOM     33  C   UNL     1      -0.857  -1.772   2.135  0.00  0.00    +0.027 A 
ENDBRANCH  25  28
ENDBRANCH  10  25
BRANCH   1  35
ATOM     34  C   UNL     1      -0.017   1.425   0.010  0.00  0.00    +0.277 C 
ATOM     35  O   UNL     1       0.002  -0.004   0.002  0.00  0.00    -0.494 OA
ENDBRANCH   1  35
TORSDOF 5
