REMARK  Name = ZINC45866280
REMARK  5 active torsions:
REMARK  status: ('A' for Active; 'I' for Inactive)
REMARK    1  A    between atoms: C_1  and  C_2
REMARK    2  A    between atoms: C_7  and  C_10
REMARK    3  A    between atoms: C_10  and  N_11
REMARK    4  A    between atoms: C_14  and  C_18
REMARK    5  A    between atoms: C_14  and  C_19
REMARK                            x       y       z     vdW  Elec       q    Type
REMARK                         _______ _______ _______ _____ _____    ______ ____
ROOT
ATOM      1  N   UNL     1      -3.580  -5.407   1.371  0.00  0.00    -0.218 N 
ATOM      2  C   UNL     1      -3.099  -6.377   2.174  0.00  0.00    +0.251 C 
ATOM      3  O   UNL     1      -2.248  -7.196   1.903  0.00  0.00    -0.272 OA
ATOM      4  C   UNL     1      -3.844  -6.229   3.486  0.00  0.00    +0.135 C 
ATOM      5  N   UNL     1      -4.742  -5.086   3.247  0.00  0.00    -0.281 N 
ATOM      6  C   UNL     1      -4.511  -4.672   1.988  0.00  0.00    +0.310 C 
ATOM      7  O   UNL     1      -5.088  -3.736   1.469  0.00  0.00    -0.252 OA
ATOM      8  C   UNL     1      -4.651  -7.492   3.792  0.00  0.00    +0.047 C 
ATOM      9  H   UNL     1      -5.374  -4.705   3.876  0.00  0.00    +0.152 HD
ENDROOT
BRANCH   4  10
ATOM     10  C   UNL     1      -2.886  -5.925   4.608  0.00  0.00    -0.015 A 
ATOM     11  C   UNL     1      -1.587  -6.396   4.555  0.00  0.00    +0.007 A 
ATOM     12  C   UNL     1      -0.708  -6.118   5.584  0.00  0.00    +0.020 A 
ATOM     13  C   UNL     1      -1.127  -5.368   6.668  0.00  0.00    +0.041 A 
ATOM     14  C   UNL     1      -2.427  -4.896   6.721  0.00  0.00    +0.020 A 
ATOM     15  C   UNL     1      -3.304  -5.170   5.689  0.00  0.00    +0.007 A 
ATOM     16 CL   UNL     1      -0.023  -5.018   7.961  0.00  0.00    -0.084 Cl
ENDBRANCH   4  10
BRANCH   1  17
ATOM     17  C   UNL     1      -3.133  -5.182  -0.006  0.00  0.00    +0.174 C 
BRANCH  17  24
ATOM     18  C   UNL     1      -0.018   1.503   0.010  0.00  0.00    +0.109 C 
ATOM     19  C   UNL     1       0.002  -0.004   0.002  0.00  0.00    +0.216 C 
ATOM     20  O   UNL     1       1.060  -0.596  -0.011  0.00  0.00    -0.276 OA
ATOM     21  N   UNL     1      -1.156  -0.694   0.009  0.00  0.00    -0.265 N 
ATOM     22  C   UNL     1      -1.137  -2.084   0.002  0.00  0.00    +0.165 A 
ATOM     23  N   UNL     1      -2.156  -2.915   0.002  0.00  0.00    -0.228 NA
ATOM     24  C   UNL     1      -1.971  -4.222  -0.006  0.00  0.00    +0.068 A 
ATOM     25  C   UNL     1      -0.689  -4.662  -0.014  0.00  0.00    +0.073 A 
ATOM     26  S   UNL     1       0.196  -3.111  -0.017  0.00  0.00    -0.060 S 
ATOM     27  H   UNL     1      -2.002  -0.220   0.020  0.00  0.00    +0.157 HD
ENDBRANCH  17  24
ENDBRANCH   1  17
TORSDOF 3
