REMARK  Name = ZINC50635120
REMARK  4 active torsions:
REMARK  status: ('A' for Active; 'I' for Inactive)
REMARK    1  A    between atoms: C_1  and  C_2
REMARK    2  A    between atoms: N_6  and  S_7
REMARK    3  A    between atoms: S_7  and  C_10
REMARK    4  A    between atoms: C_18  and  N_20
REMARK                            x       y       z     vdW  Elec       q    Type
REMARK                         _______ _______ _______ _____ _____    ______ ____
ROOT
ATOM      1  C   UNL     1       0.092  -5.388   3.361  0.00  0.00    +0.113 A 
ATOM      2  C   UNL     1       1.311  -5.692   3.963  0.00  0.00    +0.031 A 
ATOM      3  C   UNL     1       1.360  -6.335   5.162  0.00  0.00    +0.028 A 
ATOM      4  C   UNL     1       0.166  -6.701   5.807  0.00  0.00    +0.048 A 
ATOM      5  C   UNL     1      -1.072  -6.391   5.193  0.00  0.00    +0.000 A 
ATOM      6  C   UNL     1      -1.085  -5.722   3.959  0.00  0.00    +0.039 A 
ATOM      7  C   UNL     1      -2.269  -6.757   5.840  0.00  0.00    +0.013 A 
ATOM      8  C   UNL     1      -2.186  -7.400   7.038  0.00  0.00    +0.042 A 
ATOM      9  C   UNL     1      -0.929  -7.680   7.595  0.00  0.00    +0.094 A 
ATOM     10  N   UNL     1       0.187  -7.334   6.986  0.00  0.00    -0.343 N 
ATOM     11  H   UNL     1       1.039  -7.543   7.399  0.00  0.00    +0.167 HD
ENDROOT
BRANCH   1  12
ATOM     12  S   UNL     1       0.073  -4.553   1.809  0.00  0.00    +0.101 S 
ATOM     13  O   UNL     1      -1.172  -4.863   1.197  0.00  0.00    -0.146 OA
ATOM     14  O   UNL     1       1.319  -4.829   1.185  0.00  0.00    -0.146 OA
BRANCH  12  20
ATOM     15  C   UNL     1      -0.018   1.503   0.010  0.00  0.00    +0.064 C 
ATOM     16  C   UNL     1       0.002  -0.004   0.002  0.00  0.00    +0.022 A 
ATOM     17  C   UNL     1       0.005  -0.662  -1.157  0.00  0.00    +0.069 A 
ATOM     18  S   UNL     1       0.031  -2.365  -0.622  0.00  0.00    -0.057 S 
ATOM     19  C   UNL     1       0.035  -2.068   1.139  0.00  0.00    +0.192 A 
ATOM     20  N   UNL     1       0.052  -2.928   2.127  0.00  0.00    -0.103 NA
ATOM     21  N   UNL     1       0.023  -0.690   1.181  0.00  0.00    -0.336 N 
ATOM     22  H   UNL     1       0.024  -0.220   2.029  0.00  0.00    +0.168 HD
ENDBRANCH  12  20
ENDBRANCH   1  12
BRANCH   9  23
ATOM     23  N   UNL     1      -0.859  -8.335   8.815  0.00  0.00    -0.345 N 
ATOM     24  H   UNL     1      -1.674  -8.594   9.274  0.00  0.00    +0.144 HD
ATOM     25  H   UNL     1       0.004  -8.534   9.210  0.00  0.00    +0.144 HD
ENDBRANCH   9  23
TORSDOF 3
