REMARK  Name = ZINC13019077
REMARK  9 active torsions:
REMARK  status: ('A' for Active; 'I' for Inactive)
REMARK    1  A    between atoms: C_1  and  C_2
REMARK    2  A    between atoms: C_5  and  N_9
REMARK    3  A    between atoms: C_6  and  C_8
REMARK    4  A    between atoms: C_10  and  C_12
REMARK    5  A    between atoms: C_12  and  C_14
REMARK    6  A    between atoms: C_12  and  S_15
REMARK    7  A    between atoms: S_15  and  C_16
REMARK    8  A    between atoms: C_20  and  C_28
REMARK    9  A    between atoms: N_26  and  C_27
REMARK                            x       y       z     vdW  Elec       q    Type
REMARK                         _______ _______ _______ _____ _____    ______ ____
ROOT
ATOM      1  S   UNL     1       2.628   0.912   0.548  0.00  0.00    -0.075 S 
ENDROOT
BRANCH   1   2
ATOM      2  C   UNL     1       3.951   2.075   0.572  0.00  0.00    +0.173 A 
ATOM      3  N   UNL     1       3.703   3.311   0.214  0.00  0.00    -0.223 NA
ATOM      4  C   UNL     1       4.672   4.257   0.213  0.00  0.00    +0.080 A 
ATOM      5  C   UNL     1       4.403   5.576  -0.164  0.00  0.00    +0.043 A 
ATOM      6  C   UNL     1       5.431   6.511  -0.155  0.00  0.00    +0.065 A 
ATOM      7  C   UNL     1       6.726   6.140   0.229  0.00  0.00    +0.016 A 
ATOM      8  C   UNL     1       7.000   4.854   0.600  0.00  0.00    +0.016 A 
ATOM      9  C   UNL     1       5.984   3.899   0.598  0.00  0.00    +0.065 A 
ATOM     10  C   UNL     1       6.235   2.503   0.989  0.00  0.00    +0.262 A 
ATOM     11  O   UNL     1       7.343   2.134   1.330  0.00  0.00    -0.267 OA
ATOM     12  N   UNL     1       5.189   1.645   0.957  0.00  0.00    -0.290 N 
ATOM     13  C   UNL     1       5.386   0.245   1.337  0.00  0.00    +0.154 C 
BRANCH   6  14
ATOM     14  C   UNL     1       5.155   7.909  -0.553  0.00  0.00    +0.387 C 
ATOM     15  O   UNL     1       4.034   8.235  -0.886  0.00  0.00    -0.241 OA
ATOM     16  O   UNL     1       6.147   8.819  -0.546  0.00  0.00    -0.241 OA
ENDBRANCH   6  14
ENDBRANCH   1   2
BRANCH   1  17
ATOM     17  C   UNL     1       1.280   1.980  -0.015  0.00  0.00    +0.137 C 
ATOM     18  C   UNL     1       1.568   2.456  -1.440  0.00  0.00    +0.029 C 
BRANCH  17  20
ATOM     19  N   UNL     1      -1.191   1.867   0.018  0.00  0.00    -0.284 N 
ATOM     20  C   UNL     1      -0.014   1.209   0.005  0.00  0.00    +0.230 C 
ATOM     21  O   UNL     1       0.003  -0.004   0.005  0.00  0.00    -0.274 OA
ATOM     22  H   UNL     1      -1.205   2.833   0.099  0.00  0.00    +0.155 HD
BRANCH  19  27
ATOM     23  C   UNL     1      -6.057  -1.018  -0.402  0.00  0.00    +0.044 C 
ATOM     24  C   UNL     1      -4.765  -0.252  -0.291  0.00  0.00    -0.050 A 
ATOM     25  C   UNL     1      -3.597  -0.791  -0.800  0.00  0.00    +0.005 A 
ATOM     26  C   UNL     1      -2.411  -0.091  -0.699  0.00  0.00    +0.024 A 
ATOM     27  C   UNL     1      -2.391   1.155  -0.086  0.00  0.00    +0.036 A 
ATOM     28  C   UNL     1      -3.564   1.691   0.428  0.00  0.00    -0.029 A 
ATOM     29  C   UNL     1      -4.748   0.989   0.320  0.00  0.00    +0.008 A 
ATOM     30  C   UNL     1      -3.546   3.040   1.100  0.00  0.00    +0.045 C 
ENDBRANCH  19  27
ENDBRANCH  17  20
ENDBRANCH   1  17
TORSDOF 5
