REMARK  Name = ZINC00290403
REMARK  5 active torsions:
REMARK  status: ('A' for Active; 'I' for Inactive)
REMARK    1  A    between atoms: C_9  and  C_11
REMARK    2  A    between atoms: C_11  and  C_23
REMARK    3  A    between atoms: C_12  and  C_13
REMARK    4  A    between atoms: C_14  and  C_15
REMARK    5  A    between atoms: C_18  and  N_20
REMARK                            x       y       z     vdW  Elec       q    Type
REMARK                         _______ _______ _______ _____ _____    ______ ____
ROOT
ATOM      1  C   UNL     1      -2.147   8.470   0.063  0.00  0.00    +0.094 C 
ATOM      2  C   UNL     1      -2.997   7.345   0.060  0.00  0.00    +0.022 C 
ENDROOT
BRANCH   1  11
ATOM      3  C   UNL     1      -3.918  14.182   0.108  0.00  0.00    +0.002 A 
ATOM      4  C   UNL     1      -5.182  13.598   0.110  0.00  0.00    +0.002 A 
ATOM      5  C   UNL     1      -5.325  12.244   0.103  0.00  0.00    +0.030 A 
ATOM      6  C   UNL     1      -4.183  11.419   0.092  0.00  0.00    +0.089 A 
ATOM      7  C   UNL     1      -2.897  12.017   0.089  0.00  0.00    +0.066 A 
ATOM      8  C   UNL     1      -2.782  13.400   0.097  0.00  0.00    +0.028 A 
ATOM      9  N   UNL     1      -1.991  10.983   0.078  0.00  0.00    -0.337 N 
ATOM     10  H   UNL     1      -0.994  11.065   0.073  0.00  0.00    +0.167 HD
ATOM     11  C   UNL     1      -2.716   9.816   0.074  0.00  0.00    +0.150 A 
ATOM     12  N   UNL     1      -4.007  10.097   0.077  0.00  0.00    -0.227 NA
ENDBRANCH   1  11
BRANCH   2  13
ATOM     13  C   UNL     1      -2.459   6.075   0.050  0.00  0.00    +0.005 C 
ATOM     14  C   UNL     1      -3.308   4.950   0.047  0.00  0.00    +0.046 C 
BRANCH  14  15
ATOM     15  C   UNL     1      -2.768   3.674   0.036  0.00  0.00    +0.131 A 
ATOM     16  C   UNL     1      -3.494   2.461   0.033  0.00  0.00    +0.052 A 
ATOM     17  C   UNL     1      -2.557   1.444   0.022  0.00  0.00    +0.076 A 
ATOM     18  C   UNL     1      -1.308   2.036   0.019  0.00  0.00    +0.280 A 
ATOM     19  O   UNL     1      -1.452   3.365   0.033  0.00  0.00    -0.435 OA
BRANCH  18  20
ATOM     20  N   UNL     1      -0.016   1.313   0.009  0.00  0.00    +0.093 N 
ATOM     21  O   UNL     1       0.002  -0.004   0.002  0.00  0.00    -0.123 OA
ATOM     22  O   UNL     1       1.116   1.987   0.002  0.00  0.00    -0.123 OA
ENDBRANCH  18  20
ENDBRANCH  14  15
ENDBRANCH   2  13
BRANCH   1  23
ATOM     23  C   UNL     1      -0.726   8.293   0.054  0.00  0.00    +0.103 C 
ATOM     24  N   UNL     1       0.402   8.154   0.047  0.00  0.00    -0.191 NA
ENDBRANCH   1  23
TORSDOF 5
