REMARK  Name = ZINC04172024
REMARK  9 active torsions:
REMARK  status: ('A' for Active; 'I' for Inactive)
REMARK    1  A    between atoms: C_1  and  C_2
REMARK    2  A    between atoms: C_3  and  O_28
REMARK    3  A    between atoms: C_4  and  C_25
REMARK    4  A    between atoms: C_9  and  C_24
REMARK    5  A    between atoms: C_10  and  C_13
REMARK    6  A    between atoms: N_16  and  C_18
REMARK    7  A    between atoms: C_25  and  N_52
REMARK    8  A    between atoms: C_26  and  N_52
REMARK    9  A    between atoms: C_27  and  N_52
REMARK                            x       y       z     vdW  Elec       q    Type
REMARK                         _______ _______ _______ _____ _____    ______ ____
ROOT
ATOM      1  C   UNL     1       4.035  -6.124  -1.504  0.00  0.00    +0.051 C 
ATOM      2  C   UNL     1       3.288  -5.711  -0.262  0.00  0.00    +0.034 A 
ATOM      3  C   UNL     1       3.104  -6.616   0.770  0.00  0.00    +0.125 A 
ATOM      4  C   UNL     1       2.416  -6.246   1.923  0.00  0.00    -0.021 A 
ATOM      5  C   UNL     1       1.913  -4.983   2.050  0.00  0.00    +0.020 A 
ATOM      6  C   UNL     1       2.089  -4.060   1.019  0.00  0.00    +0.065 A 
ATOM      7  C   UNL     1       2.782  -4.423  -0.150  0.00  0.00    +0.145 A 
ATOM      8  O   UNL     1       2.952  -3.530  -1.144  0.00  0.00    -0.459 OA
ATOM      9  C   UNL     1       2.489  -2.277  -1.092  0.00  0.00    +0.114 A 
ATOM     10  C   UNL     1       1.804  -1.796  -0.025  0.00  0.00    +0.070 A 
ATOM     11  C   UNL     1       1.565  -2.686   1.124  0.00  0.00    +0.201 A 
ATOM     12  O   UNL     1       0.960  -2.307   2.111  0.00  0.00    -0.286 OA
ATOM     13  C   UNL     1       2.739  -1.364  -2.264  0.00  0.00    +0.087 C 
ENDROOT
BRANCH  10  14
ATOM     14  C   UNL     1       1.308  -0.396  -0.013  0.00  0.00    +0.027 A 
ATOM     15  C   UNL     1       2.103   0.767  -0.014  0.00  0.00    +0.143 A 
ATOM     16  N   UNL     1       1.309   1.806  -0.001  0.00  0.00    -0.174 NA
ATOM     17  N   UNL     1      -0.016   1.354   0.009  0.00  0.00    -0.239 N 
ATOM     18  C   UNL     1       0.002  -0.004   0.002  0.00  0.00    +0.123 A 
BRANCH  17  19
ATOM     19  C   UNL     1      -1.162   2.162   0.019  0.00  0.00    +0.065 A 
ATOM     20  C   UNL     1      -2.423   1.581   0.017  0.00  0.00    +0.028 A 
ATOM     21  C   UNL     1      -3.549   2.379   0.032  0.00  0.00    +0.002 A 
ATOM     22  C   UNL     1      -3.422   3.756   0.038  0.00  0.00    +0.000 A 
ATOM     23  C   UNL     1      -2.168   4.338   0.036  0.00  0.00    +0.002 A 
ATOM     24  C   UNL     1      -1.037   3.544   0.026  0.00  0.00    +0.028 A 
ENDBRANCH  17  19
ENDBRANCH  10  14
BRANCH   3  25
ATOM     25  O   UNL     1       3.600  -7.875   0.657  0.00  0.00    -0.506 OA
ATOM     26  H   UNL     1       4.502  -7.974   0.992  0.00  0.00    +0.292 HD
ENDBRANCH   3  25
BRANCH   4  27
ATOM     27  C   UNL     1       2.227  -7.245   3.036  0.00  0.00    -0.040 C 
BRANCH  27  30
ATOM     28  C   UNL     1       3.708  -6.060   4.541  0.00  0.00    -0.096 C 
ATOM     29  C   UNL     1       3.397  -8.450   4.780  0.00  0.00    -0.096 C 
ATOM     30  N   UNL     1       3.477  -7.329   3.819  0.00  0.00    +0.379 N 
ATOM     31  H   UNL     1       4.262  -7.495   3.178  0.00  0.00    -0.082 HD
ENDBRANCH  27  30
ENDBRANCH   4  27
TORSDOF 5
