REMARK  Name = ZINC20536791
REMARK  8 active torsions:
REMARK  status: ('A' for Active; 'I' for Inactive)
REMARK    1  A    between atoms: C_1  and  C_2
REMARK    2  A    between atoms: C_5  and  C_34
REMARK    3  A    between atoms: C_6  and  N_8
REMARK    4  A    between atoms: C_10  and  C_19
REMARK    5  A    between atoms: C_11  and  C_13
REMARK    6  A    between atoms: C_19  and  N_20
REMARK    7  A    between atoms: C_23  and  N_26
REMARK    8  A    between atoms: C_30  and  O_33
REMARK                            x       y       z     vdW  Elec       q    Type
REMARK                         _______ _______ _______ _____ _____    ______ ____
ROOT
ATOM      1  N   UNL     1       0.369  -0.412   0.009  0.00  0.00    -0.239 N 
ATOM      2  C   UNL     1       0.105  -1.743  -0.072  0.00  0.00    +0.120 A 
ATOM      3  C   UNL     1      -1.188  -1.930   0.270  0.00  0.00    +0.012 A 
ATOM      4  C   UNL     1      -1.743  -0.671   0.573  0.00  0.00    +0.098 A 
ATOM      5  N   UNL     1      -0.802   0.237   0.419  0.00  0.00    -0.166 NA
ENDROOT
BRANCH   1  11
ATOM      6  C   UNL     1       5.261  -0.329   0.502  0.00  0.00    +0.044 C 
ATOM      7  C   UNL     1       3.985   0.263  -0.039  0.00  0.00    -0.048 A 
ATOM      8  C   UNL     1       4.026   1.413  -0.805  0.00  0.00    +0.004 A 
ATOM      9  C   UNL     1       2.857   1.959  -1.302  0.00  0.00    +0.006 A 
ATOM     10  C   UNL     1       1.644   1.356  -1.035  0.00  0.00    -0.025 A 
ATOM     11  C   UNL     1       1.599   0.201  -0.265  0.00  0.00    +0.069 A 
ATOM     12  C   UNL     1       2.774  -0.341   0.237  0.00  0.00    +0.031 A 
ATOM     13  C   UNL     1       0.370   1.951  -1.577  0.00  0.00    +0.046 C 
ENDBRANCH   1  11
BRANCH   4  14
ATOM     14  C   UNL     1      -3.141  -0.413   0.997  0.00  0.00    +0.002 A 
ATOM     15  C   UNL     1      -4.197  -1.046   0.344  0.00  0.00    +0.010 A 
ATOM     16  C   UNL     1      -5.496  -0.807   0.747  0.00  0.00    +0.001 A 
ATOM     17  C   UNL     1      -5.751   0.067   1.787  0.00  0.00    +0.000 A 
ATOM     18  C   UNL     1      -4.706   0.702   2.435  0.00  0.00    +0.001 A 
ATOM     19  C   UNL     1      -3.404   0.466   2.045  0.00  0.00    +0.010 A 
ENDBRANCH   4  14
BRANCH   3  20
ATOM     20  C   UNL     1      -1.910  -3.252   0.320  0.00  0.00    +0.123 C 
BRANCH  20  21
ATOM     21  N   UNL     1      -2.102  -3.653   1.720  0.00  0.00    -0.298 NA
ATOM     22  C   UNL     1      -0.830  -4.063   2.329  0.00  0.00    +0.083 C 
ATOM     23  C   UNL     1      -1.040  -4.334   3.820  0.00  0.00    +0.000 C 
ATOM     24  C   UNL     1      -2.089  -5.437   3.991  0.00  0.00    -0.066 C 
ATOM     25  C   UNL     1      -3.389  -5.005   3.306  0.00  0.00    +0.000 C 
ATOM     26  C   UNL     1      -3.110  -4.715   1.829  0.00  0.00    +0.083 C 
BRANCH  24  27
ATOM     27  N   UNL     1      -2.338  -5.662   5.421  0.00  0.00    +0.383 N 
ATOM     28  C   UNL     1      -2.809  -4.433   6.072  0.00  0.00    -0.078 C 
ATOM     29  C   UNL     1      -3.196  -4.739   7.521  0.00  0.00    -0.016 C 
ATOM     30  C   UNL     1      -1.978  -5.298   8.263  0.00  0.00    +0.027 C 
ATOM     31  C   UNL     1      -1.479  -6.549   7.536  0.00  0.00    +0.098 C 
ATOM     32  C   UNL     1      -1.141  -6.191   6.087  0.00  0.00    -0.047 C 
ATOM     33  H   UNL     1      -3.134  -6.416   5.512  0.00  0.00    -0.081 HD
BRANCH  31  34
ATOM     34  O   UNL     1      -0.309  -7.046   8.189  0.00  0.00    -0.394 OA
ATOM     35  H   UNL     1       0.195  -7.946   7.807  0.00  0.00    +0.210 HD
ENDBRANCH  31  34
ENDBRANCH  24  27
ENDBRANCH  20  21
ENDBRANCH   3  20
TORSDOF 6
