REMARK  Name = ZINC11217092
REMARK  9 active torsions:
REMARK  status: ('A' for Active; 'I' for Inactive)
REMARK    1  A    between atoms: C_1  and  C_2
REMARK    2  A    between atoms: C_4  and  C_7
REMARK    3  A    between atoms: C_7  and  O_8
REMARK    4  A    between atoms: O_8  and  C_9
REMARK    5  A    between atoms: C_14  and  C_15
REMARK    6  A    between atoms: C_16  and  C_17
REMARK    7  A    between atoms: N_19  and  C_20
REMARK    8  A    between atoms: C_23  and  N_26
REMARK    9  A    between atoms: C_27  and  C_29
REMARK                            x       y       z     vdW  Elec       q    Type
REMARK                         _______ _______ _______ _____ _____    ______ ____
ROOT
ATOM      1  C   UNL     1       4.370   9.685  -0.063  0.00  0.00    +0.241 C 
ATOM      2  O   UNL     1       3.165   9.527   0.015  0.00  0.00    -0.270 OA
ATOM      3  N   UNL     1       5.181   8.619  -0.203  0.00  0.00    -0.282 N 
ATOM      4  H   UNL     1       6.134   8.748  -0.333  0.00  0.00    +0.155 HD
ENDROOT
BRANCH   3   5
ATOM      5  C   UNL     1       4.650   7.324  -0.162  0.00  0.00    +0.034 A 
ATOM      6  C   UNL     1       3.391   7.074  -0.692  0.00  0.00    +0.025 A 
ATOM      7  C   UNL     1       2.866   5.797  -0.650  0.00  0.00    +0.025 A 
ATOM      8  C   UNL     1       3.598   4.764  -0.079  0.00  0.00    +0.034 A 
ATOM      9  C   UNL     1       4.855   5.016   0.455  0.00  0.00    +0.025 A 
ATOM     10  C   UNL     1       5.382   6.291   0.409  0.00  0.00    +0.025 A 
BRANCH   8  11
ATOM     11  N   UNL     1       3.066   3.470  -0.037  0.00  0.00    -0.279 N 
ATOM     12  C   UNL     1       2.297   3.024  -1.050  0.00  0.00    +0.284 C 
ATOM     13  O   UNL     1       1.996   3.773  -1.961  0.00  0.00    -0.266 OA
ATOM     14  H   UNL     1       3.251   2.894   0.721  0.00  0.00    +0.155 HD
BRANCH  12  15
ATOM     15  C   UNL     1       1.823   1.636  -1.055  0.00  0.00    +0.189 A 
ATOM     16  C   UNL     1       1.042   1.059  -2.015  0.00  0.00    +0.054 A 
ATOM     17  C   UNL     1       0.833  -0.271  -1.618  0.00  0.00    +0.042 A 
ATOM     18  C   UNL     1       1.487  -0.445  -0.448  0.00  0.00    +0.196 A 
ATOM     19  O   UNL     1       2.083   0.707  -0.113  0.00  0.00    -0.458 OA
ENDBRANCH  12  15
ENDBRANCH   8  11
ENDBRANCH   3   5
BRANCH   1  21
ATOM     20  C   UNL     1       4.122  12.101   0.135  0.00  0.00    +0.016 C 
ATOM     21  C   UNL     1       4.936  11.032  -0.005  0.00  0.00    +0.068 C 
BRANCH  20  27
ATOM     22  C   UNL     1       3.849  14.569   0.339  0.00  0.00    +0.128 A 
ATOM     23  C   UNL     1       4.398  15.841   0.392  0.00  0.00    +0.046 A 
ATOM     24  C   UNL     1       5.766  16.010   0.302  0.00  0.00    +0.004 A 
ATOM     25  C   UNL     1       6.601  14.913   0.159  0.00  0.00    +0.001 A 
ATOM     26  C   UNL     1       6.075  13.641   0.110  0.00  0.00    +0.011 A 
ATOM     27  C   UNL     1       4.691  13.454   0.193  0.00  0.00    +0.017 A 
BRANCH  22  28
ATOM     28  O   UNL     1       2.506  14.402   0.426  0.00  0.00    -0.485 OA
BRANCH  28  29
ATOM     29  C   UNL     1       1.713  15.582   0.573  0.00  0.00    +0.285 C 
BRANCH  29  33
ATOM     30  C   UNL     1      -3.139  16.713   1.017  0.00  0.00    +0.073 C 
ATOM     31  C   UNL     1      -1.946  15.807   0.860  0.00  0.00    +0.076 A 
ATOM     32  N   UNL     1      -0.673  16.123   0.789  0.00  0.00    -0.246 NA
ATOM     33  C   UNL     1       0.257  15.202   0.652  0.00  0.00    +0.086 A 
ATOM     34  C   UNL     1      -0.128  13.902   0.579  0.00  0.00    +0.073 A 
ATOM     35  S   UNL     1      -1.900  14.076   0.729  0.00  0.00    -0.080 S 
ENDBRANCH  29  33
ENDBRANCH  28  29
ENDBRANCH  22  28
ENDBRANCH  20  27
ENDBRANCH   1  21
TORSDOF 8
