REMARK  Name = ZINC12242519
REMARK  9 active torsions:
REMARK  status: ('A' for Active; 'I' for Inactive)
REMARK    1  A    between atoms: C_1  and  C_2
REMARK    2  A    between atoms: C_2  and  C_4
REMARK    3  A    between atoms: C_2  and  N_68
REMARK    4  A    between atoms: C_6  and  C_10
REMARK    5  A    between atoms: C_16  and  N_68
REMARK    6  A    between atoms: C_17  and  C_18
REMARK    7  A    between atoms: C_17  and  N_68
REMARK    8  A    between atoms: N_26  and  C_29
REMARK    9  A    between atoms: C_29  and  C_30
REMARK                            x       y       z     vdW  Elec       q    Type
REMARK                         _______ _______ _______ _____ _____    ______ ____
ROOT
ATOM      1  C   UNL     1      -1.999   5.664   0.324  0.00  0.00    +0.001 A 
ATOM      2  C   UNL     1      -2.468   4.404   0.501  0.00  0.00    +0.017 A 
ATOM      3  C   UNL     1      -1.504   3.304   0.585  0.00  0.00    -0.001 A 
ATOM      4  C   UNL     1      -1.925   1.985   0.773  0.00  0.00    +0.014 A 
ATOM      5  C   UNL     1      -1.003   0.976   0.845  0.00  0.00    -0.043 A 
ATOM      6  C   UNL     1       0.354   1.255   0.742  0.00  0.00    -0.042 A 
ATOM      7  C   UNL     1       0.790   2.553   0.560  0.00  0.00    +0.030 A 
ATOM      8  C   UNL     1      -0.130   3.592   0.480  0.00  0.00    +0.053 A 
ATOM      9  N   UNL     1       0.281   4.895   0.300  0.00  0.00    -0.302 N 
ATOM     10  C   UNL     1      -0.611   5.898   0.224  0.00  0.00    +0.253 A 
ATOM     11  O   UNL     1      -0.210   7.038   0.066  0.00  0.00    -0.267 OA
ATOM     12  C   UNL     1       1.148  -0.030   0.860  0.00  0.00    +0.036 C 
ATOM     13  C   UNL     1       0.173  -1.052   1.481  0.00  0.00    +0.009 C 
ATOM     14  C   UNL     1      -1.203  -0.513   1.037  0.00  0.00    +0.036 C 
ENDROOT
BRANCH   1  15
ATOM     15  C   UNL     1      -2.963   6.818   0.233  0.00  0.00    -0.037 C 
BRANCH  15  17
ATOM     16  C   UNL     1      -1.858   8.062   1.992  0.00  0.00    -0.095 C 
ATOM     17  N   UNL     1      -3.120   7.415   1.576  0.00  0.00    +0.386 N 
ATOM     18  H   UNL     1      -3.350   6.672   2.247  0.00  0.00    -0.081 HD
BRANCH  17  20
ATOM     19  C   UNL     1      -4.323   9.048   2.949  0.00  0.00    -0.007 C 
ATOM     20  C   UNL     1      -4.216   8.406   1.564  0.00  0.00    -0.020 C 
BRANCH  20  21
ATOM     21  C   UNL     1      -5.508   7.701   1.236  0.00  0.00    +0.050 A 
ATOM     22  C   UNL     1      -6.636   8.292   0.666  0.00  0.00    +0.051 A 
ATOM     23  C   UNL     1      -7.590   7.324   0.526  0.00  0.00    +0.066 A 
ATOM     24  N   UNL     1      -7.064   6.163   1.009  0.00  0.00    -0.277 N 
ATOM     25  H   UNL     1      -7.525   5.276   1.045  0.00  0.00    +0.189 HD
ATOM     26  N   UNL     1      -5.760   6.434   1.445  0.00  0.00    -0.180 NA
BRANCH  23  27
ATOM     27  C   UNL     1      -8.945   7.504  -0.039  0.00  0.00    -0.000 A 
ATOM     28  C   UNL     1      -9.354   8.759  -0.492  0.00  0.00    +0.010 A 
ATOM     29  C   UNL     1     -10.617   8.919  -1.024  0.00  0.00    +0.001 A 
ATOM     30  C   UNL     1     -11.482   7.841  -1.097  0.00  0.00    +0.000 A 
ATOM     31  C   UNL     1     -11.084   6.596  -0.644  0.00  0.00    +0.001 A 
ATOM     32  C   UNL     1      -9.822   6.422  -0.116  0.00  0.00    +0.010 A 
ENDBRANCH  23  27
ENDBRANCH  20  21
ENDBRANCH  17  20
ENDBRANCH  15  17
ENDBRANCH   1  15
BRANCH   9  33
ATOM     33  C   UNL     1       1.712   5.191   0.190  0.00  0.00    +0.180 C 
BRANCH  33  34
ATOM     34  C   UNL     1       2.130   5.121  -1.256  0.00  0.00    +0.061 A 
ATOM     35  C   UNL     1       2.167   6.277  -2.013  0.00  0.00    +0.025 A 
ATOM     36  C   UNL     1       2.553   6.201  -3.343  0.00  0.00    +0.003 A 
ATOM     37  C   UNL     1       2.889   4.961  -3.863  0.00  0.00    +0.020 A 
ATOM     38  C   UNL     1       2.829   3.849  -3.045  0.00  0.00    +0.111 A 
ATOM     39  N   UNL     1       2.462   3.959  -1.783  0.00  0.00    -0.258 NA
ENDBRANCH  33  34
ENDBRANCH   9  33
TORSDOF 7
