REMARK  Name = ZINC05605102
REMARK  2 active torsions:
REMARK  status: ('A' for Active; 'I' for Inactive)
REMARK    1  A    between atoms: C_10  and  C_12
REMARK    2  A    between atoms: C_15  and  O_18
REMARK                            x       y       z     vdW  Elec       q    Type
REMARK                         _______ _______ _______ _____ _____    ______ ____
ROOT
ATOM      1  C   UNL     1      -1.243   3.133  -0.031  0.00  0.00    +0.002 A 
ATOM      2  C   UNL     1      -1.216   1.745  -0.021  0.00  0.00    +0.002 A 
ATOM      3  C   UNL     1      -0.014   1.071  -0.016  0.00  0.00    +0.030 A 
ATOM      4  C   UNL     1       1.176   1.787  -0.031  0.00  0.00    +0.098 A 
ATOM      5  C   UNL     1       1.150   3.192  -0.047  0.00  0.00    +0.113 A 
ATOM      6  C   UNL     1      -0.084   3.853  -0.046  0.00  0.00    +0.032 A 
ATOM      7  N   UNL     1       2.433   3.626  -0.059  0.00  0.00    -0.129 NA
ATOM      8  N   UNL     1       3.243   2.626  -0.053  0.00  0.00    -0.057 NA
ATOM      9  N   UNL     1       2.510   1.430  -0.035  0.00  0.00    -0.176 N 
ATOM     10  C   UNL     1       3.009   0.178  -0.024  0.00  0.00    +0.280 C 
ATOM     11  O   UNL     1       2.262  -0.773   0.090  0.00  0.00    -0.265 OA
ENDROOT
BRANCH  10  12
ATOM     12  C   UNL     1       4.462  -0.037  -0.149  0.00  0.00    +0.042 A 
ATOM     13  C   UNL     1       5.334   1.056  -0.158  0.00  0.00    +0.017 A 
ATOM     14  C   UNL     1       6.691   0.851  -0.271  0.00  0.00    +0.046 A 
ATOM     15  C   UNL     1       7.193  -0.441  -0.386  0.00  0.00    +0.117 A 
ATOM     16  C   UNL     1       6.329  -1.530  -0.383  0.00  0.00    +0.046 A 
ATOM     17  C   UNL     1       4.971  -1.333  -0.266  0.00  0.00    +0.017 A 
BRANCH  15  18
ATOM     18  O   UNL     1       8.531  -0.638  -0.501  0.00  0.00    -0.507 OA
ATOM     19  H   UNL     1       8.850  -0.644  -1.414  0.00  0.00    +0.292 HD
ENDBRANCH  15  18
ENDBRANCH  10  12
TORSDOF 2
