REMARK  Name = ZINC40346731
REMARK  8 active torsions:
REMARK  status: ('A' for Active; 'I' for Inactive)
REMARK    1  A    between atoms: C_1  and  C_2
REMARK    2  A    between atoms: C_2  and  N_3
REMARK    3  A    between atoms: N_3  and  C_4
REMARK    4  A    between atoms: N_3  and  S_11
REMARK    5  A    between atoms: C_4  and  C_5
REMARK    6  A    between atoms: S_11  and  C_14
REMARK    7  A    between atoms: C_16  and  C_21
REMARK    8  A    between atoms: C_18  and  N_20
REMARK                            x       y       z     vdW  Elec       q    Type
REMARK                         _______ _______ _______ _____ _____    ______ ____
ROOT
ATOM      1  S   UNL     1      -0.188  -0.875  -2.551  0.00  0.00    +0.061 S 
ATOM      2  O   UNL     1       0.610  -1.782  -3.300  0.00  0.00    -0.153 OA
ATOM      3  O   UNL     1      -1.496  -1.201  -2.104  0.00  0.00    -0.153 OA
ENDROOT
BRANCH   1   4
ATOM      4  C   UNL     1      -0.337   0.586  -3.526  0.00  0.00    +0.107 A 
ATOM      5  C   UNL     1      -1.406   1.441  -3.329  0.00  0.00    +0.032 A 
ATOM      6  C   UNL     1      -1.528   2.588  -4.091  0.00  0.00    -0.047 A 
ATOM      7  C   UNL     1      -0.581   2.883  -5.053  0.00  0.00    +0.026 A 
ATOM      8  C   UNL     1       0.494   2.027  -5.253  0.00  0.00    +0.027 A 
ATOM      9  C   UNL     1       0.616   0.878  -4.481  0.00  0.00    +0.051 A 
ATOM     10  C   UNL     1      -2.695   3.516  -3.874  0.00  0.00    +0.044 C 
BRANCH   8  11
ATOM     11  N   UNL     1       1.453   2.323  -6.224  0.00  0.00    -0.358 N 
ATOM     12  H   UNL     1       1.369   3.127  -6.760  0.00  0.00    +0.142 HD
ATOM     13  H   UNL     1       2.203   1.724  -6.363  0.00  0.00    +0.142 HD
ENDBRANCH   8  11
ENDBRANCH   1   4
BRANCH   1  14
ATOM     14  N   UNL     1       0.688  -0.476  -1.203  0.00  0.00    -0.172 NA
BRANCH  14  16
ATOM     15  C   UNL     1      -0.019   1.526   0.010  0.00  0.00    +0.022 C 
ATOM     16  C   UNL     1       0.002  -0.004   0.002  0.00  0.00    +0.106 C 
ENDBRANCH  14  16
BRANCH  14  17
ATOM     17  C   UNL     1       2.148  -0.597  -1.216  0.00  0.00    +0.151 C 
BRANCH  17  18
ATOM     18  C   UNL     1       2.547  -1.931  -0.641  0.00  0.00    +0.007 A 
ATOM     19  C   UNL     1       2.735  -3.113  -1.277  0.00  0.00    +0.013 A 
ATOM     20  C   UNL     1       3.104  -4.221  -0.538  0.00  0.00    +0.023 A 
ATOM     21  C   UNL     1       3.268  -4.092   0.803  0.00  0.00    +0.055 A 
ATOM     22  S   UNL     1       2.903  -2.363   1.055  0.00  0.00    -0.085 S 
ATOM     23 BR   UNL     1       3.761  -5.403   2.073  0.00  0.00    -0.043 Br
ENDBRANCH  17  18
ENDBRANCH  14  17
ENDBRANCH   1  14
TORSDOF 6
