REMARK  Name = ZINC43526015
REMARK  11 active torsions:
REMARK  status: ('A' for Active; 'I' for Inactive)
REMARK    1  A    between atoms: C_1  and  N_2
REMARK    2  A    between atoms: C_3  and  C_12
REMARK    3  A    between atoms: C_5  and  C_7
REMARK    4  A    between atoms: C_21  and  C_23
REMARK    5  A    between atoms: C_23  and  N_24
REMARK    6  A    between atoms: N_24  and  C_25
REMARK    7  A    between atoms: C_25  and  N_27
REMARK    8  A    between atoms: N_27  and  C_28
REMARK    9  A    between atoms: C_32  and  C_34
REMARK   10  A    between atoms: C_34  and  O_36
REMARK   11  A    between atoms: O_36  and  C_37
REMARK                            x       y       z     vdW  Elec       q    Type
REMARK                         _______ _______ _______ _____ _____    ______ ____
ROOT
ATOM      1  C   UNL     1      -0.326   0.444  -3.108  0.00  0.00    +0.024 C 
ATOM      2  C   UNL     1       1.164   0.171  -3.321  0.00  0.00    -0.068 C 
ATOM      3  N   UNL     1       1.361  -0.616  -4.541  0.00  0.00    +0.383 N 
ATOM      4  C   UNL     1       0.689  -1.912  -4.433  0.00  0.00    -0.078 C 
ATOM      5  C   UNL     1      -0.818  -1.708  -4.257  0.00  0.00    -0.015 C 
ATOM      6  C   UNL     1      -1.119  -0.201  -4.253  0.00  0.00    -0.007 C 
ATOM      7  C   UNL     1      -0.625   0.393  -5.578  0.00  0.00    -0.010 C 
ATOM      8  C   UNL     1       0.878   0.120  -5.712  0.00  0.00    -0.051 C 
ATOM      9  H   UNL     1       2.349  -0.785  -4.656  0.00  0.00    -0.081 HD
ENDROOT
BRANCH   1  12
ATOM     10  C   UNL     1      -2.944   1.076  -1.573  0.00  0.00    +0.172 C 
ATOM     11  N   UNL     1      -1.909   0.136  -1.136  0.00  0.00    -0.271 N 
ATOM     12  C   UNL     1      -0.766  -0.148  -1.794  0.00  0.00    +0.041 A 
ATOM     13  C   UNL     1      -0.084  -1.060  -1.062  0.00  0.00    +0.048 A 
ATOM     14  C   UNL     1      -0.837  -1.343   0.082  0.00  0.00    +0.066 A 
ATOM     15  N   UNL     1      -1.929  -0.622   0.042  0.00  0.00    -0.176 NA
BRANCH  14  16
ATOM     16  C   UNL     1      -0.455  -2.307   1.176  0.00  0.00    +0.040 C 
ATOM     17  C   UNL     1       1.079  -2.336   1.342  0.00  0.00    +0.010 C 
ATOM     18  C   UNL     1       1.399  -3.819   1.653  0.00  0.00    +0.001 C 
ATOM     19  C   UNL     1       0.405  -4.582   0.741  0.00  0.00    +0.001 C 
ATOM     20  C   UNL     1      -0.883  -3.734   0.794  0.00  0.00    +0.010 C 
ENDBRANCH  14  16
ENDBRANCH   1  12
BRANCH   8  21
ATOM     21  C   UNL     1       1.134  -0.708  -6.973  0.00  0.00    +0.088 C 
BRANCH  21  22
ATOM     22  N   UNL     1       2.555  -1.058  -7.047  0.00  0.00    -0.328 N 
ATOM     23  H   UNL     1       3.164  -0.763  -6.352  0.00  0.00    +0.148 HD
BRANCH  22  24
ATOM     24  C   UNL     1       3.015  -1.790  -8.080  0.00  0.00    +0.134 C 
ATOM     25  S   UNL     1       1.940  -2.311  -9.307  0.00  0.00    -0.019 S 
BRANCH  24  26
ATOM     26  N   UNL     1       4.322  -2.112  -8.148  0.00  0.00    -0.297 N 
ATOM     27  H   UNL     1       4.916  -1.887  -7.415  0.00  0.00    +0.154 HD
BRANCH  26  28
ATOM     28  C   UNL     1       4.823  -2.772  -9.276  0.00  0.00    +0.033 A 
ATOM     29  C   UNL     1       4.402  -2.394 -10.546  0.00  0.00    +0.023 A 
ATOM     30  C   UNL     1       4.892  -3.043 -11.664  0.00  0.00    +0.003 A 
ATOM     31  C   UNL     1       5.803  -4.071 -11.526  0.00  0.00    +0.015 A 
ATOM     32  C   UNL     1       6.233  -4.458 -10.255  0.00  0.00    +0.061 A 
ATOM     33  C   UNL     1       5.742  -3.799  -9.128  0.00  0.00    +0.038 A 
BRANCH  32  34
ATOM     34  C   UNL     1       7.208  -5.558 -10.106  0.00  0.00    +0.339 C 
ATOM     35  O   UNL     1       7.580  -5.893  -8.999  0.00  0.00    -0.245 OA
BRANCH  34  36
ATOM     36  O   UNL     1       7.684  -6.189 -11.196  0.00  0.00    -0.464 OA
ATOM     37  C   UNL     1       8.623  -7.243 -10.977  0.00  0.00    +0.280 C 
ENDBRANCH  34  36
ENDBRANCH  32  34
ENDBRANCH  26  28
ENDBRANCH  24  26
ENDBRANCH  22  24
ENDBRANCH  21  22
ENDBRANCH   8  21
TORSDOF 9
