REMARK  Name = ZINC12608999
REMARK  8 active torsions:
REMARK  status: ('A' for Active; 'I' for Inactive)
REMARK    1  A    between atoms: C_1  and  C_2
REMARK    2  A    between atoms: C_7  and  S_24
REMARK    3  A    between atoms: N_11  and  C_12
REMARK    4  A    between atoms: C_12  and  C_13
REMARK    5  A    between atoms: N_15  and  C_16
REMARK    6  A    between atoms: C_20  and  S_22
REMARK    7  A    between atoms: S_22  and  C_23
REMARK    8  A    between atoms: S_24  and  N_27
REMARK                            x       y       z     vdW  Elec       q    Type
REMARK                         _______ _______ _______ _____ _____    ______ ____
ROOT
ATOM      1  C   UNL     1       1.250   3.793  -0.563  0.00  0.00    +0.028 C 
ATOM      2  C   UNL     1       1.376   2.428   0.116  0.00  0.00    +0.075 C 
ATOM      3  C   UNL     1       2.374   1.526  -0.647  0.00  0.00    +0.059 C 
ATOM      4  C   UNL     1       1.752   0.150  -0.516  0.00  0.00    -0.023 A 
ATOM      5  C   UNL     1       2.273  -1.112  -0.713  0.00  0.00    +0.034 A 
ATOM      6  C   UNL     1       1.482  -2.228  -0.509  0.00  0.00    +0.105 A 
ATOM      7  C   UNL     1       0.167  -2.077  -0.106  0.00  0.00    +0.030 A 
ATOM      8  C   UNL     1      -0.359  -0.817   0.089  0.00  0.00    +0.025 A 
ATOM      9  C   UNL     1       0.430   0.313  -0.118  0.00  0.00    +0.034 A 
ATOM     10  N   UNL     1       0.110   1.670   0.010  0.00  0.00    -0.318 N 
ENDROOT
BRANCH   6  11
ATOM     11  S   UNL     1       2.148  -3.840  -0.760  0.00  0.00    +0.056 S 
ATOM     12  O   UNL     1       3.556  -3.726  -0.607  0.00  0.00    -0.153 OA
ATOM     13  O   UNL     1       1.366  -4.729   0.025  0.00  0.00    -0.153 OA
BRANCH  11  14
ATOM     14  N   UNL     1       1.875  -4.241  -2.343  0.00  0.00    -0.204 NA
ATOM     15  H   UNL     1       2.489  -4.831  -2.807  0.00  0.00    +0.144 HD
ATOM     16  H   UNL     1       1.101  -3.886  -2.807  0.00  0.00    +0.144 HD
ENDBRANCH  11  14
ENDBRANCH   6  11
BRANCH  10  17
ATOM     17  C   UNL     1      -0.741   1.901   1.185  0.00  0.00    +0.201 C 
BRANCH  17  18
ATOM     18  C   UNL     1       0.021   1.544   2.435  0.00  0.00    +0.235 C 
ATOM     19  O   UNL     1       1.112   1.021   2.352  0.00  0.00    -0.274 OA
ATOM     20  N   UNL     1      -0.510   1.805   3.646  0.00  0.00    -0.284 N 
ATOM     21  H   UNL     1      -1.407   2.169   3.714  0.00  0.00    +0.155 HD
BRANCH  20  22
ATOM     22  C   UNL     1       0.231   1.550   4.805  0.00  0.00    +0.034 A 
ATOM     23  C   UNL     1       1.075   0.448   4.863  0.00  0.00    +0.023 A 
ATOM     24  C   UNL     1       1.811   0.198   6.005  0.00  0.00    +0.003 A 
ATOM     25  C   UNL     1       1.704   1.037   7.097  0.00  0.00    +0.015 A 
ATOM     26  C   UNL     1       0.857   2.139   7.048  0.00  0.00    +0.009 A 
ATOM     27  C   UNL     1       0.120   2.395   5.899  0.00  0.00    +0.038 A 
BRANCH  26  28
ATOM     28  S   UNL     1       0.719   3.208   8.442  0.00  0.00    -0.129 S 
ATOM     29  C   UNL     1       1.844   2.481   9.665  0.00  0.00    +0.090 C 
ENDBRANCH  26  28
ENDBRANCH  20  22
ENDBRANCH  17  18
ENDBRANCH  10  17
TORSDOF 6
