REMARK  Name = ZINC39696131
REMARK  11 active torsions:
REMARK  status: ('A' for Active; 'I' for Inactive)
REMARK    1  A    between atoms: C_1  and  C_2
REMARK    2  A    between atoms: C_2  and  C_3
REMARK    3  A    between atoms: C_6  and  C_9
REMARK    4  A    between atoms: C_9  and  C_11
REMARK    5  A    between atoms: C_9  and  N_12
REMARK    6  A    between atoms: C_13  and  C_15
REMARK    7  A    between atoms: C_26  and  C_28
REMARK    8  A    between atoms: C_32  and  O_35
REMARK    9  A    between atoms: C_33  and  C_34
REMARK   10  A    between atoms: O_35  and  C_36
REMARK   11  A    between atoms: C_36  and  C_38
REMARK                            x       y       z     vdW  Elec       q    Type
REMARK                         _______ _______ _______ _____ _____    ______ ____
ROOT
ATOM      1  C   UNL     1       6.393  -0.373  -6.494  0.00  0.00    +0.100 C 
ATOM      2  C   UNL     1       6.088   1.099  -6.137  0.00  0.00    +0.121 C 
ATOM      3  N   UNL     1       6.982   1.890  -7.014  0.00  0.00    -0.296 N 
ATOM      4  C   UNL     1       6.960   1.169  -8.309  0.00  0.00    +0.115 C 
ATOM      5  C   UNL     1       6.964  -0.323  -7.921  0.00  0.00    -0.004 C 
ATOM      6  C   UNL     1       6.077  -1.118  -8.874  0.00  0.00    -0.010 C 
ATOM      7  C   UNL     1       6.697  -1.102 -10.274  0.00  0.00    -0.082 C 
ATOM      8  N   UNL     1       8.042  -1.687 -10.223  0.00  0.00    +0.379 N 
ATOM      9  C   UNL     1       8.915  -0.863  -9.378  0.00  0.00    -0.082 C 
ATOM     10  C   UNL     1       8.389  -0.869  -7.939  0.00  0.00    -0.010 C 
ATOM     11  C   UNL     1       7.661   3.012  -6.704  0.00  0.00    +0.247 C 
ATOM     12  O   UNL     1       8.284   3.603  -7.565  0.00  0.00    -0.270 OA
ATOM     13  H   UNL     1       7.988  -2.619  -9.840  0.00  0.00    -0.086 HD
ATOM     14  H   UNL     1       8.424  -1.731 -11.156  0.00  0.00    -0.086 HD
ENDROOT
BRANCH  11  15
ATOM     15  C   UNL     1       7.650   3.524  -5.317  0.00  0.00    +0.043 A 
ATOM     16  C   UNL     1       6.497   3.410  -4.538  0.00  0.00    +0.013 A 
ATOM     17  C   UNL     1       6.490   3.889  -3.244  0.00  0.00    +0.004 A 
ATOM     18  C   UNL     1       7.622   4.482  -2.716  0.00  0.00    +0.047 A 
ATOM     19  C   UNL     1       8.773   4.600  -3.483  0.00  0.00    +0.135 A 
ATOM     20  C   UNL     1       8.792   4.118  -4.781  0.00  0.00    +0.004 A 
ATOM     21  C   UNL     1      10.042   4.241  -5.614  0.00  0.00    +0.048 C 
BRANCH  19  22
ATOM     22  O   UNL     1       9.882   5.184  -2.958  0.00  0.00    -0.426 OA
BRANCH  22  23
ATOM     23  C   UNL     1      10.062   6.498  -3.168  0.00  0.00    +0.309 C 
ATOM     24  O   UNL     1       9.206   7.144  -3.727  0.00  0.00    -0.251 OA
ATOM     25  C   UNL     1      11.331   7.168  -2.708  0.00  0.00    +0.136 C 
ENDBRANCH  22  23
ENDBRANCH  19  22
ENDBRANCH  11  15
BRANCH   1  27
ATOM     26  N   UNL     1       5.189  -2.514  -6.198  0.00  0.00    -0.308 N 
ATOM     27  C   UNL     1       5.129  -1.194  -6.464  0.00  0.00    +0.219 C 
ATOM     28  O   UNL     1       4.059  -0.666  -6.679  0.00  0.00    -0.275 OA
ATOM     29  H   UNL     1       6.045  -2.935  -6.026  0.00  0.00    +0.149 HD
BRANCH  26  30
ATOM     30  C   UNL     1       3.960  -3.311  -6.168  0.00  0.00    +0.100 C 
ATOM     31  C   UNL     1       3.611  -3.762  -7.588  0.00  0.00    +0.033 C 
BRANCH  30  35
ATOM     32  C   UNL     1       4.546  -6.740  -3.690  0.00  0.00    -0.048 A 
ATOM     33  C   UNL     1       3.347  -6.055  -3.648  0.00  0.00    +0.004 A 
ATOM     34  C   UNL     1       3.157  -4.945  -4.450  0.00  0.00    +0.006 A 
ATOM     35  C   UNL     1       4.167  -4.520  -5.293  0.00  0.00    -0.027 A 
ATOM     36  C   UNL     1       5.367  -5.206  -5.334  0.00  0.00    +0.006 A 
ATOM     37  C   UNL     1       5.558  -6.313  -4.529  0.00  0.00    +0.004 A 
BRANCH  32  39
ATOM     38  C   UNL     1       5.336  -7.514  -1.470  0.00  0.00    +0.009 C 
ATOM     39  C   UNL     1       4.753  -7.950  -2.816  0.00  0.00    +0.032 C 
ENDBRANCH  32  39
ENDBRANCH  30  35
ENDBRANCH  26  30
ENDBRANCH   1  27
TORSDOF 7
