REMARK  Name = ZINC02637555
REMARK  8 active torsions:
REMARK  status: ('A' for Active; 'I' for Inactive)
REMARK    1  A    between atoms: C_1  and  C_2
REMARK    2  A    between atoms: C_2  and  C_4
REMARK    3  A    between atoms: C_2  and  S_17
REMARK    4  A    between atoms: N_6  and  C_7
REMARK    5  A    between atoms: C_10  and  S_13
REMARK    6  A    between atoms: S_13  and  N_16
REMARK    7  A    between atoms: S_17  and  C_18
REMARK    8  A    between atoms: N_23  and  C_24
REMARK                            x       y       z     vdW  Elec       q    Type
REMARK                         _______ _______ _______ _____ _____    ______ ____
ROOT
ATOM      1  C   UNL     1      -0.124  -0.500  -1.447  0.00  0.00    +0.029 C 
ATOM      2  C   UNL     1       0.002  -0.004  -0.005  0.00  0.00    +0.136 C 
ENDROOT
BRANCH   2   3
ATOM      3  C   UNL     1      -0.018   1.503   0.012  0.00  0.00    +0.230 C 
ATOM      4  O   UNL     1       1.024   2.123   0.013  0.00  0.00    -0.274 OA
ATOM      5  N   UNL     1      -1.195   2.161   0.019  0.00  0.00    -0.285 N 
ATOM      6  H   UNL     1      -2.027   1.668  -0.053  0.00  0.00    +0.155 HD
BRANCH   5   7
ATOM      7  C   UNL     1      -1.215   3.555   0.133  0.00  0.00    +0.034 A 
ATOM      8  C   UNL     1      -2.239   4.181   0.833  0.00  0.00    +0.025 A 
ATOM      9  C   UNL     1      -2.252   5.558   0.948  0.00  0.00    +0.030 A 
ATOM     10  C   UNL     1      -1.256   6.313   0.357  0.00  0.00    +0.105 A 
ATOM     11  C   UNL     1      -0.239   5.693  -0.345  0.00  0.00    +0.030 A 
ATOM     12  C   UNL     1      -0.216   4.316  -0.459  0.00  0.00    +0.025 A 
BRANCH  10  13
ATOM     13  S   UNL     1      -1.282   8.069   0.500  0.00  0.00    +0.056 S 
ATOM     14  O   UNL     1      -2.035   8.370   1.667  0.00  0.00    -0.153 OA
ATOM     15  O   UNL     1       0.057   8.510   0.323  0.00  0.00    -0.153 OA
BRANCH  13  16
ATOM     16  N   UNL     1      -2.147   8.652  -0.785  0.00  0.00    -0.204 NA
ATOM     17  H   UNL     1      -2.523   8.038  -1.435  0.00  0.00    +0.144 HD
ATOM     18  H   UNL     1      -2.277   9.608  -0.889  0.00  0.00    +0.144 HD
ENDBRANCH  13  16
ENDBRANCH  10  13
ENDBRANCH   5   7
ENDBRANCH   2   3
BRANCH   2  19
ATOM     19  S   UNL     1       1.563  -0.596   0.703  0.00  0.00    -0.084 S 
BRANCH  19  20
ATOM     20  C   UNL     1       1.374  -2.347   0.750  0.00  0.00    +0.161 A 
ATOM     21  N   UNL     1       0.352  -3.088   0.367  0.00  0.00    -0.133 NA
ATOM     22  N   UNL     1       0.414  -4.456   0.492  0.00  0.00    -0.125 NA
ATOM     23  C   UNL     1       1.494  -5.021   0.994  0.00  0.00    +0.183 A 
ATOM     24  S   UNL     1       2.518  -3.595   1.320  0.00  0.00    -0.025 S 
ATOM     25  N   UNL     1       1.766  -6.368   1.206  0.00  0.00    -0.319 N 
ATOM     26  H   UNL     1       2.617  -6.636   1.588  0.00  0.00    +0.148 HD
BRANCH  25  27
ATOM     27  C   UNL     1       0.768  -7.381   0.855  0.00  0.00    +0.072 C 
ATOM     28  C   UNL     1      -0.218  -7.548   2.012  0.00  0.00    +0.022 C 
ATOM     29  C   UNL     1      -1.261  -8.607   1.645  0.00  0.00    +0.002 C 
ATOM     30  C   UNL     1      -0.560  -9.940   1.375  0.00  0.00    +0.000 C 
ATOM     31  C   UNL     1       0.426  -9.773   0.218  0.00  0.00    +0.002 C 
ATOM     32  C   UNL     1       1.468  -8.714   0.585  0.00  0.00    +0.022 C 
ENDBRANCH  25  27
ENDBRANCH  19  20
ENDBRANCH   2  19
TORSDOF 7
