REMARK  Name = ZINC39453060
REMARK  5 active torsions:
REMARK  status: ('A' for Active; 'I' for Inactive)
REMARK    1  A    between atoms: C_1  and  O_2
REMARK    2  A    between atoms: O_2  and  C_3
REMARK    3  A    between atoms: N_15  and  C_18
REMARK    4  A    between atoms: C_28  and  S_31
REMARK    5  A    between atoms: S_31  and  C_32
REMARK                            x       y       z     vdW  Elec       q    Type
REMARK                         _______ _______ _______ _____ _____    ______ ____
ROOT
ATOM      1  C   UNL     1      -1.199  -0.637   0.010  0.00  0.00    +0.129 A 
ATOM      2  C   UNL     1      -2.369   0.090   0.019  0.00  0.00    +0.046 A 
ATOM      3  C   UNL     1      -3.609  -0.539   0.028  0.00  0.00    +0.006 A 
ATOM      4  C   UNL     1      -3.728  -1.895   0.027  0.00  0.00    +0.028 A 
ATOM      5  C   UNL     1      -2.575  -2.699   0.017  0.00  0.00    +0.075 A 
ATOM      6  C   UNL     1      -1.264  -2.045   0.003  0.00  0.00    +0.043 A 
ATOM      7  C   UNL     1      -0.109  -2.838  -0.011  0.00  0.00    +0.029 A 
ATOM      8  C   UNL     1      -0.271  -4.217  -0.018  0.00  0.00    +0.068 A 
ATOM      9  C   UNL     1      -1.573  -4.786  -0.013  0.00  0.00    +0.100 A 
ATOM     10  N   UNL     1      -2.655  -4.030   0.015  0.00  0.00    -0.244 NA
ATOM     11  C   UNL     1      -1.684  -6.254  -0.026  0.00  0.00    +0.082 A 
ATOM     12  C   UNL     1      -0.543  -7.031  -0.039  0.00  0.00    +0.115 A 
ATOM     13  N   UNL     1       0.720  -6.447  -0.044  0.00  0.00    -0.268 N 
ATOM     14  C   UNL     1       0.894  -5.114  -0.034  0.00  0.00    +0.266 A 
ATOM     15  O   UNL     1       2.019  -4.649  -0.037  0.00  0.00    -0.267 OA
ATOM     16  C   UNL     1      -0.651  -8.441  -0.043  0.00  0.00    +0.184 C 
ATOM     17  O   UNL     1       0.353  -9.121  -0.104  0.00  0.00    -0.290 OA
ATOM     18  C   UNL     1      -2.001  -9.107   0.028  0.00  0.00    +0.114 C 
ATOM     19  C   UNL     1      -3.050  -8.198  -0.622  0.00  0.00    +0.136 C 
ATOM     20  N   UNL     1      -2.928  -6.857  -0.030  0.00  0.00    -0.328 N 
ATOM     21  H   UNL     1      -3.699  -6.407   0.348  0.00  0.00    +0.147 HD
ENDROOT
BRANCH  13  22
ATOM     22  C   UNL     1       1.849  -7.277  -0.060  0.00  0.00    +0.097 A 
ATOM     23  C   UNL     1       2.403  -7.674  -1.268  0.00  0.00    +0.030 A 
ATOM     24  C   UNL     1       3.517  -8.492  -1.281  0.00  0.00    +0.002 A 
ATOM     25  C   UNL     1       4.081  -8.917  -0.092  0.00  0.00    +0.004 A 
ATOM     26  C   UNL     1       3.534  -8.526   1.115  0.00  0.00    +0.053 A 
ATOM     27  C   UNL     1       2.421  -7.701   1.138  0.00  0.00    +0.203 A 
ATOM     28  O   UNL     1       1.886  -7.310   2.325  0.00  0.00    -0.286 OA
ENDBRANCH  13  22
BRANCH   1  30
ATOM     29  C   UNL     1      -0.017   1.425   0.010  0.00  0.00    +0.277 C 
ATOM     30  O   UNL     1       0.002  -0.004   0.002  0.00  0.00    -0.494 OA
ENDBRANCH   1  30
BRANCH  19  31
ATOM     31  S   UNL     1      -2.760  -8.108  -2.410  0.00  0.00    -0.142 S 
ATOM     32  C   UNL     1      -4.411  -8.307  -3.134  0.00  0.00    +0.086 C 
ENDBRANCH  19  31
TORSDOF 3
