REMARK  Name = ZINC60377459
REMARK  15 active torsions:
REMARK  status: ('A' for Active; 'I' for Inactive)
REMARK    1  A    between atoms: C_1  and  C_2
REMARK    2  A    between atoms: C_2  and  C_3
REMARK    3  A    between atoms: C_3  and  C_4
REMARK    4  A    between atoms: C_4  and  N_5
REMARK    5  A    between atoms: C_6  and  N_36
REMARK    6  A    between atoms: C_7  and  N_14
REMARK    7  A    between atoms: N_14  and  C_15
REMARK    8  A    between atoms: C_15  and  C_16
REMARK    9  A    between atoms: C_17  and  C_19
REMARK   10  A    between atoms: C_19  and  N_20
REMARK   11  A    between atoms: C_23  and  C_26
REMARK   12  A    between atoms: C_26  and  N_27
REMARK   13  A    between atoms: N_27  and  C_28
REMARK   14  A    between atoms: N_27  and  C_29
REMARK   15  A    between atoms: C_29  and  C_30
REMARK                            x       y       z     vdW  Elec       q    Type
REMARK                         _______ _______ _______ _____ _____    ______ ____
ROOT
ATOM      1  N   UNL     1       0.645  -2.768  -5.571  0.00  0.00    -0.266 N 
ATOM      2  C   UNL     1      -0.673  -2.552  -5.756  0.00  0.00    +0.203 C 
ATOM      3  O   UNL     1      -1.340  -2.065  -4.867  0.00  0.00    -0.277 OA
ENDROOT
BRANCH   1   6
ATOM      4  N   UNL     1       2.807  -0.924  -3.241  0.00  0.00    -0.280 N 
ATOM      5  C   UNL     1       2.214  -1.326  -4.415  0.00  0.00    +0.127 A 
ATOM      6  C   UNL     1       1.271  -2.333  -4.383  0.00  0.00    +0.140 A 
ATOM      7  C   UNL     1       0.944  -2.918  -3.146  0.00  0.00    +0.277 A 
ATOM      8  O   UNL     1       0.114  -3.810  -3.089  0.00  0.00    -0.266 OA
ATOM      9  N   UNL     1       1.554  -2.487  -2.024  0.00  0.00    -0.273 N 
ATOM     10  H   UNL     1       1.329  -2.889  -1.171  0.00  0.00    +0.173 HD
ATOM     11  C   UNL     1       2.474  -1.508  -2.075  0.00  0.00    +0.331 A 
ATOM     12  O   UNL     1       3.013  -1.141  -1.049  0.00  0.00    -0.246 OA
BRANCH   5  13
ATOM     13  N   UNL     1       2.558  -0.733  -5.606  0.00  0.00    -0.343 N 
ATOM     14  H   UNL     1       3.174   0.016  -5.615  0.00  0.00    +0.144 HD
ATOM     15  H   UNL     1       2.184  -1.063  -6.438  0.00  0.00    +0.144 HD
ENDBRANCH   5  13
BRANCH   4  16
ATOM     16  C   UNL     1       3.810   0.144  -3.260  0.00  0.00    +0.128 C 
BRANCH  16  17
ATOM     17  C   UNL     1       5.199  -0.465  -3.462  0.00  0.00    +0.021 C 
BRANCH  17  19
ATOM     18  C   UNL     1       7.635   0.042  -3.684  0.00  0.00    +0.004 C 
ATOM     19  C   UNL     1       6.246   0.650  -3.482  0.00  0.00    -0.002 C 
ENDBRANCH  17  19
ENDBRANCH  16  17
ENDBRANCH   4  16
ENDBRANCH   1   6
BRANCH   1  20
ATOM     20  C   UNL     1       1.428  -3.455  -6.601  0.00  0.00    +0.110 C 
ATOM     21  C   UNL     1       1.311  -4.968  -6.407  0.00  0.00    +0.025 C 
ENDBRANCH   1  20
BRANCH   2  22
ATOM     22  C   UNL     1      -1.319  -2.915  -7.069  0.00  0.00    +0.019 C 
BRANCH  22  23
ATOM     23  N   UNL     1      -2.749  -2.583  -7.019  0.00  0.00    +0.385 N 
ATOM     24  C   UNL     1      -3.409  -3.419  -6.009  0.00  0.00    -0.078 C 
ATOM     25  C   UNL     1      -4.882  -3.022  -5.896  0.00  0.00    -0.017 C 
ATOM     26  C   UNL     1      -5.565  -3.224  -7.252  0.00  0.00    -0.031 C 
ATOM     27  C   UNL     1      -4.823  -2.406  -8.312  0.00  0.00    -0.017 C 
ATOM     28  C   UNL     1      -3.352  -2.826  -8.336  0.00  0.00    -0.078 C 
ATOM     29  H   UNL     1      -2.860  -1.611  -6.774  0.00  0.00    -0.081 HD
BRANCH  26  30
ATOM     30  C   UNL     1      -7.019  -2.754  -7.167  0.00  0.00    -0.075 C 
BRANCH  30  31
ATOM     31  N   UNL     1      -7.758  -3.615  -6.235  0.00  0.00    +0.381 N 
ATOM     32  C   UNL     1      -7.830  -4.978  -6.779  0.00  0.00    -0.096 C 
ATOM     33  H   UNL     1      -7.283  -3.633  -5.345  0.00  0.00    -0.082 HD
BRANCH  31  34
ATOM     34  C   UNL     1      -9.117  -3.087  -6.054  0.00  0.00    -0.043 C 
BRANCH  34  35
ATOM     35  C   UNL     1      -9.835  -3.898  -5.005  0.00  0.00    -0.064 A 
ATOM     36  C   UNL     1     -10.561  -5.015  -5.373  0.00  0.00    +0.002 A 
ATOM     37  C   UNL     1     -11.220  -5.758  -4.412  0.00  0.00    +0.000 A 
ATOM     38  C   UNL     1     -11.152  -5.385  -3.083  0.00  0.00    +0.000 A 
ATOM     39  C   UNL     1     -10.425  -4.268  -2.715  0.00  0.00    +0.000 A 
ATOM     40  C   UNL     1      -9.763  -3.527  -3.676  0.00  0.00    +0.002 A 
ENDBRANCH  34  35
ENDBRANCH  31  34
ENDBRANCH  30  31
ENDBRANCH  26  30
ENDBRANCH  22  23
ENDBRANCH   2  22
TORSDOF 12
