REMARK  Name = ZINC00210295
REMARK  4 active torsions:
REMARK  status: ('A' for Active; 'I' for Inactive)
REMARK    1  A    between atoms: C_1  and  N_2
REMARK    2  A    between atoms: C_5  and  C_10
REMARK    3  A    between atoms: C_8  and  O_9
REMARK    4  A    between atoms: N_18  and  C_20
REMARK                            x       y       z     vdW  Elec       q    Type
REMARK                         _______ _______ _______ _____ _____    ______ ____
ROOT
ATOM      1  C   UNL     1      -0.018   1.461   0.010  0.00  0.00    +0.139 C 
ATOM      2  N   UNL     1       0.002  -0.004   0.002  0.00  0.00    -0.262 N 
ATOM      3  C   UNL     1      -1.156  -0.735   0.003  0.00  0.00    +0.043 C 
ATOM      4  C   UNL     1      -1.166  -2.070  -0.243  0.00  0.00    +0.060 C 
ATOM      5  C   UNL     1       0.106  -2.827  -0.542  0.00  0.00    +0.151 C 
ATOM      6  N   UNL     1       1.256  -1.975  -0.244  0.00  0.00    -0.332 N 
ATOM      7  C   UNL     1       1.191  -0.710  -0.013  0.00  0.00    +0.261 C 
ATOM      8  C   UNL     1      -2.480  -2.558  -0.171  0.00  0.00    +0.251 C 
ATOM      9  O   UNL     1      -2.791  -3.722  -0.344  0.00  0.00    -0.270 OA
ATOM     10  N   UNL     1      -3.352  -1.571   0.116  0.00  0.00    -0.262 N 
ATOM     11  C   UNL     1      -2.576  -0.324   0.249  0.00  0.00    +0.165 C 
ATOM     12  H   UNL     1       2.131  -2.392  -0.224  0.00  0.00    +0.165 HD
ENDROOT
BRANCH   5  13
ATOM     13  C   UNL     1       0.129  -3.215  -1.998  0.00  0.00    -0.021 A 
ATOM     14  C   UNL     1       0.503  -2.290  -2.954  0.00  0.00    +0.006 A 
ATOM     15  C   UNL     1       0.525  -2.646  -4.290  0.00  0.00    +0.000 A 
ATOM     16  C   UNL     1       0.173  -3.928  -4.668  0.00  0.00    +0.000 A 
ATOM     17  C   UNL     1      -0.200  -4.854  -3.712  0.00  0.00    +0.000 A 
ATOM     18  C   UNL     1      -0.217  -4.499  -2.376  0.00  0.00    +0.006 A 
ENDBRANCH   5  13
BRANCH  10  19
ATOM     19  C   UNL     1      -4.737  -1.704   0.260  0.00  0.00    +0.037 A 
ATOM     20  C   UNL     1      -5.517  -0.592   0.552  0.00  0.00    +0.023 A 
ATOM     21  C   UNL     1      -6.884  -0.728   0.693  0.00  0.00    +0.002 A 
ATOM     22  C   UNL     1      -7.476  -1.968   0.545  0.00  0.00    +0.000 A 
ATOM     23  C   UNL     1      -6.703  -3.077   0.255  0.00  0.00    +0.002 A 
ATOM     24  C   UNL     1      -5.336  -2.948   0.106  0.00  0.00    +0.023 A 
ENDBRANCH  10  19
BRANCH   7  25
ATOM     25  O   UNL     1       2.340  -0.043   0.233  0.00  0.00    -0.483 OA
ATOM     26  H   UNL     1       3.131  -0.598   0.206  0.00  0.00    +0.295 HD
ENDBRANCH   7  25
TORSDOF 3
