REMARK  Name = ZINC67066361
REMARK  4 active torsions:
REMARK  status: ('A' for Active; 'I' for Inactive)
REMARK    1  A    between atoms: C_3  and  C_10
REMARK    2  A    between atoms: C_5  and  N_7
REMARK    3  A    between atoms: C_10  and  N_11
REMARK    4  A    between atoms: C_18  and  C_21
REMARK                            x       y       z     vdW  Elec       q    Type
REMARK                         _______ _______ _______ _____ _____    ______ ____
ROOT
ATOM      1  N   UNL     1       5.990   3.551   0.564  0.00  0.00    -0.295 N 
ATOM      2  C   UNL     1       5.246   3.102   1.594  0.00  0.00    +0.303 C 
ATOM      3  O   UNL     1       4.171   2.576   1.383  0.00  0.00    -0.253 OA
ATOM      4  N   UNL     1       5.694   3.237   2.858  0.00  0.00    -0.281 N 
ATOM      5  C   UNL     1       4.958   2.650   3.989  0.00  0.00    +0.137 C 
ATOM      6  C   UNL     1       4.761   3.735   5.054  0.00  0.00    +0.179 C 
ATOM      7  O   UNL     1       6.025   4.329   5.359  0.00  0.00    -0.369 OA
ATOM      8  C   UNL     1       6.640   4.996   4.254  0.00  0.00    +0.166 C 
ATOM      9  C   UNL     1       6.936   3.971   3.148  0.00  0.00    +0.145 C 
ATOM     10  H   UNL     1       6.813   4.035   0.735  0.00  0.00    +0.151 HD
ENDROOT
BRANCH   8  11
ATOM     11  C   UNL     1       7.928   5.635   4.705  0.00  0.00    -0.015 A 
ATOM     12  C   UNL     1       8.762   4.964   5.580  0.00  0.00    +0.009 A 
ATOM     13  C   UNL     1       9.944   5.548   5.995  0.00  0.00    +0.041 A 
ATOM     14  C   UNL     1      10.294   6.805   5.535  0.00  0.00    +0.158 A 
ATOM     15  C   UNL     1       9.458   7.478   4.657  0.00  0.00    +0.159 A 
ATOM     16  C   UNL     1       8.277   6.888   4.239  0.00  0.00    +0.047 A 
ATOM     17  F   UNL     1       9.798   8.705   4.206  0.00  0.00    -0.202 F 
ATOM     18  F   UNL     1      11.449   7.377   5.941  0.00  0.00    -0.202 F 
ENDBRANCH   8  11
BRANCH   1  19
ATOM     19  C   UNL     1       5.556   3.308  -0.814  0.00  0.00    +0.141 C 
BRANCH  19  22
ATOM     20  C   UNL     1       8.541   3.701  -3.093  0.00  0.00    +0.003 A 
ATOM     21  C   UNL     1       7.624   3.152  -2.216  0.00  0.00    +0.005 A 
ATOM     22  C   UNL     1       6.557   3.908  -1.769  0.00  0.00    -0.028 A 
ATOM     23  C   UNL     1       6.407   5.213  -2.197  0.00  0.00    +0.038 A 
ATOM     24  C   UNL     1       7.324   5.763  -3.073  0.00  0.00    +0.127 A 
ATOM     25  C   UNL     1       8.390   5.006  -3.522  0.00  0.00    +0.033 A 
BRANCH  24  26
ATOM     26  N   UNL     1       7.163   7.161  -3.533  0.00  0.00    +0.056 N 
ATOM     27  O   UNL     1       6.229   7.822  -3.142  0.00  0.00    -0.126 OA
ATOM     28  O   UNL     1       7.965   7.642  -4.298  0.00  0.00    -0.126 OA
ENDBRANCH  24  26
ENDBRANCH  19  22
ENDBRANCH   1  19
TORSDOF 4
