REMARK  Name = ZINC63376194
REMARK  8 active torsions:
REMARK  status: ('A' for Active; 'I' for Inactive)
REMARK    1  A    between atoms: C_1  and  C_2
REMARK    2  A    between atoms: C_4  and  C_38
REMARK    3  A    between atoms: C_13  and  C_16
REMARK    4  A    between atoms: C_16  and  C_17
REMARK    5  A    between atoms: N_28  and  C_31
REMARK    6  A    between atoms: C_31  and  C_32
REMARK    7  A    between atoms: C_32  and  O_33
REMARK    8  A    between atoms: O_33  and  C_34
REMARK                            x       y       z     vdW  Elec       q    Type
REMARK                         _______ _______ _______ _____ _____    ______ ____
ROOT
ATOM      1  C   UNL     1      -0.018   1.503   0.010  0.00  0.00    +0.044 C 
ATOM      2  C   UNL     1       0.002  -0.004   0.002  0.00  0.00    -0.050 A 
ATOM      3  C   UNL     1       0.006  -0.691  -1.199  0.00  0.00    +0.008 A 
ATOM      4  C   UNL     1       0.025  -2.070  -1.212  0.00  0.00    -0.029 A 
ATOM      5  C   UNL     1       0.041  -2.782  -0.015  0.00  0.00    +0.042 A 
ATOM      6  C   UNL     1       0.037  -2.081   1.187  0.00  0.00    +0.004 A 
ATOM      7  C   UNL     1       0.023  -0.704   1.195  0.00  0.00    +0.011 A 
ATOM      8  C   UNL     1       0.060  -3.122   2.268  0.00  0.00    +0.136 C 
ATOM      9  C   UNL     1      -1.100  -2.994   3.234  0.00  0.00    +0.122 C 
ATOM     10  C   UNL     1      -0.488  -3.880   4.387  0.00  0.00    +0.107 C 
ATOM     11  C   UNL     1       0.883  -3.373   4.525  0.00  0.00    +0.072 C 
ATOM     12  N   UNL     1       1.272  -2.974   3.121  0.00  0.00    -0.295 NA
ATOM     13  C   UNL     1      -1.650  -4.164   5.194  0.00  0.00    +0.227 C 
ATOM     14  O   UNL     1      -1.700  -4.295   6.398  0.00  0.00    -0.275 OA
ATOM     15  N   UNL     1      -2.688  -4.253   4.300  0.00  0.00    -0.239 N 
ATOM     16  C   UNL     1      -2.365  -3.773   3.048  0.00  0.00    +0.228 C 
ATOM     17  O   UNL     1      -2.970  -3.945   2.011  0.00  0.00    -0.275 OA
ATOM     18  C   UNL     1       0.073  -4.440   1.546  0.00  0.00    +0.243 C 
ATOM     19  O   UNL     1       0.091  -5.543   2.050  0.00  0.00    -0.273 OA
ATOM     20  N   UNL     1       0.061  -4.158   0.228  0.00  0.00    -0.283 N 
ATOM     21  C   UNL     1       0.028  -2.808  -2.526  0.00  0.00    +0.045 C 
ATOM     22  H   UNL     1       2.030  -3.541   2.773  0.00  0.00    +0.124 HD
ATOM     23  H   UNL     1       0.066  -4.831  -0.470  0.00  0.00    +0.155 HD
ENDROOT
BRANCH  11  24
ATOM     24  C   UNL     1       0.916  -2.176   5.477  0.00  0.00    +0.052 C 
BRANCH  24  25
ATOM     25  C   UNL     1       2.345  -1.750   5.699  0.00  0.00    -0.040 C 
ATOM     26  C   UNL     1       3.016  -0.779   5.040  0.00  0.00    -0.001 A 
ATOM     27  C   UNL     1       2.632   0.137   3.959  0.00  0.00    +0.010 A 
ATOM     28  C   UNL     1       3.544   1.021   3.494  0.00  0.00    +0.001 A 
ATOM     29  C   UNL     1       4.843   1.084   4.016  0.00  0.00    +0.002 A 
ATOM     30  C   UNL     1       5.269   0.276   5.010  0.00  0.00    +0.026 A 
ATOM     31  C   UNL     1       4.393  -0.691   5.575  0.00  0.00    +0.043 A 
ATOM     32  N   UNL     1       4.567  -1.575   6.528  0.00  0.00    -0.380 N 
ATOM     33  C   UNL     1       3.316  -2.319   6.710  0.00  0.00    +0.144 C 
ATOM     34  H   UNL     1       5.385  -1.710   7.032  0.00  0.00    +0.160 HD
ENDBRANCH  24  25
ENDBRANCH  11  24
BRANCH  15  35
ATOM     35  C   UNL     1      -4.008  -4.792   4.639  0.00  0.00    +0.144 C 
BRANCH  35  36
ATOM     36  C   UNL     1      -4.908  -3.659   5.136  0.00  0.00    +0.179 C 
BRANCH  36  37
ATOM     37  O   UNL     1      -5.139  -2.733   4.073  0.00  0.00    -0.381 OA
ATOM     38  C   UNL     1      -5.974  -1.630   4.434  0.00  0.00    +0.194 C 
ENDBRANCH  36  37
ENDBRANCH  35  36
ENDBRANCH  15  35
TORSDOF 5
