REMARK  Name = ZINC39575513
REMARK  9 active torsions:
REMARK  status: ('A' for Active; 'I' for Inactive)
REMARK    1  A    between atoms: C_1  and  C_2
REMARK    2  A    between atoms: C_2  and  C_3
REMARK    3  A    between atoms: N_11  and  C_15
REMARK    4  A    between atoms: C_15  and  C_16
REMARK    5  A    between atoms: C_16  and  O_18
REMARK    6  A    between atoms: O_18  and  C_19
REMARK    7  A    between atoms: C_19  and  C_21
REMARK    8  A    between atoms: C_19  and  C_22
REMARK    9  A    between atoms: N_24  and  C_25
REMARK                            x       y       z     vdW  Elec       q    Type
REMARK                         _______ _______ _______ _____ _____    ______ ____
ROOT
ATOM      1  C   UNL     1       6.703  -3.475   0.762  0.00  0.00    +0.326 C 
ATOM      2  O   UNL     1       6.772  -2.329   1.138  0.00  0.00    -0.249 OA
ENDROOT
BRANCH   1   3
ATOM      3  C   UNL     1       5.497  -4.310   1.106  0.00  0.00    +0.238 C 
BRANCH   3  12
ATOM      4  C   UNL     1       0.762  -0.523   1.310  0.00  0.00    -0.011 C 
ATOM      5  C   UNL     1       2.230  -0.098   1.231  0.00  0.00    +0.006 C 
ATOM      6  C   UNL     1       2.973  -0.603   2.471  0.00  0.00    +0.035 C 
ATOM      7  C   UNL     1       2.870  -2.123   2.545  0.00  0.00    +0.113 C 
ATOM      8  C   UNL     1       1.411  -2.563   2.598  0.00  0.00    +0.035 C 
ATOM      9  C   UNL     1       0.675  -2.050   1.358  0.00  0.00    +0.006 C 
ATOM     10  C   UNL     1       3.571  -2.758   1.366  0.00  0.00    +0.247 C 
ATOM     11  O   UNL     1       3.302  -2.620   0.192  0.00  0.00    -0.273 OA
ATOM     12  N   UNL     1       4.558  -3.510   1.895  0.00  0.00    -0.213 N 
ATOM     13  C   UNL     1       4.572  -3.434   3.232  0.00  0.00    +0.310 C 
ATOM     14  O   UNL     1       5.370  -4.024   3.934  0.00  0.00    -0.252 OA
ATOM     15  N   UNL     1       3.603  -2.631   3.711  0.00  0.00    -0.285 N 
ATOM     16  H   UNL     1       3.425  -2.428   4.643  0.00  0.00    +0.151 HD
BRANCH   4  18
ATOM     17  C   UNL     1      -0.004   1.521   0.095  0.00  0.00    +0.004 C 
ATOM     18  C   UNL     1       0.016  -0.009   0.077  0.00  0.00    -0.000 C 
ENDBRANCH   4  18
ENDBRANCH   3  12
ENDBRANCH   1   3
BRANCH   1  19
ATOM     19  O   UNL     1       7.702  -4.005   0.038  0.00  0.00    -0.451 OA
BRANCH  19  20
ATOM     20  C   UNL     1       8.815  -3.156  -0.250  0.00  0.00    +0.259 C 
ATOM     21  C   UNL     1       9.859  -3.290   0.859  0.00  0.00    +0.062 C 
BRANCH  20  22
ATOM     22  C   UNL     1       9.426  -3.560  -1.567  0.00  0.00    +0.258 C 
ATOM     23  O   UNL     1       8.955  -4.484  -2.197  0.00  0.00    -0.271 OA
ATOM     24  N   UNL     1      10.496  -2.895  -2.046  0.00  0.00    -0.281 N 
ATOM     25  H   UNL     1      10.824  -2.107  -1.584  0.00  0.00    +0.155 HD
BRANCH  24  26
ATOM     26  C   UNL     1      11.135  -3.341  -3.208  0.00  0.00    +0.053 A 
ATOM     27  C   UNL     1      11.045  -4.674  -3.584  0.00  0.00    +0.044 A 
ATOM     28  C   UNL     1      11.677  -5.111  -4.733  0.00  0.00    +0.043 A 
ATOM     29  C   UNL     1      12.399  -4.221  -5.509  0.00  0.00    +0.021 A 
ATOM     30  C   UNL     1      12.490  -2.893  -5.138  0.00  0.00    +0.023 A 
ATOM     31  C   UNL     1      11.856  -2.448  -3.993  0.00  0.00    +0.062 A 
ATOM     32 CL   UNL     1      11.966  -0.778  -3.531  0.00  0.00    -0.082 Cl
ATOM     33 CL   UNL     1      11.565  -6.779  -5.203  0.00  0.00    -0.083 Cl
ENDBRANCH  24  26
ENDBRANCH  20  22
ENDBRANCH  19  20
ENDBRANCH   1  19
TORSDOF 7
