REMARK  Name = ZINC16013005
REMARK  11 active torsions:
REMARK  status: ('A' for Active; 'I' for Inactive)
REMARK    1  A    between atoms: C_1  and  O_2
REMARK    2  A    between atoms: O_2  and  C_3
REMARK    3  A    between atoms: C_5  and  C_10
REMARK    4  A    between atoms: C_8  and  O_9
REMARK    5  A    between atoms: C_18  and  O_38
REMARK    6  A    between atoms: C_21  and  C_22
REMARK    7  A    between atoms: C_21  and  N_73
REMARK    8  A    between atoms: N_24  and  C_25
REMARK    9  A    between atoms: C_26  and  C_34
REMARK   10  A    between atoms: C_34  and  O_36
REMARK   11  A    between atoms: O_36  and  C_37
REMARK                            x       y       z     vdW  Elec       q    Type
REMARK                         _______ _______ _______ _____ _____    ______ ____
ROOT
ATOM      1  C   UNL     1      -1.782   2.187   0.022  0.00  0.00    -0.031 C 
ATOM      2  C   UNL     1      -2.587   2.205  -1.281  0.00  0.00    +0.011 C 
ATOM      3  C   UNL     1      -2.754   0.771  -1.787  0.00  0.00    +0.005 C 
ATOM      4  C   UNL     1      -3.581   0.774  -3.074  0.00  0.00    +0.000 C 
ATOM      5  C   UNL     1      -4.960   1.372  -2.790  0.00  0.00    +0.003 C 
ATOM      6  C   UNL     1      -4.797   2.808  -2.288  0.00  0.00    +0.035 C 
ATOM      7  C   UNL     1      -3.961   2.824  -1.009  0.00  0.00    +0.066 C 
ATOM      8  C   UNL     1      -4.674   2.011   0.074  0.00  0.00    +0.016 C 
ATOM      9  C   UNL     1      -3.810   1.989   1.337  0.00  0.00    -0.075 C 
ATOM     10  N   UNL     1      -2.506   1.368   1.018  0.00  0.00    +0.390 N 
ATOM     11  H   UNL     1      -2.670   0.434   0.625  0.00  0.00    -0.080 HD
ENDROOT
BRANCH   1  14
ATOM     12  C   UNL     1       1.917   1.812  -0.645  0.00  0.00    +0.161 A 
ATOM     13  C   UNL     1       0.675   2.379  -0.407  0.00  0.00    +0.051 A 
ATOM     14  C   UNL     1      -0.431   1.569  -0.230  0.00  0.00    -0.057 A 
ATOM     15  C   UNL     1      -0.301   0.194  -0.289  0.00  0.00    +0.006 A 
ATOM     16  C   UNL     1       0.935  -0.378  -0.526  0.00  0.00    +0.049 A 
ATOM     17  C   UNL     1       2.048   0.428  -0.705  0.00  0.00    +0.158 A 
BRANCH  12  19
ATOM     18  C   UNL     1       2.798   4.019  -0.746  0.00  0.00    +0.277 C 
ATOM     19  O   UNL     1       3.007   2.607  -0.820  0.00  0.00    -0.491 OA
ENDBRANCH  12  19
BRANCH  17  20
ATOM     20  O   UNL     1       3.265  -0.132  -0.938  0.00  0.00    -0.503 OA
ATOM     21  H   UNL     1       3.461  -0.272  -1.874  0.00  0.00    +0.292 HD
ENDBRANCH  17  20
ENDBRANCH   1  14
BRANCH   7  22
ATOM     22  O   UNL     1      -3.794   4.169  -0.556  0.00  0.00    -0.388 OA
ATOM     23  H   UNL     1      -4.625   4.625  -0.364  0.00  0.00    +0.210 HD
ENDBRANCH   7  22
BRANCH  10  24
ATOM     24  C   UNL     1      -1.697   1.236   2.247  0.00  0.00    +0.020 C 
BRANCH  24  25
ATOM     25  C   UNL     1      -1.487   2.582   2.892  0.00  0.00    +0.201 C 
ATOM     26  O   UNL     1      -1.871   3.588   2.334  0.00  0.00    -0.278 OA
ATOM     27  N   UNL     1      -0.872   2.667   4.088  0.00  0.00    -0.281 N 
ATOM     28  H   UNL     1      -0.565   1.863   4.534  0.00  0.00    +0.155 HD
BRANCH  27  29
ATOM     29  C   UNL     1      -0.679   3.905   4.681  0.00  0.00    +0.086 A 
ATOM     30  C   UNL     1      -0.078   4.194   5.899  0.00  0.00    +0.091 A 
ATOM     31  C   UNL     1       0.004   5.591   6.292  0.00  0.00    -0.021 A 
ATOM     32  C   UNL     1      -0.535   6.467   5.417  0.00  0.00    -0.004 A 
ATOM     33  S   UNL     1      -1.135   5.467   4.085  0.00  0.00    -0.077 S 
ATOM     34  C   UNL     1      -0.603   7.957   5.556  0.00  0.00    +0.043 C 
ATOM     35  C   UNL     1      -0.304   8.320   7.018  0.00  0.00    +0.005 C 
ATOM     36  C   UNL     1       0.949   7.562   7.469  0.00  0.00    +0.005 C 
ATOM     37  C   UNL     1       0.637   6.070   7.593  0.00  0.00    +0.037 C 
BRANCH  30  38
ATOM     38  C   UNL     1       0.457   3.132   6.753  0.00  0.00    +0.342 C 
ATOM     39  O   UNL     1       1.613   2.775   6.628  0.00  0.00    -0.245 OA
BRANCH  38  40
ATOM     40  O   UNL     1      -0.332   2.550   7.679  0.00  0.00    -0.464 OA
ATOM     41  C   UNL     1       0.265   1.504   8.490  0.00  0.00    +0.280 C 
ENDBRANCH  38  40
ENDBRANCH  30  38
ENDBRANCH  27  29
ENDBRANCH  24  25
ENDBRANCH  10  24
TORSDOF 9
