REMARK  Name = ZINC08776570
REMARK  10 active torsions:
REMARK  status: ('A' for Active; 'I' for Inactive)
REMARK    1  A    between atoms: C_1  and  C_2
REMARK    2  A    between atoms: C_4  and  C_30
REMARK    3  A    between atoms: N_10  and  C_11
REMARK    4  A    between atoms: C_11  and  N_13
REMARK    5  A    between atoms: N_13  and  C_14
REMARK    6  A    between atoms: N_20  and  C_21
REMARK    7  A    between atoms: C_23  and  C_28
REMARK    8  A    between atoms: C_23  and  C_29
REMARK    9  A    between atoms: C_24  and  C_26
REMARK   10  A    between atoms: C_24  and  C_27
REMARK                            x       y       z     vdW  Elec       q    Type
REMARK                         _______ _______ _______ _____ _____    ______ ____
ROOT
ATOM      1  C   UNL     1      -2.743   8.360  -5.921  0.00  0.00    +0.066 C 
ATOM      2  C   UNL     1      -2.486   7.645  -4.619  0.00  0.00    +0.044 A 
ATOM      3  C   UNL     1      -3.236   7.946  -3.493  0.00  0.00    +0.046 A 
ATOM      4  C   UNL     1      -2.968   7.264  -2.317  0.00  0.00    +0.044 A 
ATOM      5  N   UNL     1      -2.010   6.351  -2.304  0.00  0.00    -0.217 NA
ATOM      6  C   UNL     1      -1.312   6.088  -3.398  0.00  0.00    +0.231 A 
ATOM      7  N   UNL     1      -1.540   6.724  -4.537  0.00  0.00    -0.217 NA
ATOM      8  N   UNL     1      -0.314   5.124  -3.349  0.00  0.00    -0.297 N 
ATOM      9  C   UNL     1       0.499   4.925  -4.432  0.00  0.00    +0.196 C 
ATOM     10  N   UNL     1       1.621   5.614  -4.552  0.00  0.00    -0.159 NA
ATOM     11  N   UNL     1       0.152   4.014  -5.388  0.00  0.00    -0.355 N 
ATOM     12  C   UNL     1      -3.758   7.557  -1.068  0.00  0.00    +0.066 C 
ATOM     13  H   UNL     1      -0.193   4.592  -2.547  0.00  0.00    +0.171 HD
ATOM     14  H   UNL     1       0.689   3.925  -6.191  0.00  0.00    +0.163 HD
ENDROOT
BRANCH  11  15
ATOM     15  C   UNL     1      -1.033   3.168  -5.200  0.00  0.00    +0.079 C 
ATOM     16  C   UNL     1      -0.836   1.851  -5.951  0.00  0.00    +0.011 C 
ATOM     17  C   UNL     1      -2.065   0.959  -5.790  0.00  0.00    -0.071 C 
ATOM     18  C   UNL     1      -3.502   3.012  -5.618  0.00  0.00    -0.071 C 
ATOM     19  C   UNL     1      -2.256   3.879  -5.779  0.00  0.00    +0.011 C 
ATOM     20  C   UNL     1      -4.624   3.647  -6.470  0.00  0.00    -0.010 C 
ATOM     21  C   UNL     1      -3.966   3.048  -4.157  0.00  0.00    -0.010 C 
ATOM     22  C   UNL     1      -2.076   0.352  -4.382  0.00  0.00    -0.010 C 
ATOM     23  C   UNL     1      -1.926  -0.209  -6.791  0.00  0.00    -0.010 C 
ATOM     24  N   UNL     1      -3.361   1.615  -6.110  0.00  0.00    +0.386 N 
ATOM     25  H   UNL     1      -4.113   1.054  -5.693  0.00  0.00    -0.084 HD
ATOM     26  H   UNL     1      -3.468   1.626  -7.131  0.00  0.00    -0.084 HD
ENDBRANCH  11  15
BRANCH  10  27
ATOM     27  C   UNL     1       1.997   6.457  -3.579  0.00  0.00    +0.161 C 
ATOM     28  S   UNL     1       1.196   6.431  -2.067  0.00  0.00    -0.016 S 
BRANCH  27  29
ATOM     29  N   UNL     1       3.006   7.324  -3.792  0.00  0.00    -0.295 N 
ATOM     30  H   UNL     1       3.484   7.315  -4.637  0.00  0.00    +0.154 HD
BRANCH  29  31
ATOM     31  C   UNL     1       3.366   8.237  -2.796  0.00  0.00    +0.033 A 
ATOM     32  C   UNL     1       2.394   9.022  -2.188  0.00  0.00    +0.023 A 
ATOM     33  C   UNL     1       2.752   9.919  -1.201  0.00  0.00    +0.002 A 
ATOM     34  C   UNL     1       4.077  10.044  -0.825  0.00  0.00    +0.000 A 
ATOM     35  C   UNL     1       5.047   9.269  -1.432  0.00  0.00    +0.002 A 
ATOM     36  C   UNL     1       4.695   8.365  -2.416  0.00  0.00    +0.023 A 
ENDBRANCH  29  31
ENDBRANCH  27  29
ENDBRANCH  10  27
TORSDOF 4
