REMARK  Name = ZINC16694433
REMARK  6 active torsions:
REMARK  status: ('A' for Active; 'I' for Inactive)
REMARK    1  A    between atoms: C_1  and  C_2
REMARK    2  A    between atoms: C_2  and  S_3
REMARK    3  A    between atoms: S_3  and  C_4
REMARK    4  A    between atoms: C_10  and  C_12
REMARK    5  A    between atoms: N_17  and  S_18
REMARK    6  A    between atoms: S_18  and  C_21
REMARK                            x       y       z     vdW  Elec       q    Type
REMARK                         _______ _______ _______ _____ _____    ______ ____
ROOT
ATOM      1  C   UNL     1      -5.104   5.601   7.711  0.00  0.00    +0.166 C 
ATOM      2  C   UNL     1      -3.926   6.486   8.191  0.00  0.00    +0.031 C 
ATOM      3  C   UNL     1      -4.227   6.609   9.708  0.00  0.00    +0.019 C 
ATOM      4  C   UNL     1      -4.817   5.226  10.056  0.00  0.00    +0.110 C 
ATOM      5  N   UNL     1      -5.329   4.641   8.807  0.00  0.00    -0.165 NA
ENDROOT
BRANCH   1  12
ATOM      6  C   UNL     1      -4.357   3.640   1.666  0.00  0.00    +0.160 A 
ATOM      7  N   UNL     1      -3.876   3.082   2.768  0.00  0.00    -0.133 NA
ATOM      8  N   UNL     1      -4.090   3.570   3.911  0.00  0.00    -0.125 NA
ATOM      9  C   UNL     1      -4.817   4.662   4.082  0.00  0.00    +0.189 A 
ATOM     10  S   UNL     1      -5.233   5.029   2.380  0.00  0.00    -0.024 S 
ATOM     11  N   UNL     1      -5.161   5.334   5.252  0.00  0.00    -0.262 N 
ATOM     12  C   UNL     1      -4.732   4.874   6.444  0.00  0.00    +0.238 C 
ATOM     13  O   UNL     1      -4.046   3.875   6.498  0.00  0.00    -0.274 OA
ATOM     14  H   UNL     1      -5.709   6.133   5.210  0.00  0.00    +0.157 HD
BRANCH   6  15
ATOM     15  S   UNL     1      -4.189   3.151  -0.018  0.00  0.00    -0.097 S 
BRANCH  15  17
ATOM     16  C   UNL     1      -2.936   1.120  -1.355  0.00  0.00    +0.016 C 
ATOM     17  C   UNL     1      -3.163   1.657   0.059  0.00  0.00    +0.073 C 
ENDBRANCH  15  17
ENDBRANCH   6  15
ENDBRANCH   1  12
BRANCH   5  18
ATOM     18  S   UNL     1      -6.038   3.152   8.655  0.00  0.00    +0.062 S 
ATOM     19  O   UNL     1      -6.017   2.832   7.271  0.00  0.00    -0.153 OA
ATOM     20  O   UNL     1      -5.443   2.317   9.639  0.00  0.00    -0.153 OA
BRANCH  18  21
ATOM     21  C   UNL     1      -7.731   3.334   9.105  0.00  0.00    +0.106 A 
ATOM     22  C   UNL     1      -8.138   3.047  10.395  0.00  0.00    +0.031 A 
ATOM     23  C   UNL     1      -9.466   3.193  10.750  0.00  0.00    +0.040 A 
ATOM     24  C   UNL     1     -10.390   3.617   9.811  0.00  0.00    +0.124 A 
ATOM     25  C   UNL     1      -9.983   3.899   8.518  0.00  0.00    +0.040 A 
ATOM     26  C   UNL     1      -8.654   3.757   8.166  0.00  0.00    +0.031 A 
ATOM     27  F   UNL     1     -11.689   3.756  10.156  0.00  0.00    -0.205 F 
ENDBRANCH  18  21
ENDBRANCH   5  18
TORSDOF 5
