REMARK  Name = ZINC54360776
REMARK  4 active torsions:
REMARK  status: ('A' for Active; 'I' for Inactive)
REMARK    1  A    between atoms: C_1  and  O_2
REMARK    2  A    between atoms: O_2  and  C_3
REMARK    3  A    between atoms: C_12  and  C_13
REMARK    4  A    between atoms: N_17  and  C_21
REMARK                            x       y       z     vdW  Elec       q    Type
REMARK                         _______ _______ _______ _____ _____    ______ ____
ROOT
ATOM      1  C   UNL     1       2.332  -2.661  -5.985  0.00  0.00    +0.030 C 
ATOM      2  C   UNL     1       3.258  -3.525  -6.484  0.00  0.00    +0.078 C 
ATOM      3  C   UNL     1       4.050  -3.423  -7.667  0.00  0.00    +0.263 C 
ATOM      4  O   UNL     1       3.955  -2.458  -8.404  0.00  0.00    -0.269 OA
ATOM      5  N   UNL     1       4.889  -4.407  -7.940  0.00  0.00    -0.223 N 
ATOM      6  C   UNL     1       4.994  -5.479  -7.122  0.00  0.00    +0.125 C 
ATOM      7  S   UNL     1       6.003  -6.853  -7.279  0.00  0.00    -0.027 S 
ATOM      8  S   UNL     1       3.819  -5.093  -5.833  0.00  0.00    -0.061 S 
ENDROOT
BRANCH   1  18
ATOM      9  C   UNL     1      -0.493  -0.621  -1.913  0.00  0.00    +0.122 A 
ATOM     10  C   UNL     1      -0.167   0.029  -3.099  0.00  0.00    +0.046 A 
ATOM     11  C   UNL     1       0.564  -0.611  -4.061  0.00  0.00    +0.014 A 
ATOM     12  C   UNL     1       0.986  -1.922  -3.853  0.00  0.00    +0.007 A 
ATOM     13  C   UNL     1       0.662  -2.587  -2.659  0.00  0.00    +0.051 A 
ATOM     14  C   UNL     1      -0.077  -1.921  -1.688  0.00  0.00    +0.071 A 
ATOM     15  N   UNL     1       1.204  -3.854  -2.729  0.00  0.00    -0.360 N 
ATOM     16  H   UNL     1       1.129  -4.527  -2.034  0.00  0.00    +0.165 HD
ATOM     17  C   UNL     1       1.855  -4.027  -3.909  0.00  0.00    +0.091 A 
ATOM     18  C   UNL     1       1.766  -2.885  -4.654  0.00  0.00    +0.001 A 
BRANCH   9  20
ATOM     19  C   UNL     1      -1.619   1.369  -1.259  0.00  0.00    +0.277 C 
ATOM     20  O   UNL     1      -1.220   0.028  -0.965  0.00  0.00    -0.495 OA
ENDBRANCH   9  20
ENDBRANCH   1  18
BRANCH   5  21
ATOM     21  C   UNL     1       5.683  -4.339  -9.095  0.00  0.00    +0.046 A 
ATOM     22  C   UNL     1       6.949  -3.774  -9.034  0.00  0.00    +0.028 A 
ATOM     23  C   UNL     1       7.732  -3.707 -10.171  0.00  0.00    +0.051 A 
ATOM     24  C   UNL     1       7.256  -4.202 -11.374  0.00  0.00    +0.166 A 
ATOM     25  C   UNL     1       5.985  -4.769 -11.438  0.00  0.00    +0.168 A 
ATOM     26  C   UNL     1       5.203  -4.841 -10.297  0.00  0.00    +0.073 A 
ATOM     27  O   UNL     1       5.753  -5.177 -12.719  0.00  0.00    -0.453 OA
ATOM     28  C   UNL     1       6.727  -4.487 -13.525  0.00  0.00    +0.466 C 
ATOM     29  O   UNL     1       7.820  -4.255 -12.617  0.00  0.00    -0.453 OA
ENDBRANCH   5  21
TORSDOF 3
