REMARK  Name = ZINC64055393
REMARK  6 active torsions:
REMARK  status: ('A' for Active; 'I' for Inactive)
REMARK    1  A    between atoms: C_1  and  C_2
REMARK    2  A    between atoms: C_7  and  C_10
REMARK    3  A    between atoms: C_11  and  C_13
REMARK    4  A    between atoms: C_13  and  S_14
REMARK    5  A    between atoms: S_14  and  C_15
REMARK    6  A    between atoms: C_19  and  C_21
REMARK                            x       y       z     vdW  Elec       q    Type
REMARK                         _______ _______ _______ _____ _____    ______ ____
ROOT
ATOM      1  C   UNL     1       6.527   2.075  -3.226  0.00  0.00    +0.339 C 
ATOM      2  N   UNL     1       7.270   0.833  -2.953  0.00  0.00    -0.219 N 
ATOM      3  N   UNL     1       7.775   0.976  -1.652  0.00  0.00    -0.145 NA
ATOM      4  C   UNL     1       7.417   2.130  -1.155  0.00  0.00    +0.238 C 
ATOM      5  O   UNL     1       6.670   2.852  -2.029  0.00  0.00    -0.443 OA
ATOM      6  H   UNL     1       7.386   0.075  -3.548  0.00  0.00    +0.173 HD
ENDROOT
BRANCH   4   7
ATOM      7  C   UNL     1       7.765   2.571   0.129  0.00  0.00    +0.043 C 
ATOM      8  C   UNL     1       8.532   1.891   1.076  0.00  0.00    +0.008 A 
ATOM      9  C   UNL     1       9.166   0.631   1.062  0.00  0.00    +0.010 A 
ATOM     10  C   UNL     1       9.863   0.215   2.151  0.00  0.00    +0.001 A 
ATOM     11  C   UNL     1       9.971   1.008   3.296  0.00  0.00    +0.002 A 
ATOM     12  C   UNL     1       9.388   2.229   3.379  0.00  0.00    +0.026 A 
ATOM     13  C   UNL     1       8.643   2.731   2.280  0.00  0.00    +0.043 A 
ATOM     14  N   UNL     1       7.992   3.865   2.113  0.00  0.00    -0.380 N 
ATOM     15  C   UNL     1       7.392   3.887   0.776  0.00  0.00    +0.154 C 
ATOM     16  H   UNL     1       7.925   4.576   2.770  0.00  0.00    +0.160 HD
ENDBRANCH   4   7
BRANCH   1  17
ATOM     17  S   UNL     1       4.778   1.710  -3.540  0.00  0.00    -0.087 S 
BRANCH  17  18
ATOM     18  C   UNL     1       4.228   0.867  -2.031  0.00  0.00    +0.170 C 
BRANCH  18  27
ATOM     19  C   UNL     1      -0.019   1.526   0.010  0.00  0.00    +0.039 C 
ATOM     20  C   UNL     1       0.002  -0.004   0.002  0.00  0.00    +0.133 C 
ATOM     21  C   UNL     1       0.722  -0.499  -1.258  0.00  0.00    +0.139 C 
ATOM     22  N   UNL     1       2.143  -0.135  -1.154  0.00  0.00    -0.296 N 
ATOM     23  C   UNL     1       2.860  -0.488   0.082  0.00  0.00    +0.139 C 
ATOM     24  C   UNL     1       2.036   0.007   1.277  0.00  0.00    +0.133 C 
ATOM     25  O   UNL     1       0.695  -0.479   1.159  0.00  0.00    -0.371 OA
ATOM     26  C   UNL     1       2.656  -0.513   2.575  0.00  0.00    +0.039 C 
ATOM     27  C   UNL     1       2.771   0.504  -2.161  0.00  0.00    +0.226 C 
ATOM     28  O   UNL     1       2.164   0.786  -3.172  0.00  0.00    -0.275 OA
ENDBRANCH  18  27
ENDBRANCH  17  18
ENDBRANCH   1  17
TORSDOF 4
