REMARK  Name = ZINC10985146
REMARK  8 active torsions:
REMARK  status: ('A' for Active; 'I' for Inactive)
REMARK    1  A    between atoms: C_1  and  C_2
REMARK    2  A    between atoms: C_9  and  C_14
REMARK    3  A    between atoms: C_14  and  O_16
REMARK    4  A    between atoms: O_16  and  C_17
REMARK    5  A    between atoms: C_17  and  C_18
REMARK    6  A    between atoms: N_20  and  C_21
REMARK    7  A    between atoms: C_21  and  C_22
REMARK    8  A    between atoms: N_24  and  C_25
REMARK                            x       y       z     vdW  Elec       q    Type
REMARK                         _______ _______ _______ _____ _____    ______ ____
ROOT
ATOM      1  C   UNL     1       4.071  -6.021  -0.493  0.00  0.00    +0.251 C 
ATOM      2  O   UNL     1       3.159  -6.820  -0.508  0.00  0.00    -0.272 OA
ATOM      3  N   UNL     1       3.811  -4.704  -0.373  0.00  0.00    -0.304 N 
ATOM      4  H   UNL     1       4.541  -4.065  -0.361  0.00  0.00    +0.149 HD
ENDROOT
BRANCH   1   5
ATOM      5  C   UNL     1       5.495  -6.501  -0.609  0.00  0.00    +0.328 C 
BRANCH   5   6
ATOM      6  O   UNL     1       5.510  -7.948  -0.727  0.00  0.00    -0.452 OA
BRANCH   6   7
ATOM      7  C   UNL     1       6.715  -8.540  -0.840  0.00  0.00    +0.340 C 
ATOM      8  O   UNL     1       7.726  -7.865  -0.841  0.00  0.00    -0.245 OA
BRANCH   7  16
ATOM      9  C   UNL     1       9.092 -16.167  -2.241  0.00  0.00    +0.029 C 
ATOM     10  C   UNL     1       8.605 -14.720  -2.345  0.00  0.00    +0.134 C 
ATOM     11  C   UNL     1       9.664 -13.793  -1.814  0.00  0.00    +0.230 C 
ATOM     12  O   UNL     1      10.819 -14.162  -1.847  0.00  0.00    -0.274 OA
ATOM     13  N   UNL     1       9.404 -12.589  -1.310  0.00  0.00    -0.284 N 
ATOM     14  C   UNL     1       8.149 -11.995  -1.199  0.00  0.00    +0.048 A 
ATOM     15  C   UNL     1       8.058 -10.618  -1.081  0.00  0.00    +0.039 A 
ATOM     16  C   UNL     1       6.808 -10.005  -0.964  0.00  0.00    +0.061 A 
ATOM     17  C   UNL     1       5.644 -10.781  -0.958  0.00  0.00    +0.016 A 
ATOM     18  C   UNL     1       5.734 -12.150  -1.080  0.00  0.00    +0.017 A 
ATOM     19  C   UNL     1       6.976 -12.758  -1.198  0.00  0.00    +0.030 A 
ATOM     20  S   UNL     1       7.095 -14.513  -1.354  0.00  0.00    -0.111 S 
ATOM     21  H   UNL     1      10.162 -12.076  -0.989  0.00  0.00    +0.155 HD
ENDBRANCH   7  16
ENDBRANCH   6   7
ENDBRANCH   5   6
ENDBRANCH   1   5
BRANCH   3  22
ATOM     22  C   UNL     1       2.427  -4.238  -0.260  0.00  0.00    +0.200 C 
BRANCH  22  23
ATOM     23  C   UNL     1       2.411  -2.736  -0.138  0.00  0.00    +0.234 C 
ATOM     24  O   UNL     1       3.454  -2.116  -0.144  0.00  0.00    -0.274 OA
ATOM     25  N   UNL     1       1.239  -2.082  -0.021  0.00  0.00    -0.282 N 
ATOM     26  H   UNL     1       0.411  -2.580   0.065  0.00  0.00    +0.155 HD
BRANCH  25  27
ATOM     27  C   UNL     1       1.215  -0.680  -0.024  0.00  0.00    +0.072 A 
ATOM     28  C   UNL     1       2.237   0.031  -0.638  0.00  0.00    +0.029 A 
ATOM     29  C   UNL     1       2.213   1.412  -0.641  0.00  0.00    +0.043 A 
ATOM     30  C   UNL     1       1.170   2.090  -0.033  0.00  0.00    +0.161 A 
ATOM     31  C   UNL     1       0.147   1.384   0.581  0.00  0.00    +0.195 A 
ATOM     32  C   UNL     1       0.168  -0.001   0.586  0.00  0.00    +0.182 A 
ATOM     33  F   UNL     1      -0.829  -0.690   1.184  0.00  0.00    -0.200 F 
ATOM     34  F   UNL     1      -0.873   2.047   1.169  0.00  0.00    -0.199 F 
ATOM     35  F   UNL     1       1.150   3.441  -0.037  0.00  0.00    -0.202 F 
ENDBRANCH  25  27
ENDBRANCH  22  23
ENDBRANCH   3  22
TORSDOF 7
