REMARK  Name = ZINC43041623
REMARK  6 active torsions:
REMARK  status: ('A' for Active; 'I' for Inactive)
REMARK    1  A    between atoms: C_1  and  C_2
REMARK    2  A    between atoms: C_7  and  N_12
REMARK    3  A    between atoms: C_9  and  C_11
REMARK    4  A    between atoms: C_18  and  C_21
REMARK    5  A    between atoms: N_23  and  C_24
REMARK    6  A    between atoms: N_23  and  C_25
REMARK                            x       y       z     vdW  Elec       q    Type
REMARK                         _______ _______ _______ _____ _____    ______ ____
ROOT
ATOM      1  N   UNL     1       1.549  -3.358   2.031  0.00  0.00    -0.296 N 
ATOM      2  C   UNL     1       2.119  -4.542   2.330  0.00  0.00    +0.302 C 
ATOM      3  O   UNL     1       1.991  -5.487   1.575  0.00  0.00    -0.253 OA
ATOM      4  N   UNL     1       2.830  -4.680   3.466  0.00  0.00    -0.286 N 
ATOM      5  C   UNL     1       3.552  -5.928   3.752  0.00  0.00    +0.110 C 
ATOM      6  C   UNL     1       5.016  -5.593   4.051  0.00  0.00    +0.032 C 
ATOM      7  C   UNL     1       5.079  -4.559   5.178  0.00  0.00    +0.078 C 
ATOM      8  C   UNL     1       4.372  -3.276   4.735  0.00  0.00    +0.032 C 
ATOM      9  C   UNL     1       2.905  -3.582   4.441  0.00  0.00    +0.110 C 
ATOM     10  H   UNL     1       1.591  -2.626   2.665  0.00  0.00    +0.151 HD
ENDROOT
BRANCH   1  16
ATOM     11  C   UNL     1       0.146  -0.022  -1.337  0.00  0.00    +0.008 C 
ATOM     12  C   UNL     1       0.148  -1.506  -0.965  0.00  0.00    -0.009 C 
ATOM     13  C   UNL     1      -1.293  -2.004  -0.848  0.00  0.00    +0.003 C 
ATOM     14  C   UNL     1      -1.291  -3.488  -0.475  0.00  0.00    +0.002 C 
ATOM     15  C   UNL     1      -0.577  -3.677   0.864  0.00  0.00    +0.022 C 
ATOM     16  C   UNL     1       0.865  -3.178   0.748  0.00  0.00    +0.078 C 
ATOM     17  C   UNL     1       0.863  -1.694   0.375  0.00  0.00    +0.009 C 
ATOM     18  C   UNL     1       0.133  -0.897   1.458  0.00  0.00    +0.009 C 
ENDBRANCH   1  16
BRANCH   7  19
ATOM     19  C   UNL     1       6.520  -4.253   5.498  0.00  0.00    +0.218 C 
ATOM     20  O   UNL     1       7.392  -4.547   4.709  0.00  0.00    -0.275 OA
ATOM     21  N   UNL     1       6.838  -3.651   6.662  0.00  0.00    -0.307 N 
ATOM     22  C   UNL     1       8.244  -3.449   7.021  0.00  0.00    +0.131 C 
ATOM     23  C   UNL     1       5.778  -3.199   7.567  0.00  0.00    +0.131 C 
ENDBRANCH   7  19
TORSDOF 2
