REMARK  Name = ZINC32862985
REMARK  7 active torsions:
REMARK  status: ('A' for Active; 'I' for Inactive)
REMARK    1  A    between atoms: C_1  and  C_2
REMARK    2  A    between atoms: C_2  and  C_4
REMARK    3  A    between atoms: C_2  and  N_14
REMARK    4  A    between atoms: C_7  and  S_10
REMARK    5  A    between atoms: S_10  and  N_13
REMARK    6  A    between atoms: N_20  and  C_23
REMARK    7  A    between atoms: C_23  and  C_24
REMARK                            x       y       z     vdW  Elec       q    Type
REMARK                         _______ _______ _______ _____ _____    ______ ____
ROOT
ATOM      1  N   UNL     1      -2.251   3.802   5.821  0.00  0.00    -0.293 N 
ATOM      2  C   UNL     1      -2.528   3.835   7.139  0.00  0.00    +0.303 C 
ATOM      3  O   UNL     1      -3.556   3.338   7.557  0.00  0.00    -0.253 OA
ATOM      4  N   UNL     1      -1.666   4.420   7.995  0.00  0.00    -0.283 N 
ATOM      5  C   UNL     1      -1.897   4.377   9.447  0.00  0.00    +0.124 C 
ATOM      6  C   UNL     1      -0.614   3.871  10.125  0.00  0.00    +0.104 C 
ATOM      7  N   UNL     1       0.519   4.705   9.701  0.00  0.00    -0.295 NA
ATOM      8  C   UNL     1       0.752   4.592   8.255  0.00  0.00    +0.104 C 
ATOM      9  C   UNL     1      -0.472   5.122   7.501  0.00  0.00    +0.124 C 
ATOM     10  H   UNL     1      -1.364   4.324   5.432  0.00  0.00    +0.151 HD
ENDROOT
BRANCH   1  12
ATOM     11  C   UNL     1      -4.295   3.972   4.489  0.00  0.00    +0.033 C 
ATOM     12  C   UNL     1      -3.131   3.071   4.906  0.00  0.00    +0.102 C 
BRANCH  12  13
ATOM     13  C   UNL     1      -2.352   2.658   3.683  0.00  0.00    -0.027 A 
ATOM     14  C   UNL     1      -2.556   1.411   3.122  0.00  0.00    +0.007 A 
ATOM     15  C   UNL     1      -1.842   1.033   2.000  0.00  0.00    +0.029 A 
ATOM     16  C   UNL     1      -0.924   1.901   1.440  0.00  0.00    +0.105 A 
ATOM     17  C   UNL     1      -0.717   3.146   2.004  0.00  0.00    +0.029 A 
ATOM     18  C   UNL     1      -1.434   3.526   3.123  0.00  0.00    +0.007 A 
BRANCH  16  19
ATOM     19  S   UNL     1      -0.014   1.419   0.010  0.00  0.00    +0.056 S 
ATOM     20  O   UNL     1       0.007  -0.002   0.003  0.00  0.00    -0.153 OA
ATOM     21  O   UNL     1       1.173   2.198   0.003  0.00  0.00    -0.153 OA
BRANCH  19  22
ATOM     22  N   UNL     1      -0.895   1.886  -1.312  0.00  0.00    -0.204 NA
ATOM     23  H   UNL     1      -0.359   1.601  -2.229  0.00  0.00    +0.144 HD
ATOM     24  H   UNL     1      -1.035   2.977  -1.292  0.00  0.00    +0.144 HD
ENDBRANCH  19  22
ENDBRANCH  16  19
ENDBRANCH  12  13
ENDBRANCH   1  12
BRANCH   7  25
ATOM     25  C   UNL     1       1.732   4.368  10.458  0.00  0.00    +0.127 C 
BRANCH  25  26
ATOM     26  C   UNL     1       1.395   4.255  11.922  0.00  0.00    +0.005 A 
ATOM     27  C   UNL     1       0.999   3.166  12.625  0.00  0.00    +0.014 A 
ATOM     28  C   UNL     1       0.742   3.297  13.977  0.00  0.00    +0.028 A 
ATOM     29  C   UNL     1       0.894   4.512  14.560  0.00  0.00    +0.078 A 
ATOM     30  S   UNL     1       1.422   5.519  13.183  0.00  0.00    -0.080 S 
ATOM     31 CL   UNL     1       0.647   4.969  16.216  0.00  0.00    -0.076 Cl
ENDBRANCH  25  26
ENDBRANCH   7  25
TORSDOF 6
