REMARK  Name = ZINC20682550
REMARK  7 active torsions:
REMARK  status: ('A' for Active; 'I' for Inactive)
REMARK    1  A    between atoms: C_4  and  C_7
REMARK    2  A    between atoms: C_7  and  C_8
REMARK    3  A    between atoms: C_8  and  C_9
REMARK    4  A    between atoms: N_11  and  C_12
REMARK    5  A    between atoms: C_25  and  C_28
REMARK    6  A    between atoms: C_31  and  O_35
REMARK    7  A    between atoms: C_33  and  O_34
REMARK                            x       y       z     vdW  Elec       q    Type
REMARK                         _______ _______ _______ _____ _____    ______ ____
ROOT
ATOM      1  C   UNL     1       1.251   3.662  -0.125  0.00  0.00    +0.034 A 
ATOM      2  C   UNL     1       0.855   4.992  -0.164  0.00  0.00    +0.025 A 
ATOM      3  C   UNL     1      -0.485   5.316  -0.115  0.00  0.00    +0.025 A 
ATOM      4  C   UNL     1      -1.447   4.318  -0.024  0.00  0.00    +0.031 A 
ATOM      5  C   UNL     1      -1.043   2.979   0.022  0.00  0.00    -0.018 A 
ATOM      6  C   UNL     1       0.296   2.659  -0.030  0.00  0.00    +0.029 A 
ATOM      7  C   UNL     1      -2.098   1.952   0.167  0.00  0.00    +0.049 C 
ATOM      8  C   UNL     1      -1.932   0.544  -0.304  0.00  0.00    -0.023 C 
ATOM      9  C   UNL     1      -3.108   0.076  -0.706  0.00  0.00    -0.030 C 
ATOM     10  C   UNL     1      -4.182   1.153  -0.545  0.00  0.00    +0.033 C 
ATOM     11  C   UNL     1      -3.346   2.437  -0.630  0.00  0.00    +0.029 C 
ATOM     12  C   UNL     1      -3.863   3.650   0.125  0.00  0.00    +0.108 C 
ATOM     13  N   UNL     1      -2.803   4.675   0.004  0.00  0.00    -0.336 N 
ATOM     14  H   UNL     1      -3.073   5.739  -0.067  0.00  0.00    +0.147 HD
ENDROOT
BRANCH  12  15
ATOM     15  C   UNL     1      -4.091   3.306   1.574  0.00  0.00    +0.015 A 
ATOM     16  C   UNL     1      -3.082   3.502   2.498  0.00  0.00    +0.012 A 
ATOM     17  C   UNL     1      -3.289   3.188   3.827  0.00  0.00    +0.046 A 
ATOM     18  C   UNL     1      -4.511   2.675   4.238  0.00  0.00    +0.120 A 
ATOM     19  C   UNL     1      -5.525   2.478   3.314  0.00  0.00    +0.091 A 
ATOM     20  C   UNL     1      -5.317   2.799   1.981  0.00  0.00    +0.125 A 
BRANCH  20  21
ATOM     21  O   UNL     1      -6.311   2.612   1.073  0.00  0.00    -0.506 OA
ATOM     22  H   UNL     1      -7.282   2.209   1.396  0.00  0.00    +0.292 HD
ENDBRANCH  20  21
BRANCH  18  23
ATOM     23  O   UNL     1      -4.714   2.366   5.546  0.00  0.00    -0.507 OA
ATOM     24  H   UNL     1      -5.683   1.960   5.871  0.00  0.00    +0.292 HD
ENDBRANCH  18  23
ENDBRANCH  12  15
BRANCH   1  27
ATOM     25  C   UNL     1       3.528   4.152   0.373  0.00  0.00    +0.218 C 
ATOM     26  O   UNL     1       3.169   5.124   1.003  0.00  0.00    -0.275 OA
ATOM     27  N   UNL     1       2.612   3.332  -0.181  0.00  0.00    -0.285 N 
ATOM     28  H   UNL     1       2.933   2.405  -0.678  0.00  0.00    +0.155 HD
BRANCH  25  29
ATOM     29  C   UNL     1       4.997   3.860   0.209  0.00  0.00    +0.101 C 
BRANCH  29  30
ATOM     30  C   UNL     1       5.814   4.935   0.929  0.00  0.00    +0.044 C 
BRANCH  30  34
ATOM     31  C   UNL     1       9.979   4.109   0.465  0.00  0.00    +0.000 A 
ATOM     32  C   UNL     1       9.324   4.899  -0.461  0.00  0.00    +0.000 A 
ATOM     33  C   UNL     1       7.976   5.166  -0.311  0.00  0.00    +0.003 A 
ATOM     34  C   UNL     1       7.283   4.644   0.765  0.00  0.00    -0.047 A 
ATOM     35  C   UNL     1       7.940   3.858   1.694  0.00  0.00    +0.003 A 
ATOM     36  C   UNL     1       9.287   3.587   1.542  0.00  0.00    +0.000 A 
ENDBRANCH  30  34
ENDBRANCH  29  30
ENDBRANCH  25  29
ENDBRANCH   1  27
TORSDOF 7
