REMARK  Name = ZINC59417551
REMARK  4 active torsions:
REMARK  status: ('A' for Active; 'I' for Inactive)
REMARK    1  A    between atoms: C_5  and  C_7
REMARK    2  A    between atoms: C_7  and  S_8
REMARK    3  A    between atoms: S_8  and  C_9
REMARK    4  A    between atoms: C_14  and  N_18
REMARK                            x       y       z     vdW  Elec       q    Type
REMARK                         _______ _______ _______ _____ _____    ______ ____
ROOT
ATOM      1  C   UNL     1       1.317  -4.535   1.504  0.00  0.00    +0.136 A 
ATOM      2  N   UNL     1       1.327  -5.251   0.402  0.00  0.00    -0.233 NA
ATOM      3  C   UNL     1       1.356  -6.602   0.415  0.00  0.00    +0.080 A 
ATOM      4  C   UNL     1       1.370  -7.485  -0.689  0.00  0.00    +0.031 A 
ATOM      5  C   UNL     1       1.399  -8.842  -0.499  0.00  0.00    +0.035 A 
ATOM      6  C   UNL     1       1.416  -9.396   0.772  0.00  0.00    +0.127 A 
ATOM      7  C   UNL     1       1.404  -8.562   1.875  0.00  0.00    +0.050 A 
ATOM      8  C   UNL     1       1.375  -7.202   1.695  0.00  0.00    +0.042 A 
ATOM      9  S   UNL     1       1.356  -5.791   2.775  0.00  0.00    -0.061 S 
ENDROOT
BRANCH   6  10
ATOM     10  N   UNL     1       1.447 -10.866   0.948  0.00  0.00    +0.056 N 
ATOM     11  O   UNL     1       1.457 -11.590  -0.021  0.00  0.00    -0.126 OA
ATOM     12  O   UNL     1       1.462 -11.342   2.059  0.00  0.00    -0.126 OA
ENDBRANCH   6  10
BRANCH   1  13
ATOM     13  S   UNL     1       1.280  -2.783   1.683  0.00  0.00    -0.093 S 
BRANCH  13  14
ATOM     14  C   UNL     1       1.250  -2.168  -0.023  0.00  0.00    +0.131 C 
BRANCH  14  19
ATOM     15  C   UNL     1      -0.017   1.382   0.010  0.00  0.00    +0.003 A 
ATOM     16  C   UNL     1       1.194   2.059   0.002  0.00  0.00    +0.020 A 
ATOM     17  C   UNL     1       2.370   1.334  -0.013  0.00  0.00    +0.111 A 
ATOM     18  N   UNL     1       2.350   0.015  -0.021  0.00  0.00    -0.259 NA
ATOM     19  C   UNL     1       1.218  -0.661  -0.014  0.00  0.00    +0.051 A 
ATOM     20  C   UNL     1       0.002  -0.004   0.002  0.00  0.00    +0.024 A 
ENDBRANCH  14  19
ENDBRANCH  13  14
ENDBRANCH   1  13
TORSDOF 4
