REMARK  Name = ZINC55589769
REMARK  4 active torsions:
REMARK  status: ('A' for Active; 'I' for Inactive)
REMARK    1  A    between atoms: C_3  and  N_12
REMARK    2  A    between atoms: C_5  and  N_7
REMARK    3  A    between atoms: N_12  and  S_13
REMARK    4  A    between atoms: S_13  and  C_16
REMARK                            x       y       z     vdW  Elec       q    Type
REMARK                         _______ _______ _______ _____ _____    ______ ____
ROOT
ATOM      1  S   UNL     1       3.554   3.787  -0.013  0.00  0.00    +0.094 S 
ATOM      2  O   UNL     1       2.985   4.190  -1.250  0.00  0.00    -0.148 OA
ATOM      3  O   UNL     1       3.009   4.178   1.240  0.00  0.00    -0.148 OA
ENDROOT
BRANCH   1   4
ATOM      4  C   UNL     1       5.229   4.335  -0.026  0.00  0.00    +0.146 A 
ATOM      5  C   UNL     1       5.715   5.042  -1.111  0.00  0.00    +0.037 A 
ATOM      6  C   UNL     1       7.026   5.473  -1.124  0.00  0.00    -0.024 A 
ATOM      7  C   UNL     1       7.859   5.198  -0.047  0.00  0.00    +0.039 A 
ATOM      8  C   UNL     1       7.371   4.489   1.041  0.00  0.00    +0.064 A 
ATOM      9  C   UNL     1       6.054   4.063   1.052  0.00  0.00    +0.152 A 
ATOM     10  F   UNL     1       5.575   3.377   2.113  0.00  0.00    -0.203 F 
ATOM     11  N   UNL     1       9.187   5.637  -0.061  0.00  0.00    -0.285 N 
ATOM     12  C   UNL     1       9.572   6.617  -0.899  0.00  0.00    +0.218 C 
ATOM     13  O   UNL     1      10.731   6.975  -0.909  0.00  0.00    -0.275 OA
ATOM     14  C   UNL     1       8.582   7.272  -1.824  0.00  0.00    +0.101 C 
ATOM     15  C   UNL     1       7.558   6.244  -2.305  0.00  0.00    +0.046 C 
ATOM     16  H   UNL     1       9.834   5.232   0.537  0.00  0.00    +0.155 HD
ENDBRANCH   1   4
BRANCH   1  17
ATOM     17  N   UNL     1       3.582   2.131  -0.021  0.00  0.00    -0.098 NA
BRANCH  17  20
ATOM     18  C   UNL     1      -0.017   1.377   0.010  0.00  0.00    +0.004 A 
ATOM     19  C   UNL     1       1.169   2.087   0.002  0.00  0.00    +0.027 A 
ATOM     20  C   UNL     1       2.384   1.413  -0.013  0.00  0.00    +0.076 A 
ATOM     21  C   UNL     1       2.405   0.025  -0.021  0.00  0.00    +0.054 A 
ATOM     22  C   UNL     1       1.213  -0.684  -0.013  0.00  0.00    +0.067 A 
ATOM     23  C   UNL     1       0.002  -0.004   0.002  0.00  0.00    +0.028 A 
BRANCH  22  24
ATOM     24  N   UNL     1       1.231  -2.086  -0.021  0.00  0.00    -0.240 N 
ATOM     25  C   UNL     1       0.148  -2.895  -0.021  0.00  0.00    +0.114 A 
ATOM     26  C   UNL     1       0.590  -4.174  -0.031  0.00  0.00    +0.041 A 
ATOM     27  C   UNL     1       1.989  -4.146  -0.038  0.00  0.00    +0.135 A 
ATOM     28  N   UNL     1       2.374  -2.896  -0.038  0.00  0.00    -0.175 NA
ENDBRANCH  22  24
ENDBRANCH  17  20
ENDBRANCH   1  17
TORSDOF 4
