REMARK  Name = ZINC25682616
REMARK  12 active torsions:
REMARK  status: ('A' for Active; 'I' for Inactive)
REMARK    1  A    between atoms: C_1  and  C_2
REMARK    2  A    between atoms: C_2  and  C_3
REMARK    3  A    between atoms: C_3  and  C_4
REMARK    4  A    between atoms: C_4  and  N_5
REMARK    5  A    between atoms: C_6  and  N_36
REMARK    6  A    between atoms: C_7  and  N_14
REMARK    7  A    between atoms: N_14  and  C_15
REMARK    8  A    between atoms: C_15  and  C_16
REMARK    9  A    between atoms: C_22  and  C_24
REMARK   10  A    between atoms: C_24  and  N_25
REMARK   11  A    between atoms: N_28  and  C_31
REMARK   12  A    between atoms: C_31  and  C_32
REMARK                            x       y       z     vdW  Elec       q    Type
REMARK                         _______ _______ _______ _____ _____    ______ ____
ROOT
ATOM      1  N   UNL     1       2.812   5.612  -0.727  0.00  0.00    -0.261 N 
ATOM      2  C   UNL     1       1.998   6.570  -0.235  0.00  0.00    +0.204 C 
ATOM      3  O   UNL     1       0.799   6.391  -0.207  0.00  0.00    -0.277 OA
ENDROOT
BRANCH   1   6
ATOM      4  N   UNL     1       2.040   2.021  -0.788  0.00  0.00    -0.280 N 
ATOM      5  C   UNL     1       2.573   3.224  -0.388  0.00  0.00    +0.127 A 
ATOM      6  C   UNL     1       2.280   4.363  -1.111  0.00  0.00    +0.140 A 
ATOM      7  C   UNL     1       1.444   4.257  -2.237  0.00  0.00    +0.277 A 
ATOM      8  O   UNL     1       1.169   5.247  -2.894  0.00  0.00    -0.266 OA
ATOM      9  N   UNL     1       0.947   3.054  -2.586  0.00  0.00    -0.273 N 
ATOM     10  H   UNL     1       0.296   2.962  -3.467  0.00  0.00    +0.173 HD
ATOM     11  C   UNL     1       1.238   1.955  -1.866  0.00  0.00    +0.331 A 
ATOM     12  O   UNL     1       0.773   0.883  -2.200  0.00  0.00    -0.246 OA
BRANCH   5  13
ATOM     13  N   UNL     1       3.387   3.292   0.717  0.00  0.00    -0.343 N 
ATOM     14  H   UNL     1       3.810   4.258   1.030  0.00  0.00    +0.144 HD
ATOM     15  H   UNL     1       3.616   2.380   1.288  0.00  0.00    +0.144 HD
ENDBRANCH   5  13
BRANCH   4  16
ATOM     16  C   UNL     1       2.341   0.804  -0.030  0.00  0.00    +0.128 C 
BRANCH  16  17
ATOM     17  C   UNL     1       1.292   0.614   1.069  0.00  0.00    +0.021 C 
BRANCH  17  19
ATOM     18  C   UNL     1       0.559  -0.846   2.958  0.00  0.00    +0.004 C 
ATOM     19  C   UNL     1       1.607  -0.657   1.860  0.00  0.00    -0.002 C 
ENDBRANCH  17  19
ENDBRANCH  16  17
ENDBRANCH   4  16
ENDBRANCH   1   6
BRANCH   1  20
ATOM     20  C   UNL     1       4.248   5.870  -0.863  0.00  0.00    +0.149 C 
BRANCH  20  21
ATOM     21  C   UNL     1       4.549   6.303  -2.275  0.00  0.00    -0.030 A 
ATOM     22  C   UNL     1       4.765   5.354  -3.257  0.00  0.00    +0.005 A 
ATOM     23  C   UNL     1       5.036   5.751  -4.553  0.00  0.00    +0.000 A 
ATOM     24  C   UNL     1       5.103   7.096  -4.865  0.00  0.00    +0.000 A 
ATOM     25  C   UNL     1       4.892   8.044  -3.881  0.00  0.00    +0.000 A 
ATOM     26  C   UNL     1       4.615   7.648  -2.587  0.00  0.00    +0.005 A 
ENDBRANCH  20  21
ENDBRANCH   1  20
BRANCH   2  27
ATOM     27  C   UNL     1       2.579   7.861   0.280  0.00  0.00    +0.019 C 
BRANCH  27  28
ATOM     28  N   UNL     1       1.495   8.730   0.758  0.00  0.00    +0.387 N 
ATOM     29  C   UNL     1       0.633   9.156  -0.353  0.00  0.00    -0.063 C 
ATOM     30  C   UNL     1      -0.526   9.991   0.196  0.00  0.00    +0.066 C 
ATOM     31  N   UNL     1       0.010  11.153   0.919  0.00  0.00    -0.298 NA
ATOM     32  C   UNL     1       0.872  10.726   2.030  0.00  0.00    +0.066 C 
ATOM     33  C   UNL     1       2.031   9.891   1.482  0.00  0.00    -0.063 C 
ATOM     34  H   UNL     1       0.881   8.146   1.460  0.00  0.00    -0.081 HD
BRANCH  31  35
ATOM     35  C   UNL     1      -1.074  12.021   1.398  0.00  0.00    +0.198 C 
BRANCH  35  36
ATOM     36  C   UNL     1      -0.518  13.416   1.693  0.00  0.00    +0.402 C 
ATOM     37  F   UNL     1       0.155  13.898   0.565  0.00  0.00    -0.169 F 
ATOM     38  F   UNL     1      -1.571  14.280   2.013  0.00  0.00    -0.169 F 
ATOM     39  F   UNL     1       0.371  13.345   2.771  0.00  0.00    -0.169 F 
ENDBRANCH  35  36
ENDBRANCH  31  35
ENDBRANCH  27  28
ENDBRANCH   2  27
TORSDOF 11
