REMARK  Name = ZINC58012933
REMARK  11 active torsions:
REMARK  status: ('A' for Active; 'I' for Inactive)
REMARK    1  A    between atoms: C_1  and  C_2
REMARK    2  A    between atoms: C_5  and  C_33
REMARK    3  A    between atoms: C_6  and  O_9
REMARK    4  A    between atoms: C_7  and  C_8
REMARK    5  A    between atoms: O_9  and  C_10
REMARK    6  A    between atoms: C_10  and  C_11
REMARK    7  A    between atoms: C_11  and  C_13
REMARK    8  A    between atoms: C_11  and  O_32
REMARK    9  A    between atoms: C_13  and  N_14
REMARK   10  A    between atoms: C_17  and  C_21
REMARK   11  A    between atoms: C_17  and  C_22
REMARK                            x       y       z     vdW  Elec       q    Type
REMARK                         _______ _______ _______ _____ _____    ______ ____
ROOT
ATOM      1  N   UNL     1       2.333  -4.819   6.131  0.00  0.00    -0.221 N 
ATOM      2  C   UNL     1       2.130  -4.237   7.329  0.00  0.00    +0.251 C 
ATOM      3  O   UNL     1       2.062  -3.050   7.565  0.00  0.00    -0.272 OA
ATOM      4  C   UNL     1       2.004  -5.376   8.322  0.00  0.00    +0.135 C 
ATOM      5  N   UNL     1       2.166  -6.580   7.489  0.00  0.00    -0.281 N 
ATOM      6  C   UNL     1       2.348  -6.153   6.226  0.00  0.00    +0.310 C 
ATOM      7  O   UNL     1       2.511  -6.897   5.279  0.00  0.00    -0.252 OA
ATOM      8  C   UNL     1       3.111  -5.296   9.375  0.00  0.00    +0.047 C 
ATOM      9  H   UNL     1       2.143  -7.501   7.792  0.00  0.00    +0.152 HD
ENDROOT
BRANCH   4  10
ATOM     10  C   UNL     1       0.646  -5.362   8.976  0.00  0.00    -0.012 A 
ATOM     11  C   UNL     1      -0.025  -4.165   9.147  0.00  0.00    +0.010 A 
ATOM     12  C   UNL     1      -1.270  -4.148   9.747  0.00  0.00    +0.050 A 
ATOM     13  C   UNL     1      -1.849  -5.332  10.179  0.00  0.00    +0.162 A 
ATOM     14  C   UNL     1      -1.175  -6.535  10.005  0.00  0.00    +0.162 A 
ATOM     15  C   UNL     1       0.072  -6.546   9.398  0.00  0.00    +0.055 A 
ATOM     16  O   UNL     1      -1.729  -7.709  10.414  0.00  0.00    -0.485 OA
ATOM     17  C   UNL     1      -2.813  -7.619  11.345  0.00  0.00    +0.270 C 
ATOM     18  C   UNL     1      -3.784  -6.540  10.850  0.00  0.00    +0.270 C 
ATOM     19  O   UNL     1      -3.074  -5.299  10.772  0.00  0.00    -0.485 OA
ENDBRANCH   4  10
BRANCH   1  20
ATOM     20  C   UNL     1       2.510  -4.081   4.877  0.00  0.00    +0.152 C 
BRANCH  20  21
ATOM     21  C   UNL     1       1.146  -3.857   4.221  0.00  0.00    +0.170 C 
BRANCH  21  22
ATOM     22  O   UNL     1       0.534  -5.119   3.949  0.00  0.00    -0.387 OA
ATOM     23  H   UNL     1       1.047  -5.685   3.356  0.00  0.00    +0.210 HD
ENDBRANCH  21  22
BRANCH  21  24
ATOM     24  C   UNL     1       1.330  -3.087   2.912  0.00  0.00    +0.262 C 
BRANCH  24  25
ATOM     25  O   UNL     1       0.050  -2.776   2.358  0.00  0.00    -0.489 OA
BRANCH  25  31
ATOM     26  C   UNL     1      -0.018   1.503   0.010  0.00  0.00    +0.044 C 
ATOM     27  C   UNL     1       0.002  -0.004   0.002  0.00  0.00    -0.044 A 
ATOM     28  C   UNL     1       0.006  -0.688  -1.200  0.00  0.00    +0.004 A 
ATOM     29  C   UNL     1       0.024  -2.071  -1.211  0.00  0.00    +0.007 A 
ATOM     30  C   UNL     1       0.039  -2.772  -0.020  0.00  0.00    -0.009 A 
ATOM     31  C   UNL     1       0.035  -2.088   1.186  0.00  0.00    +0.127 A 
ATOM     32  C   UNL     1       0.023  -0.700   1.195  0.00  0.00    -0.006 A 
ATOM     33  C   UNL     1       0.026   0.046   2.504  0.00  0.00    +0.048 C 
ATOM     34  C   UNL     1       0.059  -4.279  -0.033  0.00  0.00    +0.047 C 
ENDBRANCH  25  31
ENDBRANCH  24  25
ENDBRANCH  21  24
ENDBRANCH  20  21
ENDBRANCH   1  20
TORSDOF 7
