REMARK  Name = ZINC13037456
REMARK  8 active torsions:
REMARK  status: ('A' for Active; 'I' for Inactive)
REMARK    1  A    between atoms: C_1  and  N_2
REMARK    2  A    between atoms: N_2  and  C_3
REMARK    3  A    between atoms: N_2  and  C_4
REMARK    4  A    between atoms: C_7  and  C_10
REMARK    5  A    between atoms: C_10  and  N_11
REMARK    6  A    between atoms: N_11  and  C_12
REMARK    7  A    between atoms: N_15  and  C_20
REMARK    8  A    between atoms: C_23  and  C_26
REMARK                            x       y       z     vdW  Elec       q    Type
REMARK                         _______ _______ _______ _____ _____    ______ ____
ROOT
ATOM      1  C   UNL     1      -7.374   5.217   0.089  0.00  0.00    +0.071 A 
ATOM      2  C   UNL     1      -7.319   3.812  -0.041  0.00  0.00    +0.158 A 
ATOM      3  N   UNL     1      -6.171   3.194  -0.044  0.00  0.00    -0.170 NA
ATOM      4  N   UNL     1      -4.971   3.901   0.081  0.00  0.00    -0.195 N 
ATOM      5  C   UNL     1      -4.977   5.242   0.213  0.00  0.00    +0.292 A 
ATOM      6  O   UNL     1      -3.925   5.853   0.327  0.00  0.00    -0.264 OA
ATOM      7  C   UNL     1      -6.197   5.933   0.214  0.00  0.00    +0.129 A 
ATOM      8 CL   UNL     1      -6.231   7.661   0.376  0.00  0.00    -0.076 Cl
ENDROOT
BRANCH   4   9
ATOM      9  C   UNL     1      -3.758   3.212   0.075  0.00  0.00    +0.069 A 
ATOM     10  C   UNL     1      -3.503   2.264  -0.911  0.00  0.00    +0.029 A 
ATOM     11  C   UNL     1      -2.307   1.582  -0.920  0.00  0.00    +0.017 A 
ATOM     12  C   UNL     1      -1.348   1.843   0.063  0.00  0.00    +0.063 A 
ATOM     13  C   UNL     1      -1.609   2.792   1.055  0.00  0.00    +0.017 A 
ATOM     14  C   UNL     1      -2.805   3.474   1.055  0.00  0.00    +0.029 A 
BRANCH  12  15
ATOM     15  C   UNL     1      -0.065   1.114   0.056  0.00  0.00    +0.387 C 
ATOM     16  O   UNL     1       0.158   0.285  -0.804  0.00  0.00    -0.241 OA
ATOM     17  O   UNL     1       0.860   1.371   1.001  0.00  0.00    -0.241 OA
ENDBRANCH  12  15
ENDBRANCH   4   9
BRANCH   1  18
ATOM     18  N   UNL     1      -8.594   5.871   0.092  0.00  0.00    -0.337 N 
ATOM     19  H   UNL     1      -8.627   6.837   0.182  0.00  0.00    +0.146 HD
BRANCH  18  20
ATOM     20  C   UNL     1      -9.836   5.106  -0.042  0.00  0.00    +0.137 C 
BRANCH  20  24
ATOM     21  C   UNL     1     -13.172   7.777   0.049  0.00  0.00    +0.029 A 
ATOM     22  C   UNL     1     -12.570   7.455  -1.161  0.00  0.00    +0.023 A 
ATOM     23  C   UNL     1     -11.493   6.592  -1.187  0.00  0.00    +0.007 A 
ATOM     24  C   UNL     1     -11.013   6.048  -0.010  0.00  0.00    -0.030 A 
ATOM     25  C   UNL     1     -11.613   6.361   1.196  0.00  0.00    +0.007 A 
ATOM     26  C   UNL     1     -12.687   7.228   1.229  0.00  0.00    +0.023 A 
BRANCH  21  28
ATOM     27  C   UNL     1     -14.850   9.129  -1.175  0.00  0.00    +0.129 C 
ATOM     28  N   UNL     1     -14.262   8.650   0.078  0.00  0.00    -0.336 N 
ATOM     29  C   UNL     1     -14.816   9.086   1.362  0.00  0.00    +0.129 C 
ENDBRANCH  21  28
ENDBRANCH  20  24
ENDBRANCH  18  20
ENDBRANCH   1  18
TORSDOF 6
