REMARK  Name = ZINC09126311
REMARK  7 active torsions:
REMARK  status: ('A' for Active; 'I' for Inactive)
REMARK    1  A    between atoms: C_1  and  O_2
REMARK    2  A    between atoms: O_2  and  C_3
REMARK    3  A    between atoms: C_8  and  O_9
REMARK    4  A    between atoms: O_9  and  C_10
REMARK    5  A    between atoms: C_11  and  C_29
REMARK    6  A    between atoms: N_13  and  S_16
REMARK    7  A    between atoms: S_16  and  C_19
REMARK                            x       y       z     vdW  Elec       q    Type
REMARK                         _______ _______ _______ _____ _____    ______ ____
ROOT
ATOM      1  C   UNL     1      -0.787   2.893   1.346  0.00  0.00    +0.162 A 
ATOM      2  C   UNL     1      -0.256   3.751   0.401  0.00  0.00    +0.053 A 
ATOM      3  C   UNL     1      -0.362   5.128   0.556  0.00  0.00    -0.037 A 
ATOM      4  C   UNL     1      -1.000   5.641   1.663  0.00  0.00    -0.017 A 
ATOM      5  C   UNL     1      -1.531   4.784   2.618  0.00  0.00    +0.055 A 
ATOM      6  C   UNL     1      -1.426   3.413   2.468  0.00  0.00    +0.162 A 
ATOM      7  C   UNL     1      -1.161   7.125   1.886  0.00  0.00    +0.147 C 
ATOM      8  N   UNL     1      -0.326   7.861   0.931  0.00  0.00    -0.164 NA
ATOM      9  C   UNL     1      -0.339   7.406  -0.469  0.00  0.00    +0.115 C 
ATOM     10  C   UNL     1       0.251   5.997  -0.510  0.00  0.00    +0.052 C 
ENDROOT
BRANCH   7  11
ATOM     11  C   UNL     1      -2.605   7.508   1.687  0.00  0.00    +0.013 A 
ATOM     12  C   UNL     1      -3.566   7.728   2.618  0.00  0.00    +0.013 A 
ATOM     13  C   UNL     1      -4.837   8.074   2.200  0.00  0.00    +0.008 A 
ATOM     14  C   UNL     1      -5.086   8.182   0.872  0.00  0.00    +0.045 A 
ATOM     15  S   UNL     1      -3.493   7.796   0.165  0.00  0.00    -0.100 S 
ENDBRANCH   7  11
BRANCH   8  16
ATOM     16  S   UNL     1       0.593   9.153   1.408  0.00  0.00    +0.058 S 
ATOM     17  O   UNL     1       0.807   9.949   0.251  0.00  0.00    -0.153 OA
ATOM     18  O   UNL     1      -0.011   9.668   2.587  0.00  0.00    -0.153 OA
BRANCH  16  19
ATOM     19  C   UNL     1       2.169   8.524   1.884  0.00  0.00    +0.084 C 
ATOM     20  C   UNL     1       2.478   8.447   3.169  0.00  0.00    +0.032 C 
ATOM     21  C   UNL     1       3.808   7.951   3.574  0.00  0.00    -0.020 A 
ATOM     22  C   UNL     1       4.044   7.512   4.875  0.00  0.00    +0.008 A 
ATOM     23  C   UNL     1       5.294   7.038   5.220  0.00  0.00    +0.001 A 
ATOM     24  C   UNL     1       6.308   7.001   4.279  0.00  0.00    +0.000 A 
ATOM     25  C   UNL     1       6.080   7.441   2.987  0.00  0.00    +0.004 A 
ATOM     26  C   UNL     1       4.837   7.921   2.632  0.00  0.00    -0.040 A 
ATOM     27  C   UNL     1       4.575   8.416   1.234  0.00  0.00    +0.042 C 
ATOM     28  C   UNL     1       3.142   8.088   0.824  0.00  0.00    +0.061 C 
ENDBRANCH  16  19
ENDBRANCH   8  16
BRANCH   1  30
ATOM     29  C   UNL     1      -0.013   1.086   0.008  0.00  0.00    +0.277 C 
ATOM     30  O   UNL     1      -0.682   1.547   1.184  0.00  0.00    -0.491 OA
ENDBRANCH   1  30
BRANCH   6  31
ATOM     31  O   UNL     1      -1.945   2.580   3.409  0.00  0.00    -0.491 OA
ATOM     32  C   UNL     1      -2.586   3.188   4.532  0.00  0.00    +0.277 C 
ENDBRANCH   6  31
TORSDOF 5
