REMARK  Name = ZINC60477858
REMARK  5 active torsions:
REMARK  status: ('A' for Active; 'I' for Inactive)
REMARK    1  A    between atoms: C_3  and  C_7
REMARK    2  A    between atoms: N_11  and  C_12
REMARK    3  A    between atoms: C_12  and  C_13
REMARK    4  A    between atoms: N_17  and  C_18
REMARK    5  A    between atoms: C_23  and  C_24
REMARK                            x       y       z     vdW  Elec       q    Type
REMARK                         _______ _______ _______ _____ _____    ______ ____
ROOT
ATOM      1  C   UNL     1       4.830  -1.467  -2.807  0.00  0.00    +0.140 A 
ATOM      2  N   UNL     1       6.048  -1.891  -3.018  0.00  0.00    -0.115 NA
ATOM      3  N   UNL     1       6.042  -2.930  -3.773  0.00  0.00    -0.023 NA
ATOM      4  N   UNL     1       4.832  -3.240  -4.094  0.00  0.00    -0.039 NA
ATOM      5  N   UNL     1       3.996  -2.297  -3.469  0.00  0.00    -0.198 N 
ENDROOT
BRANCH   5   6
ATOM      6  C   UNL     1       2.596  -2.232  -3.525  0.00  0.00    +0.081 A 
ATOM      7  C   UNL     1       1.969  -1.062  -3.931  0.00  0.00    +0.030 A 
ATOM      8  C   UNL     1       0.591  -1.000  -3.985  0.00  0.00    +0.022 A 
ATOM      9  C   UNL     1      -0.166  -2.104  -3.634  0.00  0.00    +0.042 A 
ATOM     10  C   UNL     1       0.455  -3.272  -3.228  0.00  0.00    +0.034 A 
ATOM     11  C   UNL     1       1.834  -3.340  -3.178  0.00  0.00    +0.082 A 
ATOM     12 CL   UNL     1      -1.899  -2.023  -3.702  0.00  0.00    -0.084 Cl
BRANCH  11  13
ATOM     13  C   UNL     1       2.511  -4.614  -2.742  0.00  0.00    +0.419 C 
ATOM     14  F   UNL     1       1.542  -5.579  -2.447  0.00  0.00    -0.166 F 
ATOM     15  F   UNL     1       3.336  -5.080  -3.771  0.00  0.00    -0.166 F 
ATOM     16  F   UNL     1       3.283  -4.365  -1.602  0.00  0.00    -0.166 F 
ENDBRANCH  11  13
ENDBRANCH   5   6
BRANCH   1  17
ATOM     17  C   UNL     1       4.430  -0.276  -1.974  0.00  0.00    +0.002 C 
BRANCH  17  22
ATOM     18  C   UNL     1       3.586   0.424   0.171  0.00  0.00    -0.020 C 
ATOM     19  C   UNL     1       4.127   0.191   1.604  0.00  0.00    -0.011 C 
ATOM     20  C   UNL     1       5.533  -0.398   1.316  0.00  0.00    -0.020 C 
ATOM     21  C   UNL     1       5.301  -1.246   0.048  0.00  0.00    -0.077 C 
ATOM     22  N   UNL     1       4.094  -0.720  -0.615  0.00  0.00    +0.390 N 
ATOM     23  H   UNL     1       3.389  -1.441  -0.659  0.00  0.00    -0.080 HD
BRANCH  18  26
ATOM     24  C   UNL     1      -0.044   1.086   0.228  0.00  0.00    +0.019 A 
ATOM     25  C   UNL     1       1.294   1.525   0.261  0.00  0.00    +0.021 A 
ATOM     26  C   UNL     1       2.079   0.432   0.174  0.00  0.00    +0.002 A 
ATOM     27  N   UNL     1       1.274  -0.665   0.088  0.00  0.00    -0.366 N 
ATOM     28  H   UNL     1       1.577  -1.584   0.015  0.00  0.00    +0.165 HD
ATOM     29  C   UNL     1      -0.026  -0.258   0.122  0.00  0.00    +0.082 A 
ENDBRANCH  18  26
ENDBRANCH  17  22
ENDBRANCH   1  17
TORSDOF 5
