REMARK  Name = ZINC63027973
REMARK  10 active torsions:
REMARK  status: ('A' for Active; 'I' for Inactive)
REMARK    1  A    between atoms: C_1  and  C_2
REMARK    2  A    between atoms: C_2  and  C_4
REMARK    3  A    between atoms: C_2  and  N_22
REMARK    4  A    between atoms: C_4  and  C_6
REMARK    5  A    between atoms: C_4  and  C_19
REMARK    6  A    between atoms: C_11  and  S_12
REMARK    7  A    between atoms: S_12  and  C_15
REMARK    8  A    between atoms: C_19  and  C_20
REMARK    9  A    between atoms: C_19  and  C_21
REMARK   10  A    between atoms: N_22  and  C_23
REMARK                            x       y       z     vdW  Elec       q    Type
REMARK                         _______ _______ _______ _____ _____    ______ ____
ROOT
ATOM      1  C   UNL     1       0.085  -0.453   3.985  0.00  0.00    -0.020 A 
ATOM      2  C   UNL     1      -0.725  -1.115   4.889  0.00  0.00    +0.006 A 
ATOM      3  C   UNL     1      -0.822  -0.660   6.190  0.00  0.00    +0.000 A 
ATOM      4  C   UNL     1      -0.110   0.456   6.588  0.00  0.00    +0.002 A 
ATOM      5  C   UNL     1       0.700   1.117   5.685  0.00  0.00    +0.027 A 
ATOM      6  C   UNL     1       0.801   0.660   4.384  0.00  0.00    +0.101 A 
ENDROOT
BRANCH   6   7
ATOM      7  S   UNL     1       1.839   1.499   3.234  0.00  0.00    +0.091 S 
ATOM      8  O   UNL     1       1.076   1.565   2.037  0.00  0.00    -0.161 OA
ATOM      9  O   UNL     1       2.238   2.687   3.904  0.00  0.00    -0.161 OA
BRANCH   7  10
ATOM     10  C   UNL     1       3.266   0.402   3.006  0.00  0.00    +0.526 C 
ATOM     11  F   UNL     1       3.037  -0.439   1.911  0.00  0.00    -0.150 F 
ATOM     12  F   UNL     1       4.412   1.169   2.773  0.00  0.00    -0.150 F 
ATOM     13  F   UNL     1       3.448  -0.371   4.157  0.00  0.00    -0.150 F 
ENDBRANCH   7  10
ENDBRANCH   6   7
BRANCH   1  14
ATOM     14  C   UNL     1       0.192  -0.948   2.565  0.00  0.00    +0.009 C 
BRANCH  14  15
ATOM     15  C   UNL     1       0.686  -2.396   2.566  0.00  0.00    -0.011 C 
ATOM     16  C   UNL     1       1.990  -2.490   3.361  0.00  0.00    +0.008 C 
ATOM     17  C   UNL     1      -0.370  -3.295   3.212  0.00  0.00    +0.008 C 
ENDBRANCH  14  15
BRANCH  14  19
ATOM     18  C   UNL     1      -1.681   0.568   1.905  0.00  0.00    -0.013 C 
ATOM     19  C   UNL     1      -1.182  -0.878   1.896  0.00  0.00    -0.068 C 
BRANCH  19  20
ATOM     20  N   UNL     1      -1.076  -1.351   0.509  0.00  0.00    +0.379 N 
ATOM     21  C   UNL     1      -2.416  -1.420  -0.088  0.00  0.00    -0.100 C 
ATOM     22  H   UNL     1      -0.503  -0.712  -0.021  0.00  0.00    -0.086 HD
ATOM     23  H   UNL     1      -0.655  -2.268   0.498  0.00  0.00    -0.086 HD
ENDBRANCH  19  20
ENDBRANCH  14  19
ENDBRANCH   1  14
TORSDOF 6
