REMARK  Name = ZINC44960658
REMARK  12 active torsions:
REMARK  status: ('A' for Active; 'I' for Inactive)
REMARK    1  A    between atoms: C_1  and  C_2
REMARK    2  A    between atoms: C_2  and  C_3
REMARK    3  A    between atoms: C_8  and  N_9
REMARK    4  A    between atoms: C_10  and  C_30
REMARK    5  A    between atoms: C_12  and  C_14
REMARK    6  A    between atoms: N_16  and  C_17
REMARK    7  A    between atoms: C_17  and  C_19
REMARK    8  A    between atoms: C_17  and  C_20
REMARK    9  A    between atoms: N_22  and  C_23
REMARK   10  A    between atoms: C_23  and  C_24
REMARK   11  A    between atoms: C_33  and  S_36
REMARK   12  A    between atoms: S_36  and  C_37
REMARK                            x       y       z     vdW  Elec       q    Type
REMARK                         _______ _______ _______ _____ _____    ______ ____
ROOT
ATOM      1  N   UNL     1      -1.621  -0.433  -2.517  0.00  0.00    -0.231 N 
ATOM      2  C   UNL     1      -2.394  -0.149  -3.607  0.00  0.00    +0.075 A 
ATOM      3  C   UNL     1      -1.592   0.505  -4.500  0.00  0.00    +0.063 A 
ATOM      4  C   UNL     1      -0.326   0.585  -3.881  0.00  0.00    +0.148 A 
ATOM      5  N   UNL     1      -0.428   0.007  -2.699  0.00  0.00    -0.161 NA
ENDROOT
BRANCH   1  11
ATOM      6  C   UNL     1      -1.960  -0.492  -0.125  0.00  0.00    -0.022 A 
ATOM      7  C   UNL     1      -2.404  -1.151   1.004  0.00  0.00    +0.006 A 
ATOM      8  C   UNL     1      -2.945  -2.419   0.899  0.00  0.00    +0.000 A 
ATOM      9  C   UNL     1      -3.045  -3.031  -0.337  0.00  0.00    +0.002 A 
ATOM     10  C   UNL     1      -2.603  -2.377  -1.470  0.00  0.00    +0.028 A 
ATOM     11  C   UNL     1      -2.064  -1.101  -1.369  0.00  0.00    +0.069 A 
BRANCH   6  13
ATOM     12  C   UNL     1      -2.431   1.930  -0.374  0.00  0.00    +0.009 C 
ATOM     13  C   UNL     1      -1.369   0.890  -0.010  0.00  0.00    +0.034 C 
ENDBRANCH   6  13
ENDBRANCH   1  11
BRANCH   2  14
ATOM     14  C   UNL     1      -3.824  -0.483  -3.785  0.00  0.00    +0.001 A 
ATOM     15  C   UNL     1      -4.635  -0.705  -2.671  0.00  0.00    +0.011 A 
ATOM     16  C   UNL     1      -5.966  -1.016  -2.840  0.00  0.00    +0.015 A 
ATOM     17  C   UNL     1      -6.503  -1.109  -4.120  0.00  0.00    +0.008 A 
ATOM     18  C   UNL     1      -5.697  -0.890  -5.232  0.00  0.00    +0.015 A 
ATOM     19  C   UNL     1      -4.366  -0.573  -5.069  0.00  0.00    +0.011 A 
BRANCH  17  20
ATOM     20  S   UNL     1      -8.206  -1.508  -4.332  0.00  0.00    -0.129 S 
ATOM     21  C   UNL     1      -8.434  -1.514  -6.132  0.00  0.00    +0.090 C 
ENDBRANCH  17  20
ENDBRANCH   2  14
BRANCH   4  22
ATOM     22  C   UNL     1       0.888   1.206  -4.448  0.00  0.00    +0.265 C 
ATOM     23  O   UNL     1       0.852   1.713  -5.553  0.00  0.00    -0.268 OA
ATOM     24  N   UNL     1       2.036   1.211  -3.742  0.00  0.00    -0.299 N 
ATOM     25  H   UNL     1       2.065   0.806  -2.861  0.00  0.00    +0.150 HD
BRANCH  24  26
ATOM     26  C   UNL     1       3.240   1.827  -4.305  0.00  0.00    +0.156 C 
ATOM     27  C   UNL     1       3.963   0.814  -5.195  0.00  0.00    +0.038 C 
BRANCH  26  28
ATOM     28  C   UNL     1       4.154   2.256  -3.187  0.00  0.00    +0.233 C 
ATOM     29  O   UNL     1       3.832   2.067  -2.033  0.00  0.00    -0.274 OA
ATOM     30  N   UNL     1       5.330   2.852  -3.469  0.00  0.00    -0.314 N 
ATOM     31  H   UNL     1       5.588   3.004  -4.392  0.00  0.00    +0.149 HD
BRANCH  30  32
ATOM     32  C   UNL     1       6.219   3.269  -2.382  0.00  0.00    +0.107 C 
BRANCH  32  33
ATOM     33  C   UNL     1       7.476   3.913  -2.970  0.00  0.00    +0.006 C 
ATOM     34  C   UNL     1       8.265   2.865  -3.758  0.00  0.00    +0.005 C 
ATOM     35  C   UNL     1       9.522   3.508  -4.346  0.00  0.00    +0.000 C 
ATOM     36  C   UNL     1      10.393   4.056  -3.213  0.00  0.00    +0.000 C 
ATOM     37  C   UNL     1       9.604   5.104  -2.425  0.00  0.00    +0.000 C 
ATOM     38  C   UNL     1       8.347   4.460  -1.837  0.00  0.00    +0.005 C 
ENDBRANCH  32  33
ENDBRANCH  30  32
ENDBRANCH  26  28
ENDBRANCH  24  26
ENDBRANCH   4  22
TORSDOF 9
