REMARK  Name = ZINC12313198
REMARK  7 active torsions:
REMARK  status: ('A' for Active; 'I' for Inactive)
REMARK    1  A    between atoms: C_1  and  C_2
REMARK    2  A    between atoms: C_7  and  N_8
REMARK    3  A    between atoms: C_9  and  N_16
REMARK    4  A    between atoms: C_17  and  C_19
REMARK    5  A    between atoms: C_24  and  C_27
REMARK    6  A    between atoms: C_27  and  O_29
REMARK    7  A    between atoms: O_29  and  C_30
REMARK                            x       y       z     vdW  Elec       q    Type
REMARK                         _______ _______ _______ _____ _____    ______ ____
ROOT
ATOM      1  N   UNL     1       0.601   1.484  -3.202  0.00  0.00    -0.262 N 
ATOM      2  C   UNL     1       0.702   1.759  -4.517  0.00  0.00    +0.304 C 
ATOM      3  O   UNL     1      -0.177   2.382  -5.076  0.00  0.00    -0.265 OA
ATOM      4  H   UNL     1       1.337   1.055  -2.738  0.00  0.00    +0.157 HD
ENDROOT
BRANCH   1   6
ATOM      5  N   UNL     1      -0.653   2.084  -1.182  0.00  0.00    -0.218 N 
ATOM      6  C   UNL     1      -0.560   1.815  -2.509  0.00  0.00    +0.133 A 
ATOM      7  C   UNL     1      -1.823   1.929  -3.045  0.00  0.00    +0.026 A 
ATOM      8  C   UNL     1      -2.689   2.272  -2.021  0.00  0.00    +0.079 A 
ATOM      9  N   UNL     1      -1.990   2.366  -0.899  0.00  0.00    -0.168 NA
ATOM     10  C   UNL     1      -4.159   2.452  -2.395  0.00  0.00    +0.127 C 
ATOM     11  S   UNL     1      -4.228   1.649  -4.050  0.00  0.00    -0.150 S 
ATOM     12  C   UNL     1      -2.433   1.767  -4.436  0.00  0.00    +0.110 C 
BRANCH   5  19
ATOM     13  C   UNL     1      -0.344   4.341   0.524  0.00  0.00    +0.046 C 
ATOM     14  C   UNL     1       0.590   3.160   0.589  0.00  0.00    -0.025 A 
ATOM     15  C   UNL     1       1.630   3.151   1.498  0.00  0.00    +0.005 A 
ATOM     16  C   UNL     1       2.492   2.071   1.554  0.00  0.00    +0.000 A 
ATOM     17  C   UNL     1       2.312   0.995   0.704  0.00  0.00    +0.002 A 
ATOM     18  C   UNL     1       1.271   0.996  -0.204  0.00  0.00    +0.028 A 
ATOM     19  C   UNL     1       0.404   2.079  -0.262  0.00  0.00    +0.070 A 
ENDBRANCH   5  19
ENDBRANCH   1   6
BRANCH   2  20
ATOM     20  C   UNL     1       1.895   1.297  -5.287  0.00  0.00    +0.302 C 
ATOM     21  O   UNL     1       1.944   0.159  -5.704  0.00  0.00    -0.265 OA
ATOM     22  N   UNL     1       2.917   2.144  -5.518  0.00  0.00    -0.294 N 
ATOM     23  C   UNL     1       2.920   3.491  -4.931  0.00  0.00    +0.109 C 
ATOM     24  C   UNL     1       3.125   4.518  -6.043  0.00  0.00    +0.033 C 
ATOM     25  C   UNL     1       4.392   4.172  -6.828  0.00  0.00    +0.101 C 
ATOM     26  C   UNL     1       4.236   2.790  -7.467  0.00  0.00    +0.033 C 
ATOM     27  C   UNL     1       4.047   1.741  -6.366  0.00  0.00    +0.109 C 
BRANCH  25  28
ATOM     28  C   UNL     1       4.612   5.201  -7.906  0.00  0.00    +0.310 C 
ATOM     29  O   UNL     1       4.641   4.865  -9.066  0.00  0.00    -0.251 OA
BRANCH  28  30
ATOM     30  O   UNL     1       4.776   6.492  -7.577  0.00  0.00    -0.468 OA
ATOM     31  C   UNL     1       4.983   7.429  -8.668  0.00  0.00    +0.280 C 
ENDBRANCH  28  30
ENDBRANCH  25  28
ENDBRANCH   2  20
TORSDOF 5
