REMARK  Name = ZINC27496900
REMARK  6 active torsions:
REMARK  status: ('A' for Active; 'I' for Inactive)
REMARK    1  A    between atoms: N_12  and  C_16
REMARK    2  A    between atoms: C_16  and  C_17
REMARK    3  A    between atoms: N_19  and  C_20
REMARK    4  A    between atoms: C_20  and  C_21
REMARK    5  A    between atoms: C_21  and  C_23
REMARK    6  A    between atoms: C_21  and  N_28
REMARK                            x       y       z     vdW  Elec       q    Type
REMARK                         _______ _______ _______ _____ _____    ______ ____
ROOT
ATOM      1  C   UNL     1       4.520   3.834   1.824  0.00  0.00    +0.231 C 
ATOM      2  O   UNL     1       5.169   4.660   1.217  0.00  0.00    -0.274 OA
ATOM      3  N   UNL     1       3.320   3.442   1.354  0.00  0.00    -0.315 N 
ATOM      4  H   UNL     1       2.731   2.693   1.904  0.00  0.00    +0.149 HD
ENDROOT
BRANCH   1   5
ATOM      5  C   UNL     1       5.057   3.246   3.103  0.00  0.00    +0.213 C 
BRANCH   5  17
ATOM      6  C   UNL     1       9.471   8.973   2.916  0.00  0.00    +0.000 A 
ATOM      7  C   UNL     1       8.483   8.404   2.133  0.00  0.00    +0.000 A 
ATOM      8  C   UNL     1       7.965   7.168   2.468  0.00  0.00    +0.006 A 
ATOM      9  C   UNL     1       8.431   6.493   3.584  0.00  0.00    -0.012 A 
ATOM     10  C   UNL     1       9.420   7.064   4.367  0.00  0.00    -0.042 A 
ATOM     11  C   UNL     1       9.937   8.303   4.030  0.00  0.00    +0.004 A 
ATOM     12  C   UNL     1       9.758   6.141   5.519  0.00  0.00    +0.038 C 
ATOM     13  C   UNL     1       8.579   5.145   5.601  0.00  0.00    +0.045 C 
ATOM     14  C   UNL     1       8.045   5.159   4.162  0.00  0.00    +0.138 C 
ATOM     15  C   UNL     1       6.554   4.949   4.131  0.00  0.00    +0.251 C 
ATOM     16  O   UNL     1       5.703   5.636   4.654  0.00  0.00    -0.272 OA
ATOM     17  N   UNL     1       6.368   3.830   3.397  0.00  0.00    -0.215 N 
ATOM     18  C   UNL     1       7.532   3.319   2.975  0.00  0.00    +0.310 C 
ATOM     19  O   UNL     1       7.624   2.311   2.302  0.00  0.00    -0.252 OA
ATOM     20  N   UNL     1       8.591   4.050   3.380  0.00  0.00    -0.281 N 
ATOM     21  H   UNL     1       9.678   3.960   3.236  0.00  0.00    +0.152 HD
ENDBRANCH   5  17
ENDBRANCH   1   5
BRANCH   3  22
ATOM     22  C   UNL     1       2.798   4.014   0.110  0.00  0.00    +0.096 C 
BRANCH  22  23
ATOM     23  C   UNL     1       1.379   3.496  -0.134  0.00  0.00    +0.016 C 
BRANCH  23  24
ATOM     24  N   UNL     1       1.384   2.027  -0.114  0.00  0.00    +0.387 N 
ATOM     25  C   UNL     1       2.403   1.492  -1.025  0.00  0.00    -0.078 C 
ATOM     26  C   UNL     1       2.479  -0.029  -0.871  0.00  0.00    -0.019 C 
ATOM     27  C   UNL     1       1.111  -0.639  -1.190  0.00  0.00    -0.004 C 
ATOM     28  C   UNL     1       0.060  -0.029  -0.258  0.00  0.00    -0.019 C 
ATOM     29  C   UNL     1       0.054   1.492  -0.430  0.00  0.00    -0.078 C 
ATOM     30  H   UNL     1       1.642   1.702   0.905  0.00  0.00    -0.081 HD
ENDBRANCH  23  24
BRANCH  23  31
ATOM     31  C   UNL     1       0.891   3.978  -1.476  0.00  0.00    +0.093 A 
ATOM     32  C   UNL     1       0.071   5.023  -1.685  0.00  0.00    +0.043 A 
ATOM     33  C   UNL     1      -0.124   5.117  -3.083  0.00  0.00    +0.041 A 
ATOM     34  C   UNL     1       0.590   4.124  -3.643  0.00  0.00    +0.195 A 
ATOM     35  O   UNL     1       1.208   3.441  -2.665  0.00  0.00    -0.469 OA
ENDBRANCH  23  31
ENDBRANCH  22  23
ENDBRANCH   3  22
TORSDOF 6
