REMARK  Name = ZINC66795316
REMARK  4 active torsions:
REMARK  status: ('A' for Active; 'I' for Inactive)
REMARK    1  A    between atoms: C_1  and  C_2
REMARK    2  A    between atoms: C_6  and  C_24
REMARK    3  A    between atoms: N_9  and  C_10
REMARK    4  A    between atoms: C_10  and  N_11
REMARK                            x       y       z     vdW  Elec       q    Type
REMARK                         _______ _______ _______ _____ _____    ______ ____
ROOT
ATOM      1  C   UNL     1       2.112  -0.051   1.190  0.00  0.00    +0.205 C 
ENDROOT
BRANCH   1   2
ATOM      2  N   UNL     1       2.918  -0.978   1.989  0.00  0.00    -0.211 N 
ATOM      3  C   UNL     1       3.139  -0.844   3.313  0.00  0.00    +0.248 C 
ATOM      4  O   UNL     1       2.726   0.033   4.041  0.00  0.00    -0.273 OA
ATOM      5  C   UNL     1       4.011  -2.016   3.696  0.00  0.00    +0.113 C 
ATOM      6  C   UNL     1       5.316  -1.571   4.292  0.00  0.00    +0.035 C 
ATOM      7  C   UNL     1       6.488  -2.496   3.898  0.00  0.00    +0.003 C 
ATOM      8  C   UNL     1       6.107  -3.989   3.939  0.00  0.00    +0.000 C 
ATOM      9  C   UNL     1       5.264  -4.335   5.135  0.00  0.00    +0.000 C 
ATOM     10  C   UNL     1       3.781  -4.268   4.721  0.00  0.00    +0.003 C 
ATOM     11  C   UNL     1       3.265  -2.906   4.711  0.00  0.00    +0.035 C 
ATOM     12  N   UNL     1       4.202  -2.748   2.439  0.00  0.00    -0.285 N 
ATOM     13  C   UNL     1       3.522  -2.067   1.496  0.00  0.00    +0.310 C 
ATOM     14  O   UNL     1       3.466  -2.401   0.329  0.00  0.00    -0.252 OA
ATOM     15  H   UNL     1       4.712  -3.563   2.312  0.00  0.00    +0.151 HD
ENDBRANCH   1   2
BRANCH   1  22
ATOM     16  C   UNL     1      -0.019   1.526   0.010  0.00  0.00    +0.026 C 
ATOM     17  C   UNL     1       0.002  -0.004   0.002  0.00  0.00    +0.081 C 
ATOM     18  C   UNL     1      -1.434  -0.535   0.015  0.00  0.00    +0.179 C 
ATOM     19  O   UNL     1      -2.075  -0.132   1.228  0.00  0.00    -0.369 OA
ATOM     20  C   UNL     1      -1.412  -0.590   2.410  0.00  0.00    +0.162 C 
ATOM     21  C   UNL     1       0.024  -0.060   2.421  0.00  0.00    +0.122 C 
ATOM     22  N   UNL     1       0.711  -0.492   1.194  0.00  0.00    -0.279 NA
BRANCH  20  23
ATOM     23  C   UNL     1      -2.145  -0.086   3.626  0.00  0.00    -0.018 A 
ATOM     24  C   UNL     1      -2.747   1.158   3.603  0.00  0.00    +0.006 A 
ATOM     25  C   UNL     1      -3.420   1.621   4.719  0.00  0.00    +0.000 A 
ATOM     26  C   UNL     1      -3.490   0.839   5.857  0.00  0.00    +0.000 A 
ATOM     27  C   UNL     1      -2.889  -0.406   5.879  0.00  0.00    +0.000 A 
ATOM     28  C   UNL     1      -2.220  -0.870   4.762  0.00  0.00    +0.006 A 
ENDBRANCH  20  23
ENDBRANCH   1  22
TORSDOF 3
