REMARK  Name = ZINC06600484
REMARK  9 active torsions:
REMARK  status: ('A' for Active; 'I' for Inactive)
REMARK    1  A    between atoms: C_1  and  C_2
REMARK    2  A    between atoms: C_2  and  O_3
REMARK    3  A    between atoms: O_3  and  C_4
REMARK    4  A    between atoms: C_6  and  C_11
REMARK    5  A    between atoms: C_9  and  O_10
REMARK    6  A    between atoms: C_13  and  C_25
REMARK    7  A    between atoms: C_15  and  C_20
REMARK    8  A    between atoms: C_15  and  O_24
REMARK    9  A    between atoms: C_25  and  C_27
REMARK                            x       y       z     vdW  Elec       q    Type
REMARK                         _______ _______ _______ _____ _____    ______ ____
ROOT
ATOM      1  C   UNL     1       1.480   1.384   0.122  0.00  0.00    +0.120 C 
ATOM      2  C   UNL     1       0.111   0.778  -0.206  0.00  0.00    +0.145 C 
ATOM      3  C   UNL     1      -0.455   1.490  -1.440  0.00  0.00    +0.243 C 
ATOM      4  N   UNL     1      -0.493   2.931  -1.188  0.00  0.00    -0.264 N 
ATOM      5  C   UNL     1       0.385   3.518  -0.360  0.00  0.00    +0.302 C 
ATOM      6  O   UNL     1       0.316   4.720  -0.193  0.00  0.00    -0.253 OA
ATOM      7  N   UNL     1       1.337   2.831   0.289  0.00  0.00    -0.292 N 
ATOM      8  H   UNL     1      -1.167   3.473  -1.627  0.00  0.00    +0.153 HD
ATOM      9  H   UNL     1       1.942   3.303   0.883  0.00  0.00    +0.151 HD
ENDROOT
BRANCH   1  12
ATOM     10  C   UNL     1       2.207   0.821   3.786  0.00  0.00    +0.162 A 
ATOM     11  C   UNL     1       1.728   1.379   2.611  0.00  0.00    +0.055 A 
ATOM     12  C   UNL     1       2.005   0.778   1.398  0.00  0.00    -0.023 A 
ATOM     13  C   UNL     1       2.769  -0.373   1.351  0.00  0.00    +0.009 A 
ATOM     14  C   UNL     1       3.255  -0.932   2.519  0.00  0.00    +0.049 A 
ATOM     15  C   UNL     1       2.976  -0.338   3.739  0.00  0.00    +0.158 A 
BRANCH  15  16
ATOM     16  O   UNL     1       3.452  -0.886   4.889  0.00  0.00    -0.503 OA
ATOM     17  H   UNL     1       4.322  -0.556   5.151  0.00  0.00    +0.292 HD
ENDBRANCH  15  16
BRANCH  10  18
ATOM     18  O   UNL     1       1.930   1.407   4.981  0.00  0.00    -0.489 OA
BRANCH  18  20
ATOM     19  C   UNL     1       0.931   3.106   6.380  0.00  0.00    +0.048 C 
ATOM     20  C   UNL     1       1.135   2.595   4.953  0.00  0.00    +0.226 C 
ENDBRANCH  18  20
ENDBRANCH  10  18
ENDBRANCH   1  12
BRANCH   3  21
ATOM     21  C   UNL     1       0.439   1.206  -2.649  0.00  0.00    +0.436 C 
ATOM     22  F   UNL     1       0.481  -0.172  -2.885  0.00  0.00    -0.166 F 
ATOM     23  F   UNL     1      -0.078   1.856  -3.774  0.00  0.00    -0.166 F 
ATOM     24  F   UNL     1       1.732   1.674  -2.393  0.00  0.00    -0.166 F 
ENDBRANCH   3  21
BRANCH   3  25
ATOM     25  O   UNL     1      -1.777   1.016  -1.701  0.00  0.00    -0.364 OA
ATOM     26  H   UNL     1      -2.197   1.425  -2.470  0.00  0.00    +0.212 HD
ENDBRANCH   3  25
BRANCH   2  27
ATOM     27  C   UNL     1      -0.820   0.968   0.963  0.00  0.00    +0.179 C 
ATOM     28  O   UNL     1      -0.753   1.977   1.635  0.00  0.00    -0.291 OA
BRANCH  27  29
ATOM     29  C   UNL     1      -1.771  -0.028   1.278  0.00  0.00    +0.055 A 
ATOM     30  C   UNL     1      -2.712  -0.050   2.302  0.00  0.00    +0.019 A 
ATOM     31  C   UNL     1      -3.522  -1.152   2.381  0.00  0.00    +0.008 A 
ATOM     32  C   UNL     1      -3.371  -2.154   1.472  0.00  0.00    +0.046 A 
ATOM     33  S   UNL     1      -2.084  -1.583   0.461  0.00  0.00    -0.094 S 
ENDBRANCH  27  29
ENDBRANCH   2  27
TORSDOF 8
