REMARK  Name = ZINC58193253
REMARK  6 active torsions:
REMARK  status: ('A' for Active; 'I' for Inactive)
REMARK    1  A    between atoms: C_4  and  C_8
REMARK    2  A    between atoms: C_8  and  N_9
REMARK    3  A    between atoms: N_9  and  C_10
REMARK    4  A    between atoms: C_10  and  C_11
REMARK    5  A    between atoms: C_11  and  O_12
REMARK    6  A    between atoms: C_13  and  C_15
REMARK                            x       y       z     vdW  Elec       q    Type
REMARK                         _______ _______ _______ _____ _____    ______ ____
ROOT
ATOM      1  N   UNL     1       4.308  -0.702   1.381  0.00  0.00    -0.290 N 
ATOM      2  C   UNL     1       5.115   0.340   1.662  0.00  0.00    +0.267 C 
ATOM      3  O   UNL     1       5.248   1.240   0.857  0.00  0.00    -0.268 OA
ENDROOT
BRANCH   2   4
ATOM      4  C   UNL     1       5.839   0.387   2.951  0.00  0.00    +0.148 A 
ATOM      5  C   UNL     1       6.580   1.523   3.299  0.00  0.00    +0.040 A 
ATOM      6  C   UNL     1       7.240   1.520   4.516  0.00  0.00    +0.076 A 
ATOM      7  C   UNL     1       7.127   0.387   5.319  0.00  0.00    +0.288 A 
ATOM      8  O   UNL     1       7.756   0.341   6.519  0.00  0.00    -0.264 OA
ATOM      9  N   UNL     1       6.402  -0.646   4.910  0.00  0.00    -0.106 NA
ATOM     10  N   UNL     1       5.784  -0.645   3.784  0.00  0.00    -0.141 NA
ENDBRANCH   2   4
BRANCH   1  11
ATOM     11  C   UNL     1       3.685  -0.810   0.059  0.00  0.00    +0.146 C 
BRANCH  11  15
ATOM     12  C   UNL     1      -0.094   1.187   0.097  0.00  0.00    +0.018 A 
ATOM     13  C   UNL     1       1.071   1.918  -0.039  0.00  0.00    +0.040 A 
ATOM     14  C   UNL     1       2.296   1.272  -0.051  0.00  0.00    +0.128 A 
ATOM     15  C   UNL     1       2.352  -0.106   0.073  0.00  0.00    +0.006 A 
ATOM     16  C   UNL     1       1.187  -0.835   0.209  0.00  0.00    +0.023 A 
ATOM     17  C   UNL     1      -0.037  -0.189   0.221  0.00  0.00    +0.018 A 
ATOM     18 BR   UNL     1      -1.631  -1.188   0.408  0.00  0.00    -0.050 Br
ATOM     19  F   UNL     1       3.435   1.986  -0.185  0.00  0.00    -0.205 F 
ENDBRANCH  11  15
ENDBRANCH   1  11
BRANCH   1  20
ATOM     20  C   UNL     1       4.053  -1.727   2.396  0.00  0.00    +0.136 C 
BRANCH  20  21
ATOM     21  C   UNL     1       5.026  -2.891   2.201  0.00  0.00    +0.174 C 
BRANCH  21  22
ATOM     22  O   UNL     1       6.361  -2.443   2.443  0.00  0.00    -0.393 OA
ATOM     23  H   UNL     1       7.032  -3.131   2.337  0.00  0.00    +0.209 HD
ENDBRANCH  21  22
ENDBRANCH  20  21
ENDBRANCH   1  20
TORSDOF 6
