REMARK  Name = ZINC63694314
REMARK  6 active torsions:
REMARK  status: ('A' for Active; 'I' for Inactive)
REMARK    1  A    between atoms: C_6  and  C_10
REMARK    2  A    between atoms: C_10  and  C_11
REMARK    3  A    between atoms: C_11  and  N_12
REMARK    4  A    between atoms: C_13  and  C_15
REMARK    5  A    between atoms: C_18  and  C_30
REMARK    6  A    between atoms: N_20  and  C_22
REMARK                            x       y       z     vdW  Elec       q    Type
REMARK                         _______ _______ _______ _____ _____    ______ ____
ROOT
ATOM      1  N   UNL     1       3.928  -4.584  -2.817  0.00  0.00    -0.314 N 
ATOM      2  C   UNL     1       3.505  -5.864  -2.814  0.00  0.00    +0.231 C 
ATOM      3  O   UNL     1       2.906  -6.303  -1.855  0.00  0.00    -0.274 OA
ATOM      4  H   UNL     1       4.406  -4.233  -3.585  0.00  0.00    +0.149 HD
ENDROOT
BRANCH   2   5
ATOM      5  C   UNL     1       3.775  -6.749  -4.004  0.00  0.00    +0.157 C 
ATOM      6  C   UNL     1       5.211  -7.329  -3.937  0.00  0.00    +0.050 C 
ATOM      7  C   UNL     1       5.051  -8.632  -4.762  0.00  0.00    +0.078 C 
ATOM      8  N   UNL     1       3.686  -9.094  -4.426  0.00  0.00    -0.234 NA
ATOM      9  N   UNL     1       2.907  -7.948  -3.967  0.00  0.00    -0.241 NA
ATOM     10  H   UNL     1       2.084  -7.816  -4.535  0.00  0.00    +0.142 HD
BRANCH   8  11
ATOM     11  C   UNL     1       3.047  -9.732  -5.584  0.00  0.00    +0.096 C 
ATOM     12  C   UNL     1       2.921  -8.717  -6.732  0.00  0.00    +0.044 C 
ATOM     13  C   UNL     1       1.974  -9.270  -7.825  0.00  0.00    +0.167 C 
ATOM     14  S   UNL     1       0.856 -10.374  -6.869  0.00  0.00    -0.029 S 
ATOM     15  O   UNL     1       1.025 -11.709  -7.324  0.00  0.00    -0.174 OA
ATOM     16  O   UNL     1      -0.445  -9.803  -6.844  0.00  0.00    -0.174 OA
ATOM     17  C   UNL     1       1.617 -10.208  -5.199  0.00  0.00    +0.186 C 
ENDBRANCH   8  11
BRANCH   7  18
ATOM     18  C   UNL     1       6.094  -9.668  -4.337  0.00  0.00    +0.008 C 
ATOM     19  C   UNL     1       7.267  -9.919  -5.286  0.00  0.00    +0.005 C 
ATOM     20  C   UNL     1       6.164 -10.969  -5.139  0.00  0.00    +0.005 C 
ENDBRANCH   7  18
ENDBRANCH   2   5
BRANCH   1  21
ATOM     21  C   UNL     1       3.665  -3.723  -1.661  0.00  0.00    +0.108 C 
BRANCH  21  22
ATOM     22  C   UNL     1       4.246  -2.332  -1.920  0.00  0.00    +0.065 C 
BRANCH  22  28
ATOM     23  C   UNL     1       1.064   2.128  -0.727  0.00  0.00    +0.002 A 
ATOM     24  C   UNL     1       2.260   2.826  -0.975  0.00  0.00    +0.002 A 
ATOM     25  C   UNL     1       3.455   2.209  -1.068  0.00  0.00    +0.027 A 
ATOM     26  C   UNL     1       3.533   0.751  -0.908  0.00  0.00    +0.060 A 
ATOM     27  N   UNL     1       4.524  -0.092  -0.947  0.00  0.00    -0.363 N 
ATOM     28  C   UNL     1       3.971  -1.432  -0.713  0.00  0.00    +0.175 C 
ATOM     29  N   UNL     1       2.525  -1.258  -0.532  0.00  0.00    -0.363 N 
ATOM     30  C   UNL     1       2.267   0.013  -0.645  0.00  0.00    +0.060 A 
ATOM     31  C   UNL     1       1.023   0.791  -0.565  0.00  0.00    +0.027 A 
ATOM     32  H   UNL     1       5.456   0.125  -1.102  0.00  0.00    +0.162 HD
ATOM     33  H   UNL     1       1.879  -1.962  -0.360  0.00  0.00    +0.162 HD
ENDBRANCH  22  28
ENDBRANCH  21  22
ENDBRANCH   1  21
TORSDOF 6
