REMARK  Name = ZINC22409292
REMARK  5 active torsions:
REMARK  status: ('A' for Active; 'I' for Inactive)
REMARK    1  A    between atoms: C_1  and  C_2
REMARK    2  A    between atoms: C_3  and  C_27
REMARK    3  A    between atoms: N_9  and  C_12
REMARK    4  A    between atoms: C_12  and  C_13
REMARK    5  A    between atoms: C_13  and  C_14
REMARK                            x       y       z     vdW  Elec       q    Type
REMARK                         _______ _______ _______ _____ _____    ______ ____
ROOT
ATOM      1  C   UNL     1      -2.870   0.860   1.463  0.00  0.00    +0.118 C 
ENDROOT
BRANCH   1   2
ATOM      2  C   UNL     1      -4.163   0.085   1.464  0.00  0.00    +0.221 C 
ATOM      3  O   UNL     1      -4.688  -0.221   0.415  0.00  0.00    -0.275 OA
ATOM      4  N   UNL     1      -4.736  -0.267   2.632  0.00  0.00    -0.256 N 
ATOM      5  C   UNL     1      -5.924  -0.979   2.634  0.00  0.00    +0.200 A 
ATOM      6  N   UNL     1      -6.601  -1.376   1.518  0.00  0.00    -0.326 N 
ATOM      7  H   UNL     1      -6.208  -1.132   0.520  0.00  0.00    +0.169 HD
ATOM      8  C   UNL     1      -7.730  -2.055   1.942  0.00  0.00    +0.067 A 
ATOM      9  C   UNL     1      -8.781  -2.680   1.287  0.00  0.00    +0.028 A 
ATOM     10  C   UNL     1      -9.782  -3.285   2.017  0.00  0.00    +0.002 A 
ATOM     11  C   UNL     1      -9.746  -3.276   3.404  0.00  0.00    +0.002 A 
ATOM     12  C   UNL     1      -8.711  -2.661   4.071  0.00  0.00    +0.030 A 
ATOM     13  C   UNL     1      -7.688  -2.042   3.347  0.00  0.00    +0.091 A 
ATOM     14  N   UNL     1      -6.561  -1.376   3.706  0.00  0.00    -0.214 NA
ATOM     15  H   UNL     1      -4.260   0.010   3.584  0.00  0.00    +0.158 HD
ENDBRANCH   1   2
BRANCH   1  16
ATOM     16  C   UNL     1      -2.440   1.130   0.020  0.00  0.00    +0.135 C 
BRANCH  16  25
ATOM     17  C   UNL     1       2.869   0.001  -0.024  0.00  0.00    +0.045 C 
ATOM     18  C   UNL     1       2.579   1.479  -0.015  0.00  0.00    -0.026 A 
ATOM     19  C   UNL     1       3.585   2.369  -0.020  0.00  0.00    -0.008 A 
ATOM     20  S   UNL     1       2.746   3.942  -0.004  0.00  0.00    -0.073 S 
ATOM     21  C   UNL     1       1.070   3.359   0.009  0.00  0.00    +0.116 A 
ATOM     22  C   UNL     1       1.210   1.959   0.001  0.00  0.00    +0.075 A 
ATOM     23  C   UNL     1      -0.015   1.215   0.009  0.00  0.00    +0.262 A 
ATOM     24  O   UNL     1       0.002  -0.004   0.002  0.00  0.00    -0.267 OA
ATOM     25  N   UNL     1      -1.183   1.883   0.018  0.00  0.00    -0.298 N 
ATOM     26  C   UNL     1      -1.221   3.240   0.030  0.00  0.00    +0.203 A 
ATOM     27  N   UNL     1      -0.122   3.947   0.024  0.00  0.00    -0.230 NA
ATOM     28  C   UNL     1       5.068   2.101  -0.036  0.00  0.00    +0.052 C 
ENDBRANCH  16  25
ENDBRANCH   1  16
TORSDOF 3
