REMARK  Name = ZINC02104949
REMARK  6 active torsions:
REMARK  status: ('A' for Active; 'I' for Inactive)
REMARK    1  A    between atoms: C_1  and  O_2
REMARK    2  A    between atoms: O_2  and  C_3
REMARK    3  A    between atoms: C_6  and  C_11
REMARK    4  A    between atoms: C_7  and  O_9
REMARK    5  A    between atoms: O_9  and  C_10
REMARK    6  A    between atoms: N_30  and  C_33
REMARK                            x       y       z     vdW  Elec       q    Type
REMARK                         _______ _______ _______ _____ _____    ______ ____
ROOT
ATOM      1  C   UNL     1      -1.287   2.165   0.020  0.00  0.00    +0.157 C 
ATOM      2  C   UNL     1       0.063   1.487   0.066  0.00  0.00    +0.046 A 
ATOM      3  C   UNL     1       0.227   0.146   0.042  0.00  0.00    -0.015 A 
ATOM      4  C   UNL     1       1.652  -0.108   0.090  0.00  0.00    +0.003 A 
ATOM      5  C   UNL     1       2.406  -1.285   0.092  0.00  0.00    +0.010 A 
ATOM      6  C   UNL     1       3.771  -1.149   0.146  0.00  0.00    +0.001 A 
ATOM      7  C   UNL     1       4.385   0.092   0.198  0.00  0.00    +0.002 A 
ATOM      8  C   UNL     1       3.664   1.274   0.199  0.00  0.00    +0.026 A 
ATOM      9  C   UNL     1       2.276   1.166   0.144  0.00  0.00    +0.047 A 
ATOM     10  N   UNL     1       1.284   2.104   0.130  0.00  0.00    -0.356 N 
ATOM     11  H   UNL     1       1.423   3.064   0.161  0.00  0.00    +0.166 HD
ATOM     12  C   UNL     1      -0.900  -0.853  -0.021  0.00  0.00    +0.069 C 
ATOM     13  C   UNL     1      -2.170  -0.136  -0.499  0.00  0.00    +0.167 C 
ATOM     14  N   UNL     1      -2.315   1.122   0.231  0.00  0.00    -0.276 N 
ATOM     15  C   UNL     1      -3.327   1.370   1.064  0.00  0.00    +0.234 C 
ATOM     16  O   UNL     1      -3.314   2.419   1.673  0.00  0.00    -0.274 OA
ATOM     17  C   UNL     1      -4.476   0.443   1.297  0.00  0.00    +0.204 C 
ATOM     18  N   UNL     1      -4.378  -0.761   0.490  0.00  0.00    -0.288 N 
ATOM     19  C   UNL     1      -3.353  -1.031  -0.317  0.00  0.00    +0.237 C 
ATOM     20  O   UNL     1      -3.381  -2.070  -0.943  0.00  0.00    -0.274 OA
ENDROOT
BRANCH   1  24
ATOM     21  C   UNL     1      -1.855   4.015  -3.794  0.00  0.00    +0.124 A 
ATOM     22  C   UNL     1      -0.874   3.047  -3.627  0.00  0.00    +0.046 A 
ATOM     23  C   UNL     1      -0.689   2.455  -2.392  0.00  0.00    +0.013 A 
ATOM     24  C   UNL     1      -1.488   2.817  -1.324  0.00  0.00    +0.021 A 
ATOM     25  C   UNL     1      -2.470   3.783  -1.486  0.00  0.00    +0.129 A 
ATOM     26  C   UNL     1      -2.654   4.383  -2.722  0.00  0.00    +0.091 A 
BRANCH  21  28
ATOM     27  C   UNL     1      -1.174   4.172  -6.066  0.00  0.00    +0.277 C 
ATOM     28  O   UNL     1      -2.033   4.601  -5.007  0.00  0.00    -0.495 OA
ENDBRANCH  21  28
BRANCH  25  29
ATOM     29  O   UNL     1      -3.251   4.142  -0.433  0.00  0.00    -0.495 OA
ATOM     30  C   UNL     1      -4.242   5.144  -0.672  0.00  0.00    +0.277 C 
ENDBRANCH  25  29
ENDBRANCH   1  24
BRANCH  18  31
ATOM     31  C   UNL     1      -5.469  -1.735   0.568  0.00  0.00    +0.077 C 
ATOM     32  C   UNL     1      -6.777  -1.072   0.132  0.00  0.00    +0.022 C 
ATOM     33  C   UNL     1      -7.917  -2.089   0.214  0.00  0.00    +0.002 C 
ATOM     34  C   UNL     1      -8.053  -2.587   1.654  0.00  0.00    +0.000 C 
ATOM     35  C   UNL     1      -6.746  -3.251   2.090  0.00  0.00    +0.002 C 
ATOM     36  C   UNL     1      -5.606  -2.233   2.008  0.00  0.00    +0.022 C 
ENDBRANCH  18  31
TORSDOF 4
