REMARK  Name = ZINC31056684
REMARK  10 active torsions:
REMARK  status: ('A' for Active; 'I' for Inactive)
REMARK    1  A    between atoms: C_1  and  C_2
REMARK    2  A    between atoms: C_2  and  C_3
REMARK    3  A    between atoms: C_2  and  C_4
REMARK    4  A    between atoms: C_4  and  N_5
REMARK    5  A    between atoms: C_6  and  C_8
REMARK    6  A    between atoms: C_13  and  N_14
REMARK    7  A    between atoms: C_15  and  C_17
REMARK    8  A    between atoms: N_22  and  C_24
REMARK    9  A    between atoms: C_24  and  C_25
REMARK   10  A    between atoms: C_27  and  C_30
REMARK                            x       y       z     vdW  Elec       q    Type
REMARK                         _______ _______ _______ _____ _____    ______ ____
ROOT
ATOM      1  N   UNL     1       0.717   0.804  -5.138  0.00  0.00    -0.285 N 
ATOM      2  C   UNL     1       1.228   0.688  -6.380  0.00  0.00    +0.219 C 
ATOM      3  O   UNL     1       0.706   1.269  -7.308  0.00  0.00    -0.275 OA
ATOM      4  H   UNL     1       1.239   0.349  -4.284  0.00  0.00    +0.155 HD
ENDROOT
BRANCH   2   5
ATOM      5  C   UNL     1       2.449  -0.165  -6.616  0.00  0.00    +0.059 C 
ATOM      6  C   UNL     1       2.150  -1.609  -6.207  0.00  0.00    +0.009 C 
ATOM      7  C   UNL     1       3.374  -2.480  -6.505  0.00  0.00    -0.018 C 
ATOM      8  C   UNL     1       3.718  -2.374  -7.992  0.00  0.00    -0.078 C 
ATOM      9  N   UNL     1       3.996  -0.973  -8.334  0.00  0.00    +0.386 N 
ATOM     10  C   UNL     1       2.820  -0.126  -8.100  0.00  0.00    -0.065 C 
ATOM     11  H   UNL     1       4.800  -0.620  -7.671  0.00  0.00    -0.081 HD
BRANCH   9  12
ATOM     12  C   UNL     1       4.465  -0.852  -9.721  0.00  0.00    +0.022 C 
BRANCH  12  13
ATOM     13  C   UNL     1       5.507  -1.906  -9.992  0.00  0.00    +0.211 A 
ATOM     14  N   UNL     1       5.289  -3.117 -10.441  0.00  0.00    -0.192 NA
ATOM     15  C   UNL     1       6.510  -3.697 -10.530  0.00  0.00    +0.209 A 
ATOM     16  N   UNL     1       7.387  -2.811 -10.126  0.00  0.00    -0.056 NA
ATOM     17  O   UNL     1       6.826  -1.782  -9.815  0.00  0.00    -0.340 OA
BRANCH  15  18
ATOM     18  C   UNL     1       6.797  -5.070 -10.991  0.00  0.00    +0.060 A 
ATOM     19  C   UNL     1       8.004  -5.710 -11.099  0.00  0.00    +0.019 A 
ATOM     20  C   UNL     1       8.027  -7.007 -11.559  0.00  0.00    +0.008 A 
ATOM     21  C   UNL     1       6.857  -7.612 -11.892  0.00  0.00    +0.046 A 
ATOM     22  S   UNL     1       5.662  -6.332 -11.546  0.00  0.00    -0.093 S 
ENDBRANCH  15  18
ENDBRANCH  12  13
ENDBRANCH   9  12
ENDBRANCH   2   5
BRANCH   1  28
ATOM     23  C   UNL     1      -0.660   2.253  -3.768  0.00  0.00    +0.058 A 
ATOM     24  C   UNL     1      -1.859   2.943  -3.576  0.00  0.00    +0.015 A 
ATOM     25  C   UNL     1      -2.844   2.890  -4.539  0.00  0.00    +0.001 A 
ATOM     26  C   UNL     1      -2.656   2.146  -5.692  0.00  0.00    +0.002 A 
ATOM     27  C   UNL     1      -1.478   1.455  -5.894  0.00  0.00    +0.024 A 
ATOM     28  C   UNL     1      -0.472   1.501  -4.938  0.00  0.00    +0.046 A 
BRANCH  23  30
ATOM     29  N   UNL     1       0.259   3.111  -1.670  0.00  0.00    -0.311 N 
ATOM     30  C   UNL     1       0.401   2.309  -2.744  0.00  0.00    +0.246 C 
ATOM     31  O   UNL     1       1.403   1.632  -2.869  0.00  0.00    -0.270 OA
ATOM     32  H   UNL     1      -0.648   3.723  -1.557  0.00  0.00    +0.149 HD
BRANCH  29  33
ATOM     33  C   UNL     1       1.312   3.167  -0.653  0.00  0.00    +0.107 C 
BRANCH  33  35
ATOM     34  C   UNL     1       1.944   4.111   1.572  0.00  0.00    +0.009 C 
ATOM     35  C   UNL     1       0.904   4.145   0.450  0.00  0.00    -0.000 C 
ATOM     36  C   UNL     1       0.823   5.560  -0.127  0.00  0.00    +0.009 C 
ENDBRANCH  33  35
ENDBRANCH  29  33
ENDBRANCH  23  30
ENDBRANCH   1  28
TORSDOF 8
