REMARK  Name = ZINC40236244
REMARK  5 active torsions:
REMARK  status: ('A' for Active; 'I' for Inactive)
REMARK    1  A    between atoms: C_3  and  C_11
REMARK    2  A    between atoms: C_5  and  O_7
REMARK    3  A    between atoms: O_7  and  C_8
REMARK    4  A    between atoms: C_11  and  C_13
REMARK    5  A    between atoms: C_11  and  N_19
REMARK                            x       y       z     vdW  Elec       q    Type
REMARK                         _______ _______ _______ _____ _____    ______ ____
ROOT
ATOM      1  C   UNL     1       3.671   2.190  -0.021  0.00  0.00    -0.006 C 
ENDROOT
BRANCH   1   4
ATOM      2  C   UNL     1      -0.017   1.377   0.010  0.00  0.00    +0.004 A 
ATOM      3  C   UNL     1       1.171   2.086   0.002  0.00  0.00    +0.002 A 
ATOM      4  C   UNL     1       2.379   1.415  -0.013  0.00  0.00    -0.054 A 
ATOM      5  C   UNL     1       2.403   0.033  -0.021  0.00  0.00    +0.048 A 
ATOM      6  C   UNL     1       1.214  -0.680  -0.013  0.00  0.00    +0.127 A 
ATOM      7  C   UNL     1       0.002  -0.004   0.002  0.00  0.00    +0.046 A 
BRANCH   6   8
ATOM      8  O   UNL     1       1.235  -2.039  -0.021  0.00  0.00    -0.434 OA
BRANCH   8   9
ATOM      9  C   UNL     1      -0.028  -2.708  -0.013  0.00  0.00    +0.541 C 
ATOM     10  F   UNL     1      -0.738  -2.349   1.138  0.00  0.00    -0.166 F 
ATOM     11  F   UNL     1      -0.760  -2.336  -1.146  0.00  0.00    -0.166 F 
ENDBRANCH   8   9
ENDBRANCH   6   8
ENDBRANCH   1   4
BRANCH   1  12
ATOM     12  C   UNL     1       3.988   2.653   1.378  0.00  0.00    -0.019 A 
ATOM     13  C   UNL     1       4.852   2.121   2.277  0.00  0.00    +0.011 A 
ATOM     14  C   UNL     1       4.982   2.720   3.516  0.00  0.00    +0.023 A 
ATOM     15  C   UNL     1       4.242   3.822   3.795  0.00  0.00    +0.055 A 
ATOM     16  S   UNL     1       3.330   4.047   2.277  0.00  0.00    -0.088 S 
ATOM     17 BR   UNL     1       4.194   4.856   5.378  0.00  0.00    -0.043 Br
ENDBRANCH   1  12
BRANCH   1  18
ATOM     18  N   UNL     1       3.537   3.357  -0.904  0.00  0.00    +0.386 N 
ATOM     19  H   UNL     1       2.791   3.948  -0.568  0.00  0.00    -0.089 HD
ATOM     20  H   UNL     1       4.402   3.876  -0.909  0.00  0.00    -0.089 HD
ATOM     21  H   UNL     1       3.324   3.047  -1.841  0.00  0.00    -0.089 HD
ENDBRANCH   1  18
TORSDOF 5
