REMARK  Name = ZINC40023002
REMARK  8 active torsions:
REMARK  status: ('A' for Active; 'I' for Inactive)
REMARK    1  A    between atoms: C_1  and  C_2
REMARK    2  A    between atoms: C_4  and  C_10
REMARK    3  A    between atoms: C_6  and  C_9
REMARK    4  A    between atoms: C_7  and  O_8
REMARK    5  A    between atoms: C_12  and  C_21
REMARK    6  A    between atoms: N_16  and  C_17
REMARK    7  A    between atoms: C_17  and  C_18
REMARK    8  A    between atoms: C_21  and  C_23
REMARK                            x       y       z     vdW  Elec       q    Type
REMARK                         _______ _______ _______ _____ _____    ______ ____
ROOT
ATOM      1  C   UNL     1      -0.192  -2.820  -2.494  0.00  0.00    +0.145 C 
ATOM      2  C   UNL     1      -1.619  -3.252  -2.737  0.00  0.00    +0.079 C 
ATOM      3  C   UNL     1      -1.609  -4.603  -2.816  0.00  0.00    +0.249 C 
ATOM      4  C   UNL     1      -0.228  -5.090  -2.634  0.00  0.00    +0.288 C 
ATOM      5  O   UNL     1       0.108  -6.258  -2.652  0.00  0.00    -0.266 OA
ATOM      6  N   UNL     1       0.607  -4.050  -2.446  0.00  0.00    -0.280 N 
ATOM      7  O   UNL     1      -2.695  -5.384  -3.027  0.00  0.00    -0.282 OA
ENDROOT
BRANCH   1  11
ATOM      8  C   UNL     1       0.570   1.427   0.039  0.00  0.00    +0.047 C 
ATOM      9  C   UNL     1       0.275  -0.051   0.028  0.00  0.00    -0.008 A 
ATOM     10  C   UNL     1       0.181  -0.728  -1.173  0.00  0.00    +0.012 A 
ATOM     11  C   UNL     1      -0.089  -2.084  -1.183  0.00  0.00    -0.022 A 
ATOM     12  C   UNL     1      -0.267  -2.765   0.006  0.00  0.00    +0.012 A 
ATOM     13  C   UNL     1      -0.174  -2.093   1.210  0.00  0.00    -0.008 A 
ATOM     14  C   UNL     1       0.103  -0.734   1.223  0.00  0.00    +0.123 A 
ATOM     15  C   UNL     1      -0.367  -2.836   2.506  0.00  0.00    +0.047 C 
BRANCH  14  16
ATOM     16  O   UNL     1       0.201  -0.071   2.406  0.00  0.00    -0.506 OA
ATOM     17  H   UNL     1      -0.636   0.294   2.723  0.00  0.00    +0.292 HD
ENDBRANCH  14  16
ENDBRANCH   1  11
BRANCH   2  18
ATOM     18  C   UNL     1      -2.790  -2.377  -2.863  0.00  0.00    +0.230 C 
ATOM     19  O   UNL     1      -3.675  -2.419  -2.027  0.00  0.00    -0.283 OA
BRANCH  18  20
ATOM     20  C   UNL     1      -2.895  -1.451  -3.995  0.00  0.00    +0.175 A 
ATOM     21  C   UNL     1      -3.973  -0.643  -4.286  0.00  0.00    +0.053 A 
ATOM     22  C   UNL     1      -3.637   0.067  -5.448  0.00  0.00    +0.042 A 
ATOM     23  C   UNL     1      -2.395  -0.327  -5.813  0.00  0.00    +0.196 A 
ATOM     24  O   UNL     1      -1.951  -1.235  -4.935  0.00  0.00    -0.460 OA
ENDBRANCH  18  20
ENDBRANCH   2  18
BRANCH   6  25
ATOM     25  C   UNL     1       2.054  -4.131  -2.232  0.00  0.00    +0.136 C 
BRANCH  25  26
ATOM     26  C   UNL     1       2.337  -4.242  -0.756  0.00  0.00    -0.016 C 
ATOM     27  C   UNL     1       3.056  -5.238  -0.300  0.00  0.00    +0.005 C 
ENDBRANCH  25  26
ENDBRANCH   6  25
TORSDOF 6
