REMARK  Name = ZINC58508456
REMARK  6 active torsions:
REMARK  status: ('A' for Active; 'I' for Inactive)
REMARK    1  A    between atoms: C_1  and  C_2
REMARK    2  A    between atoms: C_2  and  C_3
REMARK    3  A    between atoms: C_2  and  N_18
REMARK    4  A    between atoms: N_5  and  C_6
REMARK    5  A    between atoms: C_8  and  C_14
REMARK    6  A    between atoms: C_19  and  C_21
REMARK                            x       y       z     vdW  Elec       q    Type
REMARK                         _______ _______ _______ _____ _____    ______ ____
ROOT
ATOM      1  C   UNL     1       0.666  -0.352  -1.332  0.00  0.00    +0.237 C 
ATOM      2  O   UNL     1       0.052  -0.923  -2.208  0.00  0.00    -0.273 OA
ATOM      3  N   UNL     1       1.991  -0.146  -1.462  0.00  0.00    -0.280 N 
ATOM      4  H   UNL     1       2.469   0.373  -0.796  0.00  0.00    +0.155 HD
ENDROOT
BRANCH   3   5
ATOM      5  C   UNL     1       2.679  -0.682  -2.558  0.00  0.00    +0.099 A 
ATOM      6  C   UNL     1       3.364   0.138  -3.414  0.00  0.00    +0.042 A 
ATOM      7  C   UNL     1       4.044  -0.424  -4.503  0.00  0.00    +0.073 A 
ATOM      8  C   UNL     1       4.020  -1.762  -4.699  0.00  0.00    +0.098 A 
ATOM      9  N   UNL     1       3.340  -2.579  -3.851  0.00  0.00    -0.327 N 
ATOM     10  H   UNL     1       3.334  -3.536  -4.008  0.00  0.00    +0.168 HD
ATOM     11  C   UNL     1       2.680  -2.074  -2.791  0.00  0.00    +0.270 A 
ATOM     12  O   UNL     1       2.078  -2.820  -2.035  0.00  0.00    -0.266 OA
BRANCH   7  13
ATOM     13  C   UNL     1       4.803   0.463  -5.457  0.00  0.00    +0.419 C 
ATOM     14  F   UNL     1       5.393  -0.321  -6.453  0.00  0.00    -0.166 F 
ATOM     15  F   UNL     1       3.922   1.378  -6.044  0.00  0.00    -0.166 F 
ATOM     16  F   UNL     1       5.797   1.156  -4.758  0.00  0.00    -0.166 F 
ENDBRANCH   7  13
ENDBRANCH   3   5
BRANCH   1  18
ATOM     17  C   UNL     1       0.098   1.644   0.026  0.00  0.00    +0.038 C 
ATOM     18  C   UNL     1      -0.054   0.127  -0.097  0.00  0.00    +0.156 C 
BRANCH  18  19
ATOM     19  N   UNL     1      -1.475  -0.216  -0.196  0.00  0.00    -0.304 N 
ATOM     20  C   UNL     1      -2.213  -0.362   0.922  0.00  0.00    +0.217 C 
ATOM     21  O   UNL     1      -1.700  -0.211   2.011  0.00  0.00    -0.275 OA
ATOM     22  H   UNL     1      -1.885  -0.337  -1.067  0.00  0.00    +0.149 HD
BRANCH  20  23
ATOM     23  C   UNL     1      -3.674  -0.714   0.820  0.00  0.00    +0.075 C 
ATOM     24  C   UNL     1      -4.407   0.375   0.034  0.00  0.00    +0.013 C 
ATOM     25  C   UNL     1      -5.891   0.018  -0.070  0.00  0.00    +0.001 C 
ATOM     26  C   UNL     1      -6.490  -0.088   1.334  0.00  0.00    +0.000 C 
ATOM     27  C   UNL     1      -5.757  -1.177   2.120  0.00  0.00    +0.001 C 
ATOM     28  C   UNL     1      -4.273  -0.820   2.224  0.00  0.00    +0.013 C 
ENDBRANCH  20  23
ENDBRANCH  18  19
ENDBRANCH   1  18
TORSDOF 5
