REMARK  Name = ZINC03213194
REMARK  4 active torsions:
REMARK  status: ('A' for Active; 'I' for Inactive)
REMARK    1  A    between atoms: C_2  and  C_3
REMARK    2  A    between atoms: C_2  and  N_17
REMARK    3  A    between atoms: N_17  and  N_18
REMARK    4  A    between atoms: C_19  and  C_21
REMARK                            x       y       z     vdW  Elec       q    Type
REMARK                         _______ _______ _______ _____ _____    ______ ____
ROOT
ATOM      1  C   UNL     1       7.653   4.628  -1.696  0.00  0.00    +0.035 C 
ATOM      2  C   UNL     1       6.647   5.503  -1.736  0.00  0.00    +0.045 C 
ENDROOT
BRANCH   2   3
ATOM      3  C   UNL     1       5.292   5.092  -1.305  0.00  0.00    -0.001 A 
ATOM      4  C   UNL     1       4.239   6.006  -1.347  0.00  0.00    +0.011 A 
ATOM      5  C   UNL     1       2.978   5.618  -0.945  0.00  0.00    +0.017 A 
ATOM      6  C   UNL     1       2.751   4.322  -0.500  0.00  0.00    +0.034 A 
ATOM      7  C   UNL     1       3.796   3.401  -0.453  0.00  0.00    +0.046 A 
ATOM      8  C   UNL     1       5.066   3.791  -0.858  0.00  0.00    +0.034 A 
ATOM      9  N   UNL     1       3.608   2.095  -0.008  0.00  0.00    -0.313 N 
ATOM     10  C   UNL     1       2.391   1.418  -0.010  0.00  0.00    +0.045 A 
ATOM     11  C   UNL     1       2.398   0.027  -0.019  0.00  0.00    +0.024 A 
ATOM     12  C   UNL     1       1.209  -0.677  -0.013  0.00  0.00    +0.002 A 
ATOM     13  C   UNL     1       0.002  -0.004   0.002  0.00  0.00    +0.001 A 
ATOM     14  C   UNL     1      -0.017   1.379   0.010  0.00  0.00    +0.017 A 
ATOM     15  C   UNL     1       1.173   2.092   0.002  0.00  0.00    +0.034 A 
ATOM     16  S   UNL     1       1.129   3.853   0.004  0.00  0.00    -0.086 S 
ATOM     17  H   UNL     1       4.384   1.621   0.330  0.00  0.00    +0.152 HD
ENDBRANCH   2   3
BRANCH   2  18
ATOM     18  N   UNL     1       6.872   6.805  -2.183  0.00  0.00    -0.264 N 
ATOM     19  H   UNL     1       6.141   7.441  -2.212  0.00  0.00    +0.170 HD
BRANCH  18  20
ATOM     20  N   UNL     1       8.155   7.194  -2.591  0.00  0.00    -0.233 N 
ATOM     21  C   UNL     1       8.372   8.452  -3.023  0.00  0.00    +0.273 C 
ATOM     22  O   UNL     1       7.458   9.247  -3.060  0.00  0.00    -0.270 OA
ATOM     23  H   UNL     1       8.886   6.558  -2.562  0.00  0.00    +0.173 HD
BRANCH  21  24
ATOM     24  C   UNL     1       9.752   8.870  -3.462  0.00  0.00    +0.297 C 
ATOM     25  C   UNL     1      10.704   8.855  -2.258  0.00  0.00    +0.283 C 
ATOM     26  O   UNL     1      12.000   9.269  -2.706  0.00  0.00    -0.484 OA
ATOM     27  C   UNL     1      12.047  10.370  -3.505  0.00  0.00    +0.162 A 
ATOM     28  C   UNL     1      13.253  11.033  -3.680  0.00  0.00    +0.049 A 
ATOM     29  C   UNL     1      13.318  12.150  -4.490  0.00  0.00    +0.004 A 
ATOM     30  C   UNL     1      12.182  12.611  -5.129  0.00  0.00    +0.004 A 
ATOM     31  C   UNL     1      10.977  11.956  -4.958  0.00  0.00    +0.049 A 
ATOM     32  C   UNL     1      10.905  10.834  -4.145  0.00  0.00    +0.163 A 
ATOM     33  O   UNL     1       9.710  10.202  -3.984  0.00  0.00    -0.472 OA
ENDBRANCH  21  24
ENDBRANCH  18  20
ENDBRANCH   2  18
TORSDOF 4
