REMARK  Name = ZINC39666428
REMARK  7 active torsions:
REMARK  status: ('A' for Active; 'I' for Inactive)
REMARK    1  A    between atoms: C_1  and  C_2
REMARK    2  A    between atoms: C_2  and  C_4
REMARK    3  A    between atoms: C_2  and  O_29
REMARK    4  A    between atoms: C_4  and  N_5
REMARK    5  A    between atoms: C_6  and  C_8
REMARK    6  A    between atoms: C_19  and  C_21
REMARK    7  A    between atoms: O_29  and  C_30
REMARK                            x       y       z     vdW  Elec       q    Type
REMARK                         _______ _______ _______ _____ _____    ______ ____
ROOT
ATOM      1  C   UNL     1       2.899  -7.346   1.483  0.00  0.00    +0.100 C 
ATOM      2  C   UNL     1       4.150  -6.627   0.931  0.00  0.00    +0.121 C 
ATOM      3  N   UNL     1       4.466  -5.594   1.946  0.00  0.00    -0.296 N 
ATOM      4  C   UNL     1       4.211  -6.263   3.244  0.00  0.00    +0.115 C 
ATOM      5  C   UNL     1       2.945  -7.108   3.002  0.00  0.00    -0.004 C 
ATOM      6  C   UNL     1       3.048  -8.438   3.742  0.00  0.00    -0.010 C 
ATOM      7  C   UNL     1       3.033  -8.180   5.252  0.00  0.00    -0.082 C 
ATOM      8  N   UNL     1       1.792  -7.487   5.619  0.00  0.00    +0.379 N 
ATOM      9  C   UNL     1       1.745  -6.169   4.976  0.00  0.00    -0.082 C 
ATOM     10  C   UNL     1       1.705  -6.342   3.455  0.00  0.00    -0.010 C 
ATOM     11  C   UNL     1       4.891  -4.332   1.736  0.00  0.00    +0.247 C 
ATOM     12  O   UNL     1       5.182  -3.624   2.680  0.00  0.00    -0.270 OA
ATOM     13  H   UNL     1       1.001  -8.036   5.318  0.00  0.00    -0.086 HD
ATOM     14  H   UNL     1       1.757  -7.372   6.621  0.00  0.00    -0.086 HD
ENDROOT
BRANCH  11  15
ATOM     15  C   UNL     1       5.003  -3.810   0.357  0.00  0.00    +0.040 A 
ATOM     16  C   UNL     1       3.853  -3.491  -0.367  0.00  0.00    +0.033 A 
ATOM     17  C   UNL     1       3.964  -3.003  -1.654  0.00  0.00    +0.043 A 
ATOM     18  C   UNL     1       5.213  -2.830  -2.226  0.00  0.00    +0.040 A 
ATOM     19  C   UNL     1       6.357  -3.145  -1.513  0.00  0.00    +0.043 A 
ATOM     20  C   UNL     1       6.259  -3.628  -0.223  0.00  0.00    +0.033 A 
ATOM     21 CL   UNL     1       7.918  -2.926  -2.240  0.00  0.00    -0.083 Cl
ATOM     22 CL   UNL     1       2.535  -2.606  -2.556  0.00  0.00    -0.083 Cl
ENDBRANCH  11  15
BRANCH   1  24
ATOM     23  N   UNL     1       0.560  -7.519   0.697  0.00  0.00    -0.312 N 
ATOM     24  C   UNL     1       1.647  -6.747   0.896  0.00  0.00    +0.218 C 
ATOM     25  O   UNL     1       1.617  -5.571   0.602  0.00  0.00    -0.275 OA
ATOM     26  H   UNL     1       0.604  -8.472   0.870  0.00  0.00    +0.149 HD
BRANCH  23  27
ATOM     27  C   UNL     1      -0.688  -6.918   0.220  0.00  0.00    +0.148 C 
BRANCH  27  29
ATOM     28  C   UNL     1      -3.104  -7.341  -0.253  0.00  0.00    +0.053 C 
ATOM     29  C   UNL     1      -1.787  -7.982   0.188  0.00  0.00    +0.187 C 
BRANCH  29  30
ATOM     30  O   UNL     1      -1.426  -9.011  -0.736  0.00  0.00    -0.486 OA
BRANCH  30  31
ATOM     31  C   UNL     1      -1.964 -10.242  -0.529  0.00  0.00    +0.139 A 
ATOM     32  C   UNL     1      -2.927 -10.423   0.453  0.00  0.00    +0.047 A 
ATOM     33  C   UNL     1      -3.473 -11.675   0.661  0.00  0.00    +0.004 A 
ATOM     34  C   UNL     1      -3.060 -12.748  -0.108  0.00  0.00    +0.002 A 
ATOM     35  C   UNL     1      -2.100 -12.571  -1.087  0.00  0.00    +0.023 A 
ATOM     36  C   UNL     1      -1.555 -11.319  -1.303  0.00  0.00    +0.083 A 
ATOM     37 CL   UNL     1      -0.354 -11.095  -2.537  0.00  0.00    -0.080 Cl
ENDBRANCH  30  31
ENDBRANCH  29  30
ENDBRANCH  27  29
ENDBRANCH  23  27
ENDBRANCH   1  24
TORSDOF 6
