REMARK  Name = ZINC15945250
REMARK  6 active torsions:
REMARK  status: ('A' for Active; 'I' for Inactive)
REMARK    1  A    between atoms: C_4  and  C_7
REMARK    2  A    between atoms: C_7  and  N_61
REMARK    3  A    between atoms: C_18  and  C_21
REMARK    4  A    between atoms: C_24  and  O_27
REMARK    5  A    between atoms: O_27  and  C_28
REMARK    6  A    between atoms: C_28  and  C_30
REMARK                            x       y       z     vdW  Elec       q    Type
REMARK                         _______ _______ _______ _____ _____    ______ ____
ROOT
ATOM      1  C   UNL     1       0.618  -4.545  -1.527  0.00  0.00    -0.073 C 
ATOM      2  C   UNL     1       0.324  -4.903  -2.987  0.00  0.00    +0.018 C 
ATOM      3  C   UNL     1       1.397  -4.262  -3.860  0.00  0.00    -0.027 A 
ATOM      4  C   UNL     1       2.158  -3.257  -3.366  0.00  0.00    -0.021 A 
ATOM      5  S   UNL     1       3.254  -2.822  -4.690  0.00  0.00    -0.080 S 
ATOM      6  C   UNL     1       2.714  -3.946  -5.864  0.00  0.00    +0.080 A 
ATOM      7  C   UNL     1       1.681  -4.654  -5.229  0.00  0.00    +0.068 A 
ATOM      8  C   UNL     1       1.006  -5.719  -6.004  0.00  0.00    +0.248 C 
ATOM      9  O   UNL     1       0.189  -6.459  -5.487  0.00  0.00    -0.270 OA
ATOM     10  N   UNL     1       1.331  -5.836  -7.308  0.00  0.00    -0.289 N 
ATOM     11  C   UNL     1       2.118  -4.844  -8.034  0.00  0.00    +0.190 C 
ATOM     12  N   UNL     1       3.109  -4.199  -7.152  0.00  0.00    -0.316 N 
ATOM     13  C   UNL     1       2.069  -2.664  -1.996  0.00  0.00    -0.035 C 
ATOM     14  H   UNL     1       1.027  -6.622  -7.789  0.00  0.00    +0.151 HD
ATOM     15  H   UNL     1       3.996  -3.966  -7.468  0.00  0.00    +0.149 HD
ATOM     16  N   UNL     1       0.775  -3.082  -1.403  0.00  0.00    +0.386 N 
ATOM     17  H   UNL     1       0.011  -2.619  -1.909  0.00  0.00    -0.081 HD
ENDROOT
BRANCH  11  18
ATOM     18  C   UNL     1       1.194  -3.792  -8.590  0.00  0.00    -0.009 A 
ATOM     19  C   UNL     1       1.653  -2.502  -8.784  0.00  0.00    +0.010 A 
ATOM     20  C   UNL     1       0.809  -1.537  -9.299  0.00  0.00    +0.047 A 
ATOM     21  C   UNL     1      -0.503  -1.861  -9.612  0.00  0.00    +0.132 A 
ATOM     22  C   UNL     1      -0.963  -3.154  -9.412  0.00  0.00    +0.047 A 
ATOM     23  C   UNL     1      -0.114  -4.117  -8.902  0.00  0.00    +0.010 A 
BRANCH  21  24
ATOM     24  O   UNL     1      -1.337  -0.912 -10.115  0.00  0.00    -0.422 OA
BRANCH  24  25
ATOM     25  C   UNL     1      -2.345  -0.501  -9.321  0.00  0.00    +0.344 C 
ATOM     26  O   UNL     1      -2.415  -0.897  -8.174  0.00  0.00    -0.245 OA
BRANCH  25  27
ATOM     27  C   UNL     1      -3.364   0.432  -9.844  0.00  0.00    +0.059 A 
ATOM     28  C   UNL     1      -3.282   0.893 -11.159  0.00  0.00    +0.015 A 
ATOM     29  C   UNL     1      -4.240   1.760 -11.643  0.00  0.00    +0.001 A 
ATOM     30  C   UNL     1      -5.274   2.181 -10.825  0.00  0.00    +0.000 A 
ATOM     31  C   UNL     1      -5.358   1.731  -9.519  0.00  0.00    +0.001 A 
ATOM     32  C   UNL     1      -4.410   0.860  -9.024  0.00  0.00    +0.015 A 
ENDBRANCH  25  27
ENDBRANCH  24  25
ENDBRANCH  21  24
ENDBRANCH  11  18
BRANCH  16  33
ATOM     33  C   UNL     1       0.720  -2.686   0.021  0.00  0.00    -0.043 C 
BRANCH  33  37
ATOM     34  C   UNL     1       0.576   1.576   0.267  0.00  0.00    +0.000 A 
ATOM     35  C   UNL     1      -0.596   0.850   0.173  0.00  0.00    +0.000 A 
ATOM     36  C   UNL     1      -0.549  -0.530   0.093  0.00  0.00    +0.002 A 
ATOM     37  C   UNL     1       0.669  -1.182   0.107  0.00  0.00    -0.064 A 
ATOM     38  C   UNL     1       1.841  -0.455   0.200  0.00  0.00    +0.002 A 
ATOM     39  C   UNL     1       1.795   0.924   0.279  0.00  0.00    +0.000 A 
ENDBRANCH  33  37
ENDBRANCH  16  33
TORSDOF 6
