REMARK  Name = ZINC08991698
REMARK  5 active torsions:
REMARK  status: ('A' for Active; 'I' for Inactive)
REMARK    1  A    between atoms: C_6  and  C_7
REMARK    2  A    between atoms: C_7  and  N_8
REMARK    3  A    between atoms: C_11  and  C_16
REMARK    4  A    between atoms: C_16  and  C_17
REMARK    5  A    between atoms: C_17  and  C_18
REMARK                            x       y       z     vdW  Elec       q    Type
REMARK                         _______ _______ _______ _____ _____    ______ ____
ROOT
ATOM      1  N   UNL     1      -1.727  -1.016  -1.368  0.00  0.00    -0.220 N 
ATOM      2  C   UNL     1      -2.515  -0.179  -2.072  0.00  0.00    +0.244 C 
ATOM      3  O   UNL     1      -2.983   0.875  -1.698  0.00  0.00    -0.273 OA
ATOM      4  C   UNL     1      -2.696  -0.831  -3.429  0.00  0.00    +0.161 C 
ATOM      5  N   UNL     1      -1.915  -2.075  -3.322  0.00  0.00    -0.288 N 
ATOM      6  C   UNL     1      -1.383  -2.091  -2.086  0.00  0.00    +0.309 C 
ATOM      7  O   UNL     1      -0.673  -2.984  -1.667  0.00  0.00    -0.252 OA
ATOM      8  H   UNL     1      -1.803  -2.750  -4.010  0.00  0.00    +0.151 HD
ENDROOT
BRANCH   1   9
ATOM      9  C   UNL     1      -1.294  -0.774   0.010  0.00  0.00    +0.153 C 
BRANCH   9  15
ATOM     10  C   UNL     1      -0.017   1.378   0.010  0.00  0.00    +0.009 A 
ATOM     11  C   UNL     1       1.170   2.088   0.002  0.00  0.00    +0.050 A 
ATOM     12  C   UNL     1       2.380   1.416  -0.013  0.00  0.00    +0.166 A 
ATOM     13  C   UNL     1       2.399   0.023  -0.021  0.00  0.00    +0.167 A 
ATOM     14  C   UNL     1       1.207  -0.682  -0.014  0.00  0.00    +0.054 A 
ATOM     15  C   UNL     1       0.002  -0.004   0.002  0.00  0.00    -0.026 A 
ATOM     16  O   UNL     1       3.698  -0.395  -0.036  0.00  0.00    -0.453 OA
ATOM     17  C   UNL     1       4.466   0.750  -0.450  0.00  0.00    +0.466 C 
ATOM     18  O   UNL     1       3.668   1.870  -0.024  0.00  0.00    -0.453 OA
ENDBRANCH   9  15
ENDBRANCH   1   9
BRANCH   4  19
ATOM     19  C   UNL     1      -4.172  -1.139  -3.686  0.00  0.00    +0.041 C 
BRANCH  19  20
ATOM     20  C   UNL     1      -4.341  -1.679  -5.107  0.00  0.00    +0.098 C 
BRANCH  20  21
ATOM     21  C   UNL     1      -5.795  -1.982  -5.360  0.00  0.00    +0.216 C 
ATOM     22  O   UNL     1      -6.616  -1.786  -4.490  0.00  0.00    -0.276 OA
ATOM     23  N   UNL     1      -6.183  -2.472  -6.554  0.00  0.00    -0.301 N 
ATOM     24  C   UNL     1      -5.179  -2.701  -7.569  0.00  0.00    +0.108 C 
ATOM     25  C   UNL     1      -4.996  -1.418  -8.418  0.00  0.00    +0.019 C 
ATOM     26  C   UNL     1      -6.170  -1.203  -9.277  0.00  0.00    +0.002 C 
ATOM     27  C   UNL     1      -7.472  -0.970  -8.517  0.00  0.00    +0.002 C 
ATOM     28  C   UNL     1      -8.091  -2.301  -8.165  0.00  0.00    +0.019 C 
ATOM     29  C   UNL     1      -7.615  -2.759  -6.770  0.00  0.00    +0.108 C 
ENDBRANCH  20  21
ENDBRANCH  19  20
ENDBRANCH   4  19
TORSDOF 5
