REMARK  Name = ZINC13396024
REMARK  7 active torsions:
REMARK  status: ('A' for Active; 'I' for Inactive)
REMARK    1  A    between atoms: C_1  and  C_2
REMARK    2  A    between atoms: C_4  and  C_8
REMARK    3  A    between atoms: C_5  and  C_7
REMARK    4  A    between atoms: C_14  and  C_16
REMARK    5  A    between atoms: C_17  and  C_18
REMARK    6  A    between atoms: C_20  and  C_24
REMARK    7  A    between atoms: C_21  and  C_23
REMARK                            x       y       z     vdW  Elec       q    Type
REMARK                         _______ _______ _______ _____ _____    ______ ____
ROOT
ATOM      1  C   UNL     1       0.032  -0.363   2.454  0.00  0.00    +0.081 A 
ATOM      2  C   UNL     1       0.053  -1.224   3.515  0.00  0.00    +0.077 A 
ATOM      3  S   UNL     1       0.052  -0.072   4.880  0.00  0.00    -0.060 S 
ATOM      4  C   UNL     1       0.024   1.391   3.945  0.00  0.00    +0.165 A 
ATOM      5  N   UNL     1       0.023   0.937   2.708  0.00  0.00    -0.225 NA
ATOM      6  N   UNL     1       0.011   2.706   4.389  0.00  0.00    -0.261 N 
ATOM      7  C   UNL     1       0.021   2.972   5.710  0.00  0.00    +0.243 C 
ATOM      8  O   UNL     1       0.041   2.058   6.515  0.00  0.00    -0.270 OA
ATOM      9  H   UNL     1      -0.005   3.434   3.748  0.00  0.00    +0.157 HD
ENDROOT
BRANCH   1  13
ATOM     10  C   UNL     1       0.045  -4.069  -1.019  0.00  0.00    +0.051 C 
ATOM     11  C   UNL     1       0.032  -2.659  -0.487  0.00  0.00    -0.012 A 
ATOM     12  C   UNL     1       0.039  -2.236   0.798  0.00  0.00    +0.021 A 
ATOM     13  C   UNL     1       0.024  -0.870   1.059  0.00  0.00    +0.011 A 
ATOM     14  C   UNL     1       0.002  -0.004   0.002  0.00  0.00    -0.004 A 
ATOM     15  S   UNL     1      -0.004  -1.120  -1.391  0.00  0.00    -0.098 S 
ATOM     16  C   UNL     1      -0.018   1.503   0.010  0.00  0.00    +0.052 C 
ENDBRANCH   1  13
BRANCH   7  17
ATOM     17  C   UNL     1       0.008   4.313   6.163  0.00  0.00    +0.071 C 
ATOM     18  C   UNL     1       0.018   4.580   7.492  0.00  0.00    +0.051 C 
BRANCH  18  19
ATOM     19  C   UNL     1       0.005   5.923   7.945  0.00  0.00    +0.129 A 
ATOM     20  C   UNL     1       0.013   6.323   9.250  0.00  0.00    +0.064 A 
ATOM     21  C   UNL     1      -0.006   7.740   9.239  0.00  0.00    +0.104 A 
ATOM     22  C   UNL     1      -0.024   8.120   7.913  0.00  0.00    +0.117 A 
ATOM     23  O   UNL     1      -0.012   7.019   7.158  0.00  0.00    -0.460 OA
ATOM     24  C   UNL     1      -0.048   9.538   7.404  0.00  0.00    +0.087 C 
BRANCH  21  25
ATOM     25  C   UNL     1      -0.005   8.631  10.413  0.00  0.00    +0.390 C 
ATOM     26  O   UNL     1      -0.022   9.837  10.260  0.00  0.00    -0.240 OA
ATOM     27  O   UNL     1       0.015   8.109  11.655  0.00  0.00    -0.240 OA
ENDBRANCH  21  25
ENDBRANCH  18  19
ENDBRANCH   7  17
TORSDOF 4
