REMARK  Name = ZINC09785255
REMARK  5 active torsions:
REMARK  status: ('A' for Active; 'I' for Inactive)
REMARK    1  A    between atoms: C_1  and  C_2
REMARK    2  A    between atoms: C_5  and  C_27
REMARK    3  A    between atoms: C_10  and  C_12
REMARK    4  A    between atoms: C_12  and  C_13
REMARK    5  A    between atoms: N_21  and  C_22
REMARK                            x       y       z     vdW  Elec       q    Type
REMARK                         _______ _______ _______ _____ _____    ______ ____
ROOT
ATOM      1  C   UNL     1       1.019   1.955   0.003  0.00  0.00    +0.059 A 
ATOM      2  C   UNL     1      -0.013   1.076   0.008  0.00  0.00    +0.072 A 
ATOM      3  S   UNL     1      -1.404   2.197   0.019  0.00  0.00    -0.060 S 
ATOM      4  C   UNL     1      -0.499   3.679   0.027  0.00  0.00    +0.166 A 
ATOM      5  N   UNL     1       0.746   3.245   0.012  0.00  0.00    -0.229 NA
ATOM      6  N   UNL     1      -0.967   4.988   0.037  0.00  0.00    -0.248 N 
ATOM      7  C   UNL     1      -2.293   5.229   0.052  0.00  0.00    +0.306 C 
ATOM      8  O   UNL     1      -3.080   4.302   0.055  0.00  0.00    -0.252 OA
ATOM      9  N   UNL     1      -2.747   6.498   0.062  0.00  0.00    -0.296 N 
ATOM     10  H   UNL     1      -0.340   5.728   0.035  0.00  0.00    +0.158 HD
ATOM     11  H   UNL     1      -2.120   7.238   0.059  0.00  0.00    +0.151 HD
ENDROOT
BRANCH   9  12
ATOM     12  C   UNL     1      -4.189   6.761   0.077  0.00  0.00    +0.074 C 
ATOM     13  C   UNL     1      -4.732   6.808  -1.365  0.00  0.00    +0.022 C 
ATOM     14  C   UNL     1      -5.805   7.926  -1.331  0.00  0.00    +0.002 C 
ATOM     15  C   UNL     1      -5.170   8.979  -0.390  0.00  0.00    +0.002 C 
ATOM     16  C   UNL     1      -4.466   8.141   0.698  0.00  0.00    +0.022 C 
ENDBRANCH   9  12
BRANCH   1  17
ATOM     17  C   UNL     1       2.446   1.469  -0.014  0.00  0.00    +0.152 C 
BRANCH  17  25
ATOM     18  C   UNL     1       6.695  -1.120  -0.448  0.00  0.00    +0.009 C 
ATOM     19  C   UNL     1       5.830  -0.233  -1.345  0.00  0.00    +0.004 C 
ATOM     20  C   UNL     1       6.703   0.398  -2.433  0.00  0.00    +0.009 C 
ATOM     21  C   UNL     1       5.833   1.260  -3.351  0.00  0.00    +0.004 C 
ATOM     22  C   UNL     1       5.192   2.385  -2.532  0.00  0.00    +0.111 C 
ATOM     23  N   UNL     1       4.470   1.793  -1.398  0.00  0.00    -0.301 N 
ATOM     24  C   UNL     1       5.191   0.880  -0.500  0.00  0.00    +0.111 C 
ATOM     25  C   UNL     1       3.172   2.085  -1.181  0.00  0.00    +0.221 C 
ATOM     26  O   UNL     1       2.589   2.844  -1.927  0.00  0.00    -0.275 OA
ATOM     27  C   UNL     1       4.736   0.395  -3.975  0.00  0.00    +0.009 C 
ENDBRANCH  17  25
ENDBRANCH   1  17
TORSDOF 3
