REMARK  Name = ZINC49060140
REMARK  6 active torsions:
REMARK  status: ('A' for Active; 'I' for Inactive)
REMARK    1  A    between atoms: C_1  and  C_2
REMARK    2  A    between atoms: C_5  and  C_8
REMARK    3  A    between atoms: N_13  and  C_15
REMARK    4  A    between atoms: C_15  and  C_17
REMARK    5  A    between atoms: C_15  and  C_18
REMARK    6  A    between atoms: N_20  and  C_21
REMARK                            x       y       z     vdW  Elec       q    Type
REMARK                         _______ _______ _______ _____ _____    ______ ____
ROOT
ATOM      1  C   UNL     1       0.094  -6.863   2.465  0.00  0.00    +0.194 C 
ATOM      2  C   UNL     1      -1.160  -6.469   3.248  0.00  0.00    +0.043 C 
ENDROOT
BRANCH   1   8
ATOM      3  C   UNL     1       0.058  -4.256  -0.021  0.00  0.00    +0.092 A 
ATOM      4  C   UNL     1       0.067  -4.954  -1.252  0.00  0.00    +0.035 A 
ATOM      5  C   UNL     1       0.085  -6.317  -1.220  0.00  0.00    +0.074 A 
ATOM      6  C   UNL     1       0.094  -6.949   0.043  0.00  0.00    +0.268 A 
ATOM      7  O   UNL     1       0.111  -8.167   0.120  0.00  0.00    -0.266 OA
ATOM      8  N   UNL     1       0.085  -6.198   1.160  0.00  0.00    -0.217 N 
ATOM      9  N   UNL     1       0.073  -4.915   1.113  0.00  0.00    -0.168 NA
BRANCH   3  14
ATOM     10  C   UNL     1      -0.018   1.503   0.010  0.00  0.00    +0.044 C 
ATOM     11  C   UNL     1       0.002  -0.004   0.002  0.00  0.00    -0.050 A 
ATOM     12  C   UNL     1       0.006  -0.686  -1.201  0.00  0.00    +0.004 A 
ATOM     13  C   UNL     1       0.024  -2.066  -1.215  0.00  0.00    +0.010 A 
ATOM     14  C   UNL     1       0.039  -2.772  -0.013  0.00  0.00    +0.002 A 
ATOM     15  C   UNL     1       0.036  -2.079   1.196  0.00  0.00    +0.010 A 
ATOM     16  C   UNL     1       0.023  -0.700   1.198  0.00  0.00    +0.004 A 
ENDBRANCH   3  14
ENDBRANCH   1   8
BRANCH   1  17
ATOM     17  C   UNL     1       1.319  -6.442   3.235  0.00  0.00    +0.244 C 
ATOM     18  O   UNL     1       2.107  -5.663   2.741  0.00  0.00    -0.273 OA
ATOM     19  N   UNL     1       1.540  -6.931   4.471  0.00  0.00    -0.252 N 
ATOM     20  H   UNL     1       0.910  -7.554   4.866  0.00  0.00    +0.158 HD
BRANCH  19  21
ATOM     21  C   UNL     1       2.668  -6.543   5.180  0.00  0.00    +0.227 A 
ATOM     22  C   UNL     1       3.012  -6.958   6.418  0.00  0.00    +0.037 A 
ATOM     23  C   UNL     1       4.222  -6.328   6.770  0.00  0.00    +0.089 A 
ATOM     24  N   UNL     1       4.588  -5.570   5.783  0.00  0.00    -0.081 NA
ATOM     25  O   UNL     1       3.619  -5.691   4.754  0.00  0.00    -0.339 OA
ATOM     26  C   UNL     1       4.917  -6.542   8.093  0.00  0.00    +0.059 C 
ATOM     27  C   UNL     1       3.912  -7.171   9.066  0.00  0.00    +0.007 C 
ATOM     28  C   UNL     1       3.251  -8.386   8.412  0.00  0.00    +0.005 C 
ATOM     29  C   UNL     1       2.281  -7.922   7.319  0.00  0.00    +0.042 C 
ENDBRANCH  19  21
ENDBRANCH   1  17
TORSDOF 4
