REMARK  Name = ZINC62777446
REMARK  6 active torsions:
REMARK  status: ('A' for Active; 'I' for Inactive)
REMARK    1  A    between atoms: C_1  and  C_2
REMARK    2  A    between atoms: C_2  and  C_3
REMARK    3  A    between atoms: C_3  and  N_4
REMARK    4  A    between atoms: N_4  and  C_5
REMARK    5  A    between atoms: C_5  and  C_7
REMARK    6  A    between atoms: C_5  and  C_13
REMARK                            x       y       z     vdW  Elec       q    Type
REMARK                         _______ _______ _______ _____ _____    ______ ____
ROOT
ATOM      1  C   UNL     1       1.472  -2.466   2.424  0.00  0.00    +0.012 C 
ENDROOT
BRANCH   1   2
ATOM      2  C   UNL     1       1.387  -3.970   2.480  0.00  0.00    -0.040 A 
ATOM      3  C   UNL     1       1.202  -4.692   1.317  0.00  0.00    +0.031 A 
ATOM      4  C   UNL     1       1.124  -6.075   1.369  0.00  0.00    +0.067 A 
ATOM      5  C   UNL     1       1.232  -6.733   2.596  0.00  0.00    +0.068 A 
ATOM      6  C   UNL     1       1.417  -6.000   3.758  0.00  0.00    +0.043 A 
ATOM      7  C   UNL     1       1.500  -4.622   3.696  0.00  0.00    +0.022 A 
ATOM      8 BR   UNL     1       1.761  -3.622   5.280  0.00  0.00    -0.050 Br
ATOM      9  N   UNL     1       1.117  -8.096   2.334  0.00  0.00    -0.306 N 
ATOM     10  H   UNL     1       1.153  -8.806   2.994  0.00  0.00    +0.170 HD
ATOM     11  C   UNL     1       0.947  -8.260   1.008  0.00  0.00    +0.325 A 
ATOM     12  O   UNL     1       0.812  -9.331   0.446  0.00  0.00    -0.247 OA
ATOM     13  N   UNL     1       0.947  -7.060   0.399  0.00  0.00    -0.306 N 
ATOM     14  H   UNL     1       0.841  -6.906  -0.553  0.00  0.00    +0.170 HD
ENDBRANCH   1   2
BRANCH   1  15
ATOM     15  C   UNL     1       2.918  -2.048   2.352  0.00  0.00    +0.053 A 
ATOM     16  C   UNL     1       3.779  -1.880   3.442  0.00  0.00    +0.042 A 
ATOM     17  C   UNL     1       4.987  -1.501   2.964  0.00  0.00    +0.105 A 
ATOM     18  N   UNL     1       4.894  -1.431   1.619  0.00  0.00    -0.285 N 
ATOM     19  N   UNL     1       3.587  -1.783   1.259  0.00  0.00    -0.180 NA
ATOM     20  H   UNL     1       5.607  -1.183   1.010  0.00  0.00    +0.188 HD
ENDBRANCH   1  15
BRANCH   1  21
ATOM     21  N   UNL     1       0.762  -1.980   1.234  0.00  0.00    +0.387 N 
ATOM     22  H   UNL     1      -0.185  -2.329   1.241  0.00  0.00    -0.084 HD
ATOM     23  H   UNL     1       1.234  -2.305   0.403  0.00  0.00    -0.084 HD
BRANCH  21  24
ATOM     24  C   UNL     1       0.742  -0.511   1.242  0.00  0.00    -0.081 C 
BRANCH  24  26
ATOM     25  C   UNL     1      -0.019   1.526   0.010  0.00  0.00    +0.002 C 
ATOM     26  C   UNL     1       0.002  -0.004   0.002  0.00  0.00    -0.022 C 
ENDBRANCH  24  26
ENDBRANCH  21  24
ENDBRANCH   1  21
TORSDOF 5
