REMARK  Name = ZINC65182178
REMARK  9 active torsions:
REMARK  status: ('A' for Active; 'I' for Inactive)
REMARK    1  A    between atoms: C_1  and  C_2
REMARK    2  A    between atoms: C_5  and  C_9
REMARK    3  A    between atoms: C_6  and  C_8
REMARK    4  A    between atoms: N_11  and  C_12
REMARK    5  A    between atoms: N_11  and  C_13
REMARK    6  A    between atoms: C_13  and  C_14
REMARK    7  A    between atoms: C_14  and  C_15
REMARK    8  A    between atoms: C_18  and  C_21
REMARK    9  A    between atoms: C_26  and  C_31
REMARK                            x       y       z     vdW  Elec       q    Type
REMARK                         _______ _______ _______ _____ _____    ______ ____
ROOT
ATOM      1  C   UNL     1      -1.538  -8.367  -1.126  0.00  0.00    +0.139 C 
ATOM      2  N   UNL     1      -0.507  -9.130  -1.173  0.00  0.00    -0.072 NA
ATOM      3  O   UNL     1      -0.884 -10.494  -1.155  0.00  0.00    -0.367 OA
ATOM      4  C   UNL     1      -2.319 -10.515  -1.090  0.00  0.00    +0.318 C 
ATOM      5  N   UNL     1      -2.703  -9.095  -1.067  0.00  0.00    -0.291 N 
ATOM      6  H   UNL     1      -3.604  -8.740  -1.022  0.00  0.00    +0.151 HD
ENDROOT
BRANCH   4   7
ATOM      7  C   UNL     1      -2.901 -11.214  -2.320  0.00  0.00    +0.165 C 
ATOM      8  C   UNL     1      -2.551 -12.685  -2.298  0.00  0.00    +0.012 C 
ATOM      9  C   UNL     1      -3.728 -13.351  -2.263  0.00  0.00    -0.004 A 
ATOM     10  C   UNL     1      -4.062 -14.779  -2.229  0.00  0.00    +0.013 A 
ATOM     11  C   UNL     1      -5.363 -15.148  -2.197  0.00  0.00    -0.050 A 
ATOM     12  C   UNL     1      -6.397 -14.203  -2.195  0.00  0.00    +0.005 A 
ATOM     13  C   UNL     1      -6.169 -12.872  -2.225  0.00  0.00    +0.026 A 
ATOM     14  C   UNL     1      -4.839 -12.372  -2.260  0.00  0.00    +0.043 A 
ATOM     15  N   UNL     1      -4.366 -11.148  -2.294  0.00  0.00    -0.373 N 
ATOM     16  C   UNL     1      -5.709 -16.614  -2.162  0.00  0.00    +0.044 C 
ATOM     17  H   UNL     1      -4.896 -10.335  -2.301  0.00  0.00    +0.160 HD
ENDBRANCH   4   7
BRANCH   1  18
ATOM     18  C   UNL     1      -1.478  -6.861  -1.128  0.00  0.00    +0.094 C 
BRANCH  18  19
ATOM     19  C   UNL     1      -0.018  -6.409  -1.201  0.00  0.00    +0.115 C 
BRANCH  19  22
ATOM     20  C   UNL     1       0.126  -4.272  -0.038  0.00  0.00    +0.247 C 
ATOM     21  O   UNL     1       0.234  -4.881   1.008  0.00  0.00    -0.270 OA
ATOM     22  N   UNL     1       0.040  -4.945  -1.203  0.00  0.00    -0.300 N 
ATOM     23  C   UNL     1       0.005  -4.212  -2.471  0.00  0.00    +0.132 C 
BRANCH  20  28
ATOM     24  C   UNL     1      -0.021   1.480  -0.021  0.00  0.00    +0.044 C 
ATOM     25  C   UNL     1       0.017  -0.026  -0.025  0.00  0.00    -0.050 A 
ATOM     26  C   UNL     1       0.878  -0.691  -0.881  0.00  0.00    +0.004 A 
ATOM     27  C   UNL     1       0.918  -2.069  -0.890  0.00  0.00    +0.013 A 
ATOM     28  C   UNL     1       0.088  -2.794  -0.034  0.00  0.00    +0.040 A 
ATOM     29  C   UNL     1      -0.778  -2.118   0.827  0.00  0.00    -0.038 A 
ATOM     30  C   UNL     1      -0.805  -0.739   0.830  0.00  0.00    +0.007 A 
ATOM     31  C   UNL     1      -1.678  -2.893   1.755  0.00  0.00    +0.044 C 
ENDBRANCH  20  28
ENDBRANCH  19  22
ENDBRANCH  18  19
ENDBRANCH   1  18
TORSDOF 5
