REMARK  Name = ZINC38745583
REMARK  7 active torsions:
REMARK  status: ('A' for Active; 'I' for Inactive)
REMARK    1  A    between atoms: C_1  and  C_2
REMARK    2  A    between atoms: C_2  and  C_3
REMARK    3  A    between atoms: C_2  and  C_4
REMARK    4  A    between atoms: C_10  and  C_13
REMARK    5  A    between atoms: C_16  and  C_19
REMARK    6  A    between atoms: C_22  and  O_25
REMARK    7  A    between atoms: O_25  and  C_26
REMARK                            x       y       z     vdW  Elec       q    Type
REMARK                         _______ _______ _______ _____ _____    ______ ____
ROOT
ATOM      1  C   UNL     1       2.822  -4.296  -0.611  0.00  0.00    +0.185 C 
ATOM      2  C   UNL     1       3.731  -5.456  -0.975  0.00  0.00    +0.034 C 
ATOM      3  C   UNL     1       3.905  -6.108   0.192  0.00  0.00    +0.091 C 
ATOM      4  N   UNL     1       3.221  -5.487   1.188  0.00  0.00    -0.154 NA
ATOM      5  N   UNL     1       2.595  -4.481   0.832  0.00  0.00    -0.177 NA
ENDROOT
BRANCH   1  12
ATOM      6  C   UNL     1       0.707  -0.490  -1.238  0.00  0.00    +0.154 A 
ATOM      7  N   UNL     1       0.355  -0.242  -2.464  0.00  0.00    -0.132 NA
ATOM      8  N   UNL     1       1.166  -0.817  -3.282  0.00  0.00    -0.121 NA
ATOM      9  C   UNL     1       2.062  -1.471  -2.611  0.00  0.00    +0.210 A 
ATOM     10  N   UNL     1       1.847  -1.273  -1.271  0.00  0.00    -0.224 N 
ATOM     11  N   UNL     1       2.717  -1.814  -0.371  0.00  0.00    -0.265 N 
ATOM     12  C   UNL     1       3.517  -2.959  -0.881  0.00  0.00    +0.182 C 
ATOM     13  S   UNL     1       3.485  -2.539  -2.676  0.00  0.00    -0.058 S 
ATOM     14  H   UNL     1       3.314  -1.104   0.026  0.00  0.00    +0.168 HD
BRANCH   6  16
ATOM     15  C   UNL     1      -0.019   1.526   0.010  0.00  0.00    +0.015 C 
ATOM     16  C   UNL     1       0.002  -0.004   0.002  0.00  0.00    +0.052 C 
ATOM     17  C   UNL     1      -1.433  -0.534   0.013  0.00  0.00    +0.015 C 
ENDBRANCH   6  16
ENDBRANCH   1  12
BRANCH   3  18
ATOM     18  C   UNL     1       4.727  -7.331   0.363  0.00  0.00    +0.002 A 
ATOM     19  C   UNL     1       5.393  -7.883  -0.729  0.00  0.00    +0.013 A 
ATOM     20  C   UNL     1       6.157  -9.020  -0.566  0.00  0.00    +0.046 A 
ATOM     21  C   UNL     1       6.261  -9.614   0.684  0.00  0.00    +0.120 A 
ATOM     22  C   UNL     1       5.599  -9.066   1.774  0.00  0.00    +0.046 A 
ATOM     23  C   UNL     1       4.838  -7.926   1.619  0.00  0.00    +0.013 A 
BRANCH  21  24
ATOM     24  O   UNL     1       7.014 -10.735   0.842  0.00  0.00    -0.495 OA
ATOM     25  C   UNL     1       7.078 -11.294   2.155  0.00  0.00    +0.277 C 
ENDBRANCH  21  24
ENDBRANCH   3  18
TORSDOF 4
