REMARK  Name = ZINC41197227
REMARK  7 active torsions:
REMARK  status: ('A' for Active; 'I' for Inactive)
REMARK    1  A    between atoms: C_1  and  C_2
REMARK    2  A    between atoms: C_2  and  C_3
REMARK    3  A    between atoms: C_2  and  C_4
REMARK    4  A    between atoms: N_6  and  C_7
REMARK    5  A    between atoms: C_10  and  N_13
REMARK    6  A    between atoms: C_14  and  C_16
REMARK    7  A    between atoms: N_18  and  C_19
REMARK                            x       y       z     vdW  Elec       q    Type
REMARK                         _______ _______ _______ _____ _____    ______ ____
ROOT
ATOM      1  N   UNL     1       2.602  -2.027   7.167  0.00  0.00    -0.278 N 
ATOM      2  C   UNL     1       1.985  -1.822   8.348  0.00  0.00    +0.303 C 
ATOM      3  O   UNL     1       0.970  -1.157   8.394  0.00  0.00    -0.265 OA
ATOM      4  H   UNL     1       3.449  -2.501   7.138  0.00  0.00    +0.155 HD
ENDROOT
BRANCH   1   8
ATOM      5  C   UNL     1       0.875  -0.630   3.641  0.00  0.00    +0.034 A 
ATOM      6  C   UNL     1       0.745   0.100   4.815  0.00  0.00    +0.025 A 
ATOM      7  C   UNL     1       1.317  -0.362   5.983  0.00  0.00    +0.025 A 
ATOM      8  C   UNL     1       2.023  -1.559   5.984  0.00  0.00    +0.034 A 
ATOM      9  C   UNL     1       2.153  -2.289   4.809  0.00  0.00    +0.025 A 
ATOM     10  C   UNL     1       1.577  -1.829   3.643  0.00  0.00    +0.025 A 
BRANCH   5  13
ATOM     11  C   UNL     1      -0.221  -1.032   1.567  0.00  0.00    +0.220 C 
ATOM     12  O   UNL     1      -0.110  -2.225   1.753  0.00  0.00    -0.275 OA
ATOM     13  N   UNL     1       0.295  -0.161   2.456  0.00  0.00    -0.285 N 
ATOM     14  H   UNL     1       0.266   0.792   2.275  0.00  0.00    +0.155 HD
BRANCH  11  16
ATOM     15  C   UNL     1       0.021   0.330  -0.491  0.00  0.00    +0.017 C 
ATOM     16  C   UNL     1      -0.937  -0.524   0.343  0.00  0.00    +0.069 C 
ATOM     17  C   UNL     1      -1.422  -1.710  -0.494  0.00  0.00    +0.017 C 
ENDBRANCH  11  16
ENDBRANCH   5  13
ENDBRANCH   1   8
BRANCH   2  18
ATOM     18  C   UNL     1       2.550  -2.410   9.598  0.00  0.00    +0.300 C 
ATOM     19  O   UNL     1       3.565  -3.074   9.552  0.00  0.00    -0.265 OA
ATOM     20  N   UNL     1       1.933  -2.204  10.779  0.00  0.00    -0.301 N 
ATOM     21  H   UNL     1       1.122  -1.674  10.816  0.00  0.00    +0.150 HD
BRANCH  20  22
ATOM     22  C   UNL     1       2.488  -2.782  12.006  0.00  0.00    +0.104 C 
ATOM     23  C   UNL     1       1.382  -2.936  13.072  0.00  0.00    +0.032 C 
ATOM     24  C   UNL     1       1.493  -1.612  13.858  0.00  0.00    +0.037 C 
ATOM     25  C   UNL     1       2.929  -1.167  13.683  0.00  0.00    -0.042 A 
ATOM     26  C   UNL     1       3.503  -1.840  12.617  0.00  0.00    -0.024 A 
ATOM     27  C   UNL     1       4.820  -1.592  12.270  0.00  0.00    +0.006 A 
ATOM     28  C   UNL     1       5.566  -0.675  12.984  0.00  0.00    +0.000 A 
ATOM     29  C   UNL     1       4.997  -0.002  14.049  0.00  0.00    +0.000 A 
ATOM     30  C   UNL     1       3.677  -0.247  14.399  0.00  0.00    +0.004 A 
ENDBRANCH  20  22
ENDBRANCH   2  18
TORSDOF 5
