REMARK  Name = ZINC12050961
REMARK  6 active torsions:
REMARK  status: ('A' for Active; 'I' for Inactive)
REMARK    1  A    between atoms: C_1  and  C_2
REMARK    2  A    between atoms: N_4  and  C_5
REMARK    3  A    between atoms: C_5  and  C_6
REMARK    4  A    between atoms: C_9  and  C_11
REMARK    5  A    between atoms: C_17  and  C_19
REMARK    6  A    between atoms: N_24  and  C_26
REMARK                            x       y       z     vdW  Elec       q    Type
REMARK                         _______ _______ _______ _____ _____    ______ ____
ROOT
ATOM      1  C   UNL     1      -2.954  14.667  -3.792  0.00  0.00    +0.115 A 
ATOM      2  C   UNL     1      -2.125  14.330  -4.828  0.00  0.00    +0.080 A 
ATOM      3  S   UNL     1      -1.981  12.565  -4.578  0.00  0.00    -0.060 S 
ATOM      4  C   UNL     1      -3.029  12.455  -3.135  0.00  0.00    +0.165 A 
ATOM      5  N   UNL     1      -3.390  13.713  -2.972  0.00  0.00    -0.221 NA
ATOM      6  N   UNL     1      -3.376  11.338  -2.386  0.00  0.00    -0.264 N 
ATOM      7  C   UNL     1      -2.899  10.123  -2.725  0.00  0.00    +0.224 C 
ATOM      8  O   UNL     1      -2.167  10.006  -3.684  0.00  0.00    -0.275 OA
ATOM      9  H   UNL     1      -3.962  11.431  -1.618  0.00  0.00    +0.157 HD
ENDROOT
BRANCH   7  10
ATOM     10  C   UNL     1      -3.276   8.912  -1.912  0.00  0.00    +0.102 C 
ATOM     11  C   UNL     1      -2.788   9.052  -0.452  0.00  0.00    +0.110 C 
ATOM     12  C   UNL     1      -2.360   7.652  -0.068  0.00  0.00    +0.221 C 
ATOM     13  O   UNL     1      -2.179   7.268   1.068  0.00  0.00    -0.275 OA
ATOM     14  N   UNL     1      -2.211   6.896  -1.169  0.00  0.00    -0.271 N 
ATOM     15  C   UNL     1      -2.492   7.666  -2.387  0.00  0.00    +0.127 C 
BRANCH  14  16
ATOM     16  C   UNL     1      -1.830   5.548  -1.157  0.00  0.00    +0.040 A 
ATOM     17  C   UNL     1      -1.817   4.819  -2.338  0.00  0.00    +0.027 A 
ATOM     18  C   UNL     1      -1.443   3.489  -2.326  0.00  0.00    +0.051 A 
ATOM     19  C   UNL     1      -1.079   2.878  -1.135  0.00  0.00    +0.162 A 
ATOM     20  C   UNL     1      -1.088   3.606   0.049  0.00  0.00    +0.164 A 
ATOM     21  C   UNL     1      -1.465   4.941   0.036  0.00  0.00    +0.073 A 
ATOM     22  O   UNL     1      -0.727   3.026   1.226  0.00  0.00    -0.485 OA
ATOM     23  C   UNL     1      -0.714   1.595   1.262  0.00  0.00    +0.270 C 
ATOM     24  C   UNL     1       0.001   1.090   0.001  0.00  0.00    +0.270 C 
ATOM     25  O   UNL     1      -0.716   1.565  -1.143  0.00  0.00    -0.485 OA
ENDBRANCH  14  16
ENDBRANCH   7  10
BRANCH   1  29
ATOM     26  C   UNL     1      -3.560  18.242  -3.869  0.00  0.00    +0.123 A 
ATOM     27  C   UNL     1      -4.300  17.924  -2.790  0.00  0.00    +0.047 A 
ATOM     28  C   UNL     1      -4.180  16.531  -2.603  0.00  0.00    +0.052 A 
ATOM     29  C   UNL     1      -3.365  16.072  -3.590  0.00  0.00    +0.154 A 
ATOM     30  O   UNL     1      -2.991  17.122  -4.347  0.00  0.00    -0.457 OA
BRANCH  26  31
ATOM     31  C   UNL     1      -3.392  19.626  -4.442  0.00  0.00    +0.178 C 
BRANCH  31  35
ATOM     32  C   UNL     1      -0.710  22.200  -3.529  0.00  0.00    +0.109 C 
ATOM     33  C   UNL     1      -1.895  21.530  -4.174  0.00  0.00    +0.210 C 
ATOM     34  O   UNL     1      -2.540  22.118  -5.016  0.00  0.00    -0.276 OA
ATOM     35  N   UNL     1      -2.239  20.277  -3.815  0.00  0.00    -0.308 N 
ATOM     36  H   UNL     1      -1.723  19.807  -3.142  0.00  0.00    +0.149 HD
ENDBRANCH  31  35
ENDBRANCH  26  31
ENDBRANCH   1  29
TORSDOF 5
