REMARK  Name = ZINC06074977
REMARK  13 active torsions:
REMARK  status: ('A' for Active; 'I' for Inactive)
REMARK    1  A    between atoms: C_1  and  C_2
REMARK    2  A    between atoms: C_2  and  C_3
REMARK    3  A    between atoms: C_2  and  C_4
REMARK    4  A    between atoms: C_2  and  N_5
REMARK    5  A    between atoms: C_6  and  C_8
REMARK    6  A    between atoms: C_8  and  C_10
REMARK    7  A    between atoms: C_8  and  N_17
REMARK    8  A    between atoms: C_13  and  O_16
REMARK    9  A    between atoms: N_17  and  C_18
REMARK   10  A    between atoms: C_18  and  C_19
REMARK   11  A    between atoms: C_24  and  C_26
REMARK   12  A    between atoms: C_26  and  N_27
REMARK   13  A    between atoms: C_29  and  C_32
REMARK                            x       y       z     vdW  Elec       q    Type
REMARK                         _______ _______ _______ _____ _____    ______ ____
ROOT
ATOM      1  N   UNL     1      -0.069   1.036  -1.190  0.00  0.00    -0.277 N 
ATOM      2  C   UNL     1       0.513   1.764  -2.163  0.00  0.00    +0.240 C 
ATOM      3  O   UNL     1       1.409   2.535  -1.891  0.00  0.00    -0.273 OA
ENDROOT
BRANCH   1   4
ATOM      4  C   UNL     1       0.382   1.176   0.198  0.00  0.00    +0.193 C 
BRANCH   4   5
ATOM      5  C   UNL     1       0.317   2.626   0.603  0.00  0.00    -0.018 A 
ATOM      6  C   UNL     1      -0.774   3.395   0.244  0.00  0.00    +0.009 A 
ATOM      7  C   UNL     1      -0.839   4.723   0.619  0.00  0.00    +0.046 A 
ATOM      8  C   UNL     1       0.198   5.287   1.348  0.00  0.00    +0.117 A 
ATOM      9  C   UNL     1       1.295   4.515   1.703  0.00  0.00    +0.046 A 
ATOM     10  C   UNL     1       1.351   3.186   1.330  0.00  0.00    +0.009 A 
BRANCH   8  11
ATOM     11  O   UNL     1       0.141   6.595   1.713  0.00  0.00    -0.507 OA
ATOM     12  H   UNL     1       0.528   7.202   1.067  0.00  0.00    +0.292 HD
ENDBRANCH   8  11
ENDBRANCH   4   5
BRANCH   4  14
ATOM     13  N   UNL     1       0.033  -0.488   1.994  0.00  0.00    -0.309 N 
ATOM     14  C   UNL     1      -0.510   0.362   1.099  0.00  0.00    +0.238 C 
ATOM     15  O   UNL     1      -1.715   0.470   1.020  0.00  0.00    -0.273 OA
ATOM     16  H   UNL     1       0.997  -0.575   2.058  0.00  0.00    +0.149 HD
BRANCH  13  18
ATOM     17  C   UNL     1      -1.743  -2.169   2.022  0.00  0.00    +0.031 C 
ATOM     18  C   UNL     1      -0.834  -1.279   2.871  0.00  0.00    +0.026 C 
ATOM     19  C   UNL     1       0.027  -2.155   3.784  0.00  0.00    +0.031 C 
ATOM     20  C   UNL     1      -1.690  -0.341   3.724  0.00  0.00    +0.031 C 
ENDBRANCH  13  18
ENDBRANCH   4  14
ENDBRANCH   1   4
BRANCH   1  21
ATOM     21  C   UNL     1      -1.152   0.106  -1.518  0.00  0.00    +0.183 C 
BRANCH  21  22
ATOM     22  C   UNL     1      -2.448   0.865  -1.635  0.00  0.00    +0.122 A 
ATOM     23  C   UNL     1      -3.008   1.295  -2.780  0.00  0.00    +0.046 A 
ATOM     24  C   UNL     1      -4.208   1.954  -2.428  0.00  0.00    +0.041 A 
ATOM     25  C   UNL     1      -4.310   1.888  -1.088  0.00  0.00    +0.195 A 
ATOM     26  O   UNL     1      -3.244   1.222  -0.614  0.00  0.00    -0.466 OA
ENDBRANCH  21  22
ENDBRANCH   1  21
BRANCH   2  27
ATOM     27  C   UNL     1       0.049   1.621  -3.590  0.00  0.00    +0.264 C 
BRANCH  27  28
ATOM     28  N   UNL     1       0.833   2.511  -4.450  0.00  0.00    -0.154 N 
ATOM     29  N   UNL     1       0.524   3.729  -4.740  0.00  0.00    -0.130 NA
ATOM     30  C   UNL     1       1.465   4.205  -5.532  0.00  0.00    +0.205 A 
ATOM     31  N   UNL     1       2.351   3.216  -5.713  0.00  0.00    -0.108 NA
ATOM     32  N   UNL     1       1.934   2.199  -5.039  0.00  0.00    -0.045 NA
BRANCH  30  33
ATOM     33  C   UNL     1       1.526   5.570  -6.113  0.00  0.00    +0.023 A 
ATOM     34  C   UNL     1       0.521   6.493  -5.837  0.00  0.00    +0.014 A 
ATOM     35  C   UNL     1       0.585   7.762  -6.375  0.00  0.00    +0.039 A 
ATOM     36  C   UNL     1       1.641   8.114  -7.199  0.00  0.00    +0.123 A 
ATOM     37  C   UNL     1       2.641   7.197  -7.481  0.00  0.00    +0.039 A 
ATOM     38  C   UNL     1       2.587   5.928  -6.942  0.00  0.00    +0.014 A 
ATOM     39  F   UNL     1       1.698   9.356  -7.729  0.00  0.00    -0.205 F 
ENDBRANCH  30  33
ENDBRANCH  27  28
ENDBRANCH   2  27
TORSDOF 10
