REMARK  Name = ZINC66599508
REMARK  8 active torsions:
REMARK  status: ('A' for Active; 'I' for Inactive)
REMARK    1  A    between atoms: C_1  and  C_2
REMARK    2  A    between atoms: C_2  and  C_3
REMARK    3  A    between atoms: C_3  and  C_4
REMARK    4  A    between atoms: C_4  and  N_5
REMARK    5  A    between atoms: C_10  and  C_12
REMARK    6  A    between atoms: C_12  and  N_13
REMARK    7  A    between atoms: C_22  and  C_24
REMARK    8  A    between atoms: C_28  and  C_29
REMARK                            x       y       z     vdW  Elec       q    Type
REMARK                         _______ _______ _______ _____ _____    ______ ____
ROOT
ATOM      1  N   UNL     1       0.338  -4.792  -0.633  0.00  0.00    -0.301 N 
ATOM      2  C   UNL     1       1.275  -4.867  -1.598  0.00  0.00    +0.302 C 
ATOM      3  O   UNL     1       1.157  -5.676  -2.498  0.00  0.00    -0.253 OA
ATOM      4  N   UNL     1       2.343  -4.045  -1.566  0.00  0.00    -0.283 N 
ATOM      5  C   UNL     1       3.313  -4.037  -2.670  0.00  0.00    +0.128 C 
ATOM      6  C   UNL     1       3.441  -2.603  -3.200  0.00  0.00    +0.127 C 
ATOM      7  N   UNL     1       3.655  -1.699  -2.061  0.00  0.00    -0.294 N 
ATOM      8  C   UNL     1       2.685  -1.708  -0.957  0.00  0.00    +0.127 C 
ATOM      9  C   UNL     1       2.554  -3.137  -0.430  0.00  0.00    +0.128 C 
ATOM     10  C   UNL     1       4.723  -0.878  -2.029  0.00  0.00    +0.250 C 
ATOM     11  O   UNL     1       4.933  -0.191  -1.047  0.00  0.00    -0.270 OA
ATOM     12  H   UNL     1       0.466  -4.197   0.122  0.00  0.00    +0.150 HD
ENDROOT
BRANCH  10  13
ATOM     13  C   UNL     1       5.636  -0.811  -3.184  0.00  0.00    +0.077 A 
ATOM     14  C   UNL     1       5.340  -1.187  -4.574  0.00  0.00    +0.054 A 
ATOM     15  C   UNL     1       6.466  -0.957  -5.266  0.00  0.00    +0.196 A 
ATOM     16  O   UNL     1       7.405  -0.482  -4.433  0.00  0.00    -0.467 OA
ATOM     17  C   UNL     1       6.931  -0.382  -3.187  0.00  0.00    +0.114 A 
ATOM     18  C   UNL     1       7.698   0.117  -1.990  0.00  0.00    +0.087 C 
ENDBRANCH  10  13
BRANCH   1  19
ATOM     19  C   UNL     1      -0.875  -5.609  -0.723  0.00  0.00    +0.090 C 
BRANCH  19  25
ATOM     20  N   UNL     1      -1.111  -5.393   1.703  0.00  0.00    +0.383 N 
ATOM     21  C   UNL     1      -2.031  -5.124   2.815  0.00  0.00    -0.078 C 
ATOM     22  C   UNL     1      -2.515  -3.674   2.743  0.00  0.00    -0.019 C 
ATOM     23  C   UNL     1      -3.240  -3.450   1.412  0.00  0.00    -0.003 C 
ATOM     24  C   UNL     1      -2.295  -3.805   0.261  0.00  0.00    -0.014 C 
ATOM     25  C   UNL     1      -1.819  -5.250   0.425  0.00  0.00    -0.051 C 
ATOM     26  H   UNL     1      -0.345  -4.738   1.737  0.00  0.00    -0.081 HD
BRANCH  20  27
ATOM     27  C   UNL     1      -0.589  -6.761   1.821  0.00  0.00    -0.078 C 
BRANCH  27  28
ATOM     28  C   UNL     1       0.251  -6.878   3.094  0.00  0.00    -0.019 C 
BRANCH  28  30
ATOM     29  C   UNL     1       1.635  -8.420   4.490  0.00  0.00    +0.004 C 
ATOM     30  C   UNL     1       0.795  -8.303   3.217  0.00  0.00    -0.005 C 
ENDBRANCH  28  30
ENDBRANCH  27  28
ENDBRANCH  20  27
ENDBRANCH  19  25
ENDBRANCH   1  19
TORSDOF 6
