REMARK  Name = ZINC06405664
REMARK  13 active torsions:
REMARK  status: ('A' for Active; 'I' for Inactive)
REMARK    1  A    between atoms: C_1  and  C_2
REMARK    2  A    between atoms: C_5  and  C_38
REMARK    3  A    between atoms: C_9  and  C_14
REMARK    4  A    between atoms: C_14  and  C_16
REMARK    5  A    between atoms: C_14  and  N_68
REMARK    6  A    between atoms: N_20  and  C_21
REMARK    7  A    between atoms: C_21  and  C_22
REMARK    8  A    between atoms: C_22  and  O_23
REMARK    9  A    between atoms: O_23  and  C_24
REMARK   10  A    between atoms: C_25  and  C_26
REMARK   11  A    between atoms: C_25  and  N_68
REMARK   12  A    between atoms: C_31  and  C_32
REMARK   13  A    between atoms: C_31  and  N_68
REMARK                            x       y       z     vdW  Elec       q    Type
REMARK                         _______ _______ _______ _____ _____    ______ ____
ROOT
ATOM      1  C   UNL     1       0.217   5.788   4.753  0.00  0.00    +0.039 C 
ENDROOT
BRANCH   1  10
ATOM      2  C   UNL     1       0.773   1.493   1.861  0.00  0.00    +0.044 C 
ATOM      3  C   UNL     1       1.581   2.583   1.205  0.00  0.00    -0.041 A 
ATOM      4  C   UNL     1       2.278   2.324   0.058  0.00  0.00    +0.004 A 
ATOM      5  C   UNL     1       3.025   3.321  -0.555  0.00  0.00    +0.005 A 
ATOM      6  C   UNL     1       3.078   4.590  -0.019  0.00  0.00    -0.026 A 
ATOM      7  C   UNL     1       2.378   4.876   1.148  0.00  0.00    +0.052 A 
ATOM      8  C   UNL     1       1.621   3.863   1.766  0.00  0.00    +0.002 A 
ATOM      9  C   UNL     1       0.891   4.173   2.997  0.00  0.00    +0.018 A 
ATOM     10  C   UNL     1       0.962   5.434   3.492  0.00  0.00    +0.011 A 
ATOM     11  C   UNL     1       1.735   6.413   2.833  0.00  0.00    +0.251 A 
ATOM     12  O   UNL     1       1.789   7.539   3.298  0.00  0.00    -0.268 OA
ATOM     13  N   UNL     1       2.413   6.137   1.705  0.00  0.00    -0.322 N 
ATOM     14  H   UNL     1       2.935   6.834   1.278  0.00  0.00    +0.169 HD
ATOM     15  C   UNL     1       3.894   5.662  -0.694  0.00  0.00    +0.046 C 
ENDBRANCH   1  10
BRANCH   1  16
ATOM     16  C   UNL     1      -0.688   6.963   4.489  0.00  0.00    +0.143 A 
ATOM     17  N   UNL     1      -0.350   8.230   4.505  0.00  0.00    -0.115 NA
ATOM     18  N   UNL     1      -1.401   8.925   4.236  0.00  0.00    -0.023 NA
ATOM     19  N   UNL     1      -2.399   8.134   4.044  0.00  0.00    -0.044 NA
ATOM     20  N   UNL     1      -1.999   6.916   4.188  0.00  0.00    -0.228 N 
BRANCH  20  21
ATOM     21  C   UNL     1      -2.818   5.709   4.055  0.00  0.00    +0.175 C 
BRANCH  21  22
ATOM     22  C   UNL     1      -2.784   5.228   2.603  0.00  0.00    +0.183 C 
BRANCH  22  23
ATOM     23  O   UNL     1      -3.584   4.050   2.473  0.00  0.00    -0.381 OA
ATOM     24  C   UNL     1      -3.620   3.516   1.148  0.00  0.00    +0.194 C 
ENDBRANCH  22  23
ENDBRANCH  21  22
ENDBRANCH  20  21
ENDBRANCH   1  16
BRANCH   1  25
ATOM     25  N   UNL     1       1.188   6.164   5.803  0.00  0.00    +0.396 N 
ATOM     26  H   UNL     1       1.505   7.126   5.634  0.00  0.00    -0.080 HD
BRANCH  25  27
ATOM     27  C   UNL     1       2.355   5.259   5.759  0.00  0.00    -0.002 C 
BRANCH  27  28
ATOM     28  C   UNL     1       3.449   5.926   4.966  0.00  0.00    +0.089 A 
ATOM     29  C   UNL     1       4.120   7.034   5.329  0.00  0.00    +0.042 A 
ATOM     30  C   UNL     1       5.050   7.306   4.300  0.00  0.00    +0.041 A 
ATOM     31  C   UNL     1       4.886   6.352   3.365  0.00  0.00    +0.195 A 
ATOM     32  O   UNL     1       3.915   5.520   3.774  0.00  0.00    -0.470 OA
ENDBRANCH  27  28
ENDBRANCH  25  27
BRANCH  25  33
ATOM     33  C   UNL     1       0.545   6.097   7.132  0.00  0.00    -0.045 C 
BRANCH  33  34
ATOM     34  C   UNL     1      -0.271   7.373   7.346  0.00  0.00    +0.102 C 
ATOM     35  C   UNL     1      -0.597   7.558   8.845  0.00  0.00    +0.032 C 
ATOM     36  C   UNL     1      -2.028   8.140   8.849  0.00  0.00    +0.030 C 
ATOM     37  C   UNL     1      -2.397   8.239   7.352  0.00  0.00    +0.160 C 
ATOM     38  O   UNL     1      -1.557   7.261   6.700  0.00  0.00    -0.378 OA
ENDBRANCH  33  34
ENDBRANCH  25  33
ENDBRANCH   1  25
TORSDOF 10
