REMARK  Name = ZINC00805404
REMARK  5 active torsions:
REMARK  status: ('A' for Active; 'I' for Inactive)
REMARK    1  A    between atoms: C_1  and  C_2
REMARK    2  A    between atoms: C_4  and  N_9
REMARK    3  A    between atoms: N_9  and  S_10
REMARK    4  A    between atoms: S_10  and  C_13
REMARK    5  A    between atoms: C_16  and  N_19
REMARK                            x       y       z     vdW  Elec       q    Type
REMARK                         _______ _______ _______ _____ _____    ______ ____
ROOT
ATOM      1  S   UNL     1       3.648   3.454  -1.004  0.00  0.00    +0.072 S 
ATOM      2  O   UNL     1       4.946   4.010  -0.844  0.00  0.00    -0.150 OA
ATOM      3  O   UNL     1       3.142   3.052  -2.270  0.00  0.00    -0.150 OA
ENDROOT
BRANCH   1   4
ATOM      4  C   UNL     1       2.511   4.635  -0.359  0.00  0.00    +0.109 A 
ATOM      5  C   UNL     1       1.176   4.575  -0.714  0.00  0.00    +0.031 A 
ATOM      6  C   UNL     1       0.283   5.499  -0.204  0.00  0.00    +0.034 A 
ATOM      7  C   UNL     1       0.727   6.489   0.652  0.00  0.00    +0.126 A 
ATOM      8  C   UNL     1       2.062   6.552   1.004  0.00  0.00    +0.034 A 
ATOM      9  C   UNL     1       2.954   5.625   0.498  0.00  0.00    +0.031 A 
BRANCH   7  10
ATOM     10  N   UNL     1      -0.228   7.482   1.194  0.00  0.00    +0.056 N 
ATOM     11  O   UNL     1       0.163   8.354   1.950  0.00  0.00    -0.126 OA
ATOM     12  O   UNL     1      -1.405   7.426   0.885  0.00  0.00    -0.126 OA
ENDBRANCH   7  10
ENDBRANCH   1   4
BRANCH   1  13
ATOM     13  N   UNL     1       3.579   2.122  -0.023  0.00  0.00    -0.216 N 
ATOM     14  H   UNL     1       3.298   1.266  -0.384  0.00  0.00    +0.174 HD
BRANCH  13  18
ATOM     15  C   UNL     1       2.585   1.153   4.692  0.00  0.00    +0.045 C 
ATOM     16  C   UNL     1       3.463   1.769   3.634  0.00  0.00    -0.035 A 
ATOM     17  C   UNL     1       3.117   1.661   2.301  0.00  0.00    +0.029 A 
ATOM     18  C   UNL     1       3.927   2.229   1.326  0.00  0.00    +0.048 A 
ATOM     19  C   UNL     1       5.083   2.905   1.695  0.00  0.00    +0.025 A 
ATOM     20  C   UNL     1       5.424   3.010   3.029  0.00  0.00    +0.017 A 
ATOM     21  C   UNL     1       4.615   2.443   3.998  0.00  0.00    +0.021 A 
ATOM     22 BR   UNL     1       5.085   2.589   5.824  0.00  0.00    -0.050 Br
ENDBRANCH  13  18
ENDBRANCH   1  13
TORSDOF 4
