REMARK  Name = ZINC39984570
REMARK  6 active torsions:
REMARK  status: ('A' for Active; 'I' for Inactive)
REMARK    1  A    between atoms: C_1  and  C_2
REMARK    2  A    between atoms: N_4  and  C_5
REMARK    3  A    between atoms: C_8  and  S_11
REMARK    4  A    between atoms: S_11  and  N_14
REMARK    5  A    between atoms: C_16  and  N_26
REMARK    6  A    between atoms: N_26  and  C_27
REMARK                            x       y       z     vdW  Elec       q    Type
REMARK                         _______ _______ _______ _____ _____    ______ ____
ROOT
ATOM      1  N   UNL     1      -1.980  -6.902  -1.085  0.00  0.00    -0.110 NA
ATOM      2  C   UNL     1      -2.269  -8.168  -1.023  0.00  0.00    +0.192 C 
ATOM      3  C   UNL     1      -3.710  -8.627  -1.031  0.00  0.00    +0.237 C 
ATOM      4  N   UNL     1      -3.971 -10.073  -0.960  0.00  0.00    -0.359 N 
ATOM      5  C   UNL     1      -2.954 -10.886  -0.893  0.00  0.00    +0.063 A 
ATOM      6  C   UNL     1      -3.161 -12.340  -0.820  0.00  0.00    +0.027 A 
ATOM      7  C   UNL     1      -2.083 -13.151  -0.752  0.00  0.00    +0.002 A 
ATOM      8  C   UNL     1      -0.774 -12.640  -0.750  0.00  0.00    +0.002 A 
ATOM      9  C   UNL     1      -0.505 -11.318  -0.815  0.00  0.00    +0.030 A 
ATOM     10  C   UNL     1      -1.561 -10.375  -0.889  0.00  0.00    +0.089 A 
ATOM     11  N   UNL     1      -1.294  -9.088  -0.957  0.00  0.00    -0.226 NA
ATOM     12  H   UNL     1      -4.880 -10.414  -0.962  0.00  0.00    +0.162 HD
ENDROOT
BRANCH   1  13
ATOM     13  S   UNL     1      -0.397  -6.413  -1.082  0.00  0.00    +0.100 S 
ATOM     14  O   UNL     1       0.175  -6.885  -2.294  0.00  0.00    -0.146 OA
ATOM     15  O   UNL     1       0.131  -6.753   0.193  0.00  0.00    -0.146 OA
BRANCH  13  19
ATOM     16  C   UNL     1      -0.391  -1.891  -1.322  0.00  0.00    +0.033 A 
ATOM     17  C   UNL     1      -0.414  -2.522  -0.085  0.00  0.00    +0.025 A 
ATOM     18  C   UNL     1      -0.416  -3.902  -0.015  0.00  0.00    +0.031 A 
ATOM     19  C   UNL     1      -0.395  -4.654  -1.175  0.00  0.00    +0.113 A 
ATOM     20  C   UNL     1      -0.372  -4.028  -2.408  0.00  0.00    +0.031 A 
ATOM     21  C   UNL     1      -0.377  -2.649  -2.485  0.00  0.00    +0.025 A 
BRANCH  16  25
ATOM     22  C   UNL     1      -1.137   1.634  -2.413  0.00  0.00    +0.109 C 
ATOM     23  C   UNL     1      -1.050   0.129  -2.392  0.00  0.00    +0.214 C 
ATOM     24  O   UNL     1      -1.574  -0.521  -3.272  0.00  0.00    -0.276 OA
ATOM     25  N   UNL     1      -0.390  -0.494  -1.396  0.00  0.00    -0.286 N 
ATOM     26  H   UNL     1       0.087   0.027  -0.730  0.00  0.00    +0.155 HD
ENDBRANCH  16  25
ENDBRANCH  13  19
ENDBRANCH   1  13
BRANCH   3  27
ATOM     27  N   UNL     1      -4.387  -7.994   0.104  0.00  0.00    -0.318 N 
ATOM     28  H   UNL     1      -3.950  -7.956   0.969  0.00  0.00    +0.148 HD
BRANCH  27  29
ATOM     29  C   UNL     1      -5.664  -7.445  -0.060  0.00  0.00    +0.033 A 
ATOM     30  C   UNL     1      -6.340  -6.922   1.033  0.00  0.00    +0.027 A 
ATOM     31  C   UNL     1      -7.601  -6.379   0.873  0.00  0.00    +0.051 A 
ATOM     32  C   UNL     1      -8.193  -6.355  -0.380  0.00  0.00    +0.166 A 
ATOM     33  C   UNL     1      -7.517  -6.879  -1.479  0.00  0.00    +0.168 A 
ATOM     34  C   UNL     1      -6.251  -7.418  -1.318  0.00  0.00    +0.072 A 
ATOM     35  O   UNL     1      -8.305  -6.737  -2.584  0.00  0.00    -0.453 OA
ATOM     36  C   UNL     1      -9.632  -6.495  -2.082  0.00  0.00    +0.466 C 
ATOM     37  O   UNL     1      -9.406  -5.885  -0.797  0.00  0.00    -0.453 OA
ENDBRANCH  27  29
ENDBRANCH   3  27
TORSDOF 5
