REMARK  Name = ZINC10088196
REMARK  8 active torsions:
REMARK  status: ('A' for Active; 'I' for Inactive)
REMARK    1  A    between atoms: C_1  and  C_2
REMARK    2  A    between atoms: C_7  and  N_8
REMARK    3  A    between atoms: C_9  and  C_24
REMARK    4  A    between atoms: C_12  and  S_13
REMARK    5  A    between atoms: S_13  and  C_14
REMARK    6  A    between atoms: C_14  and  C_16
REMARK    7  A    between atoms: C_14  and  C_17
REMARK    8  A    between atoms: N_22  and  C_23
REMARK                            x       y       z     vdW  Elec       q    Type
REMARK                         _______ _______ _______ _____ _____    ______ ____
ROOT
ATOM      1  N   UNL     1       0.025  -0.013   2.419  0.00  0.00    -0.270 N 
ATOM      2  C   UNL     1      -1.072   0.378   3.156  0.00  0.00    +0.169 A 
ATOM      3  N   UNL     1      -0.618   0.994   4.223  0.00  0.00    -0.128 NA
ATOM      4  N   UNL     1       0.667   1.016   4.205  0.00  0.00    -0.122 NA
ATOM      5  C   UNL     1       1.115   0.410   3.128  0.00  0.00    +0.197 A 
ENDROOT
BRANCH   1  12
ATOM      6  C   UNL     1      -0.018   1.503   0.010  0.00  0.00    +0.046 C 
ATOM      7  C   UNL     1       0.002  -0.004   0.002  0.00  0.00    -0.026 A 
ATOM      8  C   UNL     1       0.006  -0.689  -1.198  0.00  0.00    +0.005 A 
ATOM      9  C   UNL     1       0.025  -2.071  -1.206  0.00  0.00    +0.000 A 
ATOM     10  C   UNL     1       0.040  -2.773  -0.014  0.00  0.00    +0.002 A 
ATOM     11  C   UNL     1       0.036  -2.094   1.188  0.00  0.00    +0.026 A 
ATOM     12  C   UNL     1       0.023  -0.705   1.200  0.00  0.00    +0.053 A 
ENDBRANCH   1  12
BRANCH   2  13
ATOM     13  C   UNL     1      -2.490   0.148   2.811  0.00  0.00    +0.020 A 
ATOM     14  C   UNL     1      -2.843  -0.240   1.518  0.00  0.00    +0.013 A 
ATOM     15  C   UNL     1      -4.168  -0.454   1.202  0.00  0.00    +0.021 A 
ATOM     16  C   UNL     1      -5.149  -0.283   2.165  0.00  0.00    +0.041 A 
ATOM     17  C   UNL     1      -4.805   0.103   3.450  0.00  0.00    +0.021 A 
ATOM     18  C   UNL     1      -3.482   0.314   3.779  0.00  0.00    +0.013 A 
ATOM     19 CL   UNL     1      -6.815  -0.553   1.760  0.00  0.00    -0.084 Cl
ENDBRANCH   2  13
BRANCH   5  20
ATOM     20  S   UNL     1       2.805   0.189   2.680  0.00  0.00    -0.073 S 
BRANCH  20  21
ATOM     21  C   UNL     1       3.724   0.973   4.033  0.00  0.00    +0.137 C 
ATOM     22  C   UNL     1       3.436   2.476   4.041  0.00  0.00    +0.029 C 
BRANCH  21  23
ATOM     23  C   UNL     1       5.201   0.747   3.834  0.00  0.00    +0.233 C 
ATOM     24  O   UNL     1       5.639   0.543   2.722  0.00  0.00    -0.274 OA
ATOM     25  N   UNL     1       6.035   0.770   4.893  0.00  0.00    -0.239 N 
ATOM     26  C   UNL     1       7.355   0.567   4.715  0.00  0.00    +0.306 C 
ATOM     27  O   UNL     1       7.794   0.363   3.600  0.00  0.00    -0.252 OA
ATOM     28  N   UNL     1       8.189   0.590   5.774  0.00  0.00    -0.302 N 
ATOM     29  C   UNL     1       9.624   0.370   5.581  0.00  0.00    +0.129 C 
ATOM     30  H   UNL     1       5.684   0.932   5.782  0.00  0.00    +0.159 HD
ATOM     31  H   UNL     1       7.838   0.752   6.664  0.00  0.00    +0.150 HD
ENDBRANCH  21  23
ENDBRANCH  20  21
ENDBRANCH   5  20
TORSDOF 5
