REMARK  Name = ZINC33024213
REMARK  13 active torsions:
REMARK  status: ('A' for Active; 'I' for Inactive)
REMARK    1  A    between atoms: C_1  and  C_2
REMARK    2  A    between atoms: C_2  and  O_3
REMARK    3  A    between atoms: O_3  and  C_4
REMARK    4  A    between atoms: C_4  and  C_6
REMARK    5  A    between atoms: C_7  and  C_36
REMARK    6  A    between atoms: C_8  and  C_13
REMARK    7  A    between atoms: C_11  and  C_12
REMARK    8  A    between atoms: C_18  and  C_21
REMARK    9  A    between atoms: C_21  and  C_23
REMARK   10  A    between atoms: C_21  and  C_24
REMARK   11  A    between atoms: N_26  and  C_27
REMARK   12  A    between atoms: C_27  and  C_28
REMARK   13  A    between atoms: C_28  and  N_29
REMARK                            x       y       z     vdW  Elec       q    Type
REMARK                         _______ _______ _______ _____ _____    ______ ____
ROOT
ATOM      1  C   UNL     1      -2.529   1.257   0.019  0.00  0.00    +0.263 C 
ATOM      2  O   UNL     1      -3.453   2.042   0.117  0.00  0.00    -0.268 OA
ATOM      3  N   UNL     1      -2.775  -0.064  -0.089  0.00  0.00    -0.296 N 
ATOM      4  C   UNL     1      -1.670  -1.032  -0.107  0.00  0.00    +0.108 C 
ATOM      5  C   UNL     1      -1.804  -1.918  -1.344  0.00  0.00    +0.023 C 
ATOM      6  C   UNL     1      -3.197  -2.552  -1.367  0.00  0.00    +0.004 C 
ATOM      7  C   UNL     1      -4.258  -1.452  -1.440  0.00  0.00    +0.023 C 
ATOM      8  C   UNL     1      -4.153  -0.562  -0.198  0.00  0.00    +0.108 C 
ENDROOT
BRANCH   1  11
ATOM      9  C   UNL     1       0.936   2.272   0.633  0.00  0.00    +0.083 A 
ATOM     10  C   UNL     1      -0.273   1.679   1.064  0.00  0.00    -0.006 A 
ATOM     11  C   UNL     1      -1.145   1.748   0.018  0.00  0.00    +0.106 A 
ATOM     12  N   UNL     1      -0.505   2.355  -1.040  0.00  0.00    -0.354 N 
ATOM     13  H   UNL     1      -1.036   2.503  -1.992  0.00  0.00    +0.166 HD
ATOM     14  C   UNL     1       0.746   2.676  -0.676  0.00  0.00    +0.028 A 
ATOM     15  C   UNL     1       1.770   3.360  -1.544  0.00  0.00    +0.064 C 
ATOM     16  C   UNL     1      -0.548   1.089   2.423  0.00  0.00    +0.047 C 
BRANCH   9  17
ATOM     17  C   UNL     1       2.166   2.429   1.428  0.00  0.00    +0.341 C 
ATOM     18  O   UNL     1       2.334   3.430   2.095  0.00  0.00    -0.245 OA
BRANCH  17  19
ATOM     19  O   UNL     1       3.104   1.462   1.416  0.00  0.00    -0.461 OA
BRANCH  19  21
ATOM     20  C   UNL     1       5.234   0.488   2.084  0.00  0.00    +0.048 C 
ATOM     21  C   UNL     1       4.290   1.684   2.223  0.00  0.00    +0.229 C 
ENDBRANCH  19  21
ENDBRANCH  17  19
ENDBRANCH   9  17
ENDBRANCH   1  11
BRANCH   6  22
ATOM     22  C   UNL     1      -3.321  -3.463  -2.589  0.00  0.00    +0.075 C 
ATOM     23  C   UNL     1      -2.260  -4.563  -2.516  0.00  0.00    +0.017 C 
BRANCH  22  24
ATOM     24  C   UNL     1      -4.692  -4.089  -2.611  0.00  0.00    +0.216 C 
ATOM     25  O   UNL     1      -5.491  -3.832  -1.735  0.00  0.00    -0.276 OA
ATOM     26  N   UNL     1      -5.031  -4.936  -3.604  0.00  0.00    -0.317 N 
ATOM     27  H   UNL     1      -4.307  -5.169  -4.398  0.00  0.00    +0.149 HD
BRANCH  26  28
ATOM     28  C   UNL     1      -6.364  -5.544  -3.625  0.00  0.00    +0.085 C 
BRANCH  28  29
ATOM     29  C   UNL     1      -6.488  -6.456  -4.847  0.00  0.00    -0.060 C 
BRANCH  29  30
ATOM     30  N   UNL     1      -7.825  -7.066  -4.869  0.00  0.00    +0.381 N 
ATOM     31  C   UNL     1      -8.048  -7.896  -3.664  0.00  0.00    -0.079 C 
ATOM     32  C   UNL     1      -9.280  -8.753  -3.765  0.00  0.00    -0.019 C 
ATOM     33  C   UNL     1      -8.870 -10.139  -4.304  0.00  0.00    -0.002 C 
ATOM     34  C   UNL     1      -8.661 -10.129  -5.748  0.00  0.00    -0.002 C 
ATOM     35  C   UNL     1      -7.530  -9.166  -6.166  0.00  0.00    -0.019 C 
ATOM     36  C   UNL     1      -8.069  -7.762  -6.152  0.00  0.00    -0.079 C 
ATOM     37  H   UNL     1      -8.580  -6.268  -4.819  0.00  0.00    -0.082 HD
ENDBRANCH  29  30
ENDBRANCH  28  29
ENDBRANCH  26  28
ENDBRANCH  22  24
ENDBRANCH   6  22
TORSDOF 9
