REMARK  Name = ZINC12312141
REMARK  7 active torsions:
REMARK  status: ('A' for Active; 'I' for Inactive)
REMARK    1  A    between atoms: C_7  and  C_22
REMARK    2  A    between atoms: C_12  and  C_13
REMARK    3  A    between atoms: C_16  and  O_19
REMARK    4  A    between atoms: C_22  and  O_24
REMARK    5  A    between atoms: O_24  and  C_25
REMARK    6  A    between atoms: C_25  and  C_26
REMARK    7  A    between atoms: N_28  and  C_29
REMARK                            x       y       z     vdW  Elec       q    Type
REMARK                         _______ _______ _______ _____ _____    ______ ____
ROOT
ATOM      1  C   UNL     1      -0.039   1.093   0.452  0.00  0.00    +0.001 A 
ATOM      2  C   UNL     1       1.127   1.856   0.440  0.00  0.00    +0.002 A 
ATOM      3  C   UNL     1       2.351   1.268   0.351  0.00  0.00    +0.028 A 
ATOM      4  C   UNL     1       2.448  -0.135   0.269  0.00  0.00    +0.072 A 
ATOM      5  C   UNL     1       1.257  -0.904   0.282  0.00  0.00    +0.015 A 
ATOM      6  C   UNL     1       0.016  -0.268   0.374  0.00  0.00    +0.011 A 
ATOM      7  C   UNL     1       1.369  -2.361   0.197  0.00  0.00    +0.073 A 
ATOM      8  C   UNL     1       2.643  -2.903   0.108  0.00  0.00    -0.007 A 
ATOM      9  C   UNL     1       3.765  -2.058   0.103  0.00  0.00    +0.072 A 
ATOM     10  N   UNL     1       3.631  -0.737   0.181  0.00  0.00    -0.247 NA
ATOM     11  C   UNL     1       5.002  -2.856   0.003  0.00  0.00    -0.021 C 
ATOM     12  C   UNL     1       6.255  -2.368  -0.028  0.00  0.00    +0.013 C 
ATOM     13  C   UNL     1       4.620  -4.314  -0.059  0.00  0.00    +0.042 C 
ATOM     14  C   UNL     1       3.088  -4.341   0.009  0.00  0.00    +0.043 C 
ENDROOT
BRANCH  12  15
ATOM     15  C   UNL     1       7.404  -3.287   0.000  0.00  0.00    -0.024 A 
ATOM     16  C   UNL     1       8.702  -2.784   0.137  0.00  0.00    +0.011 A 
ATOM     17  C   UNL     1       9.774  -3.649   0.166  0.00  0.00    +0.046 A 
ATOM     18  C   UNL     1       9.568  -5.018   0.050  0.00  0.00    +0.117 A 
ATOM     19  C   UNL     1       8.281  -5.522  -0.091  0.00  0.00    +0.046 A 
ATOM     20  C   UNL     1       7.202  -4.666  -0.117  0.00  0.00    +0.011 A 
BRANCH  18  21
ATOM     21  O   UNL     1      10.629  -5.866   0.075  0.00  0.00    -0.507 OA
ATOM     22  H   UNL     1      11.007  -6.048  -0.796  0.00  0.00    +0.292 HD
ENDBRANCH  18  21
ENDBRANCH  12  15
BRANCH   7  23
ATOM     23  C   UNL     1       0.168  -3.223   0.205  0.00  0.00    +0.341 C 
ATOM     24  O   UNL     1      -0.374  -3.519  -0.841  0.00  0.00    -0.245 OA
BRANCH  23  25
ATOM     25  O   UNL     1      -0.325  -3.680   1.373  0.00  0.00    -0.452 OA
BRANCH  25  26
ATOM     26  C   UNL     1      -1.506  -4.521   1.305  0.00  0.00    +0.328 C 
BRANCH  26  27
ATOM     27  C   UNL     1      -1.910  -4.934   2.697  0.00  0.00    +0.255 C 
ATOM     28  O   UNL     1      -1.265  -4.555   3.652  0.00  0.00    -0.272 OA
ATOM     29  N   UNL     1      -2.987  -5.723   2.881  0.00  0.00    -0.281 N 
ATOM     30  H   UNL     1      -3.457  -6.087   2.115  0.00  0.00    +0.155 HD
BRANCH  29  31
ATOM     31  C   UNL     1      -3.426  -6.016   4.177  0.00  0.00    +0.053 A 
ATOM     32  C   UNL     1      -3.125  -5.157   5.225  0.00  0.00    +0.044 A 
ATOM     33  C   UNL     1      -3.561  -5.450   6.504  0.00  0.00    +0.043 A 
ATOM     34  C   UNL     1      -4.297  -6.598   6.740  0.00  0.00    +0.021 A 
ATOM     35  C   UNL     1      -4.598  -7.455   5.698  0.00  0.00    +0.023 A 
ATOM     36  C   UNL     1      -4.170  -7.165   4.416  0.00  0.00    +0.062 A 
ATOM     37 CL   UNL     1      -4.555  -8.239   3.108  0.00  0.00    -0.082 Cl
ATOM     38 CL   UNL     1      -3.184  -4.376   7.815  0.00  0.00    -0.083 Cl
ENDBRANCH  29  31
ENDBRANCH  26  27
ENDBRANCH  25  26
ENDBRANCH  23  25
ENDBRANCH   7  23
TORSDOF 7
