REMARK  Name = ZINC20861360
REMARK  3 active torsions:
REMARK  status: ('A' for Active; 'I' for Inactive)
REMARK    1  A    between atoms: C_1  and  C_2
REMARK    2  A    between atoms: C_5  and  C_8
REMARK    3  A    between atoms: C_8  and  N_9
REMARK                            x       y       z     vdW  Elec       q    Type
REMARK                         _______ _______ _______ _____ _____    ______ ____
ROOT
ATOM      1  N   UNL     1      -1.198  -0.707   0.010  0.00  0.00    -0.324 N 
ATOM      2  C   UNL     1       0.002  -0.004   0.002  0.00  0.00    +0.140 A 
ATOM      3  C   UNL     1       1.222  -0.709  -0.013  0.00  0.00    +0.049 A 
ATOM      4  C   UNL     1       2.400  -0.033  -0.021  0.00  0.00    +0.053 A 
ATOM      5  C   UNL     1       2.382   1.375  -0.014  0.00  0.00    +0.178 A 
ATOM      6  N   UNL     1       3.326   2.303  -0.018  0.00  0.00    -0.128 NA
ATOM      7  N   UNL     1       2.777   3.467  -0.006  0.00  0.00    -0.136 NA
ATOM      8  C   UNL     1       1.472   3.351   0.005  0.00  0.00    +0.249 A 
ATOM      9  N   UNL     1       1.178   2.033   0.002  0.00  0.00    -0.198 N 
ATOM     10  N   UNL     1      -0.016   1.308   0.009  0.00  0.00    -0.149 NA
ATOM     11  H   UNL     1      -2.154  -0.163   0.022  0.00  0.00    +0.148 HD
ENDROOT
BRANCH   1  12
ATOM     12  C   UNL     1      -1.189  -2.172   0.002  0.00  0.00    +0.138 C 
BRANCH  12  17
ATOM     13  C   UNL     1      -6.624  -4.134   0.043  0.00  0.00    +0.044 C 
ATOM     14  C   UNL     1      -5.206  -3.623   0.032  0.00  0.00    -0.050 A 
ATOM     15  C   UNL     1      -4.568  -3.381  -1.170  0.00  0.00    +0.003 A 
ATOM     16  C   UNL     1      -3.268  -2.912  -1.180  0.00  0.00    +0.005 A 
ATOM     17  C   UNL     1      -2.606  -2.684   0.013  0.00  0.00    -0.030 A 
ATOM     18  C   UNL     1      -3.243  -2.930   1.214  0.00  0.00    +0.005 A 
ATOM     19  C   UNL     1      -4.545  -3.395   1.224  0.00  0.00    +0.003 A 
ENDBRANCH  12  17
ENDBRANCH   1  12
TORSDOF 2
