REMARK  Name = ZINC07127623
REMARK  7 active torsions:
REMARK  status: ('A' for Active; 'I' for Inactive)
REMARK    1  A    between atoms: C_1  and  C_2
REMARK    2  A    between atoms: C_2  and  O_3
REMARK    3  A    between atoms: O_3  and  C_4
REMARK    4  A    between atoms: C_6  and  C_14
REMARK    5  A    between atoms: C_9  and  O_10
REMARK    6  A    between atoms: O_10  and  C_11
REMARK    7  A    between atoms: C_11  and  C_12
REMARK                            x       y       z     vdW  Elec       q    Type
REMARK                         _______ _______ _______ _____ _____    ______ ____
ROOT
ATOM      1  C   UNL     1      -0.229  -4.969   0.477  0.00  0.00    +0.209 C 
ATOM      2  N   UNL     1       0.666  -6.125   0.666  0.00  0.00    -0.294 N 
ATOM      3  C   UNL     1       0.595  -7.158  -0.258  0.00  0.00    +0.159 C 
ATOM      4  N   UNL     1      -0.675  -7.679  -0.509  0.00  0.00    -0.259 N 
ATOM      5  C   UNL     1      -1.716  -6.756  -0.454  0.00  0.00    +0.205 A 
ATOM      6  N   UNL     1      -1.527  -5.475   0.016  0.00  0.00    -0.288 N 
ATOM      7  C   UNL     1      -2.733  -4.839  -0.050  0.00  0.00    +0.072 A 
ATOM      8  C   UNL     1      -3.145  -3.556   0.290  0.00  0.00    +0.028 A 
ATOM      9  C   UNL     1      -4.479  -3.246   0.083  0.00  0.00    +0.002 A 
ATOM     10  C   UNL     1      -5.374  -4.165  -0.439  0.00  0.00    +0.002 A 
ATOM     11  C   UNL     1      -4.989  -5.448  -0.784  0.00  0.00    +0.030 A 
ATOM     12  C   UNL     1      -3.646  -5.783  -0.584  0.00  0.00    +0.091 A 
ATOM     13  N   UNL     1      -2.961  -6.923  -0.807  0.00  0.00    -0.214 NA
ATOM     14  N   UNL     1       1.656  -7.615  -0.860  0.00  0.00    -0.375 N 
ATOM     15  H   UNL     1       1.285  -6.163   1.412  0.00  0.00    +0.151 HD
ATOM     16  H   UNL     1       2.526  -7.233  -0.666  0.00  0.00    +0.158 HD
ATOM     17  H   UNL     1      -0.822  -8.617  -0.707  0.00  0.00    +0.158 HD
ATOM     18  H   UNL     1       1.575  -8.338  -1.502  0.00  0.00    +0.158 HD
ENDROOT
BRANCH   1  21
ATOM     19  C   UNL     1       0.777  -1.811  -1.336  0.00  0.00    +0.162 A 
ATOM     20  C   UNL     1       0.243  -2.669  -0.388  0.00  0.00    +0.056 A 
ATOM     21  C   UNL     1       0.352  -4.037  -0.555  0.00  0.00    -0.003 A 
ATOM     22  C   UNL     1       0.992  -4.552  -1.667  0.00  0.00    +0.011 A 
ATOM     23  C   UNL     1       1.526  -3.702  -2.616  0.00  0.00    +0.050 A 
ATOM     24  C   UNL     1       1.416  -2.330  -2.458  0.00  0.00    +0.163 A 
BRANCH  19  25
ATOM     25  O   UNL     1       0.671  -0.465  -1.174  0.00  0.00    -0.489 OA
BRANCH  25  27
ATOM     26  C   UNL     1      -0.019   1.526   0.010  0.00  0.00    +0.048 C 
ATOM     27  C   UNL     1       0.002  -0.004   0.002  0.00  0.00    +0.226 C 
ENDBRANCH  25  27
ENDBRANCH  19  25
BRANCH  24  28
ATOM     28  O   UNL     1       1.936  -1.492  -3.394  0.00  0.00    -0.476 OA
BRANCH  28  29
ATOM     29  C   UNL     1       2.578  -2.095  -4.520  0.00  0.00    +0.317 C 
BRANCH  29  30
ATOM     30  C   UNL     1       3.076  -1.044  -5.422  0.00  0.00    -0.065 C 
ATOM     31  C   UNL     1       3.474  -0.205  -6.141  0.00  0.00    +0.007 C 
ENDBRANCH  29  30
ENDBRANCH  28  29
ENDBRANCH  24  28
ENDBRANCH   1  21
TORSDOF 6
