REMARK  Name = ZINC12499249
REMARK  9 active torsions:
REMARK  status: ('A' for Active; 'I' for Inactive)
REMARK    1  A    between atoms: C_1  and  C_2
REMARK    2  A    between atoms: C_4  and  O_9
REMARK    3  A    between atoms: O_9  and  C_10
REMARK    4  A    between atoms: C_10  and  C_11
REMARK    5  A    between atoms: N_13  and  C_14
REMARK    6  A    between atoms: C_14  and  N_16
REMARK    7  A    between atoms: N_16  and  C_17
REMARK    8  A    between atoms: C_19  and  N_24
REMARK    9  A    between atoms: C_22  and  O_23
REMARK                            x       y       z     vdW  Elec       q    Type
REMARK                         _______ _______ _______ _____ _____    ______ ____
ROOT
ATOM      1  C   UNL     1      -0.178  -6.623  -5.109  0.00  0.00    +0.141 C 
ATOM      2  S   UNL     1      -0.533  -5.592  -6.429  0.00  0.00    -0.018 S 
ENDROOT
BRANCH   1   5
ATOM      3  C   UNL     1      -0.425  -4.826  -3.640  0.00  0.00    +0.256 C 
ATOM      4  O   UNL     1      -0.676  -4.096  -4.575  0.00  0.00    -0.272 OA
ATOM      5  N   UNL     1      -0.162  -6.130  -3.855  0.00  0.00    -0.265 N 
ATOM      6  H   UNL     1       0.039  -6.714  -3.107  0.00  0.00    +0.157 HD
BRANCH   3   7
ATOM      7  C   UNL     1      -0.407  -4.274  -2.237  0.00  0.00    +0.324 C 
BRANCH   7   8
ATOM      8  O   UNL     1      -0.714  -2.879  -2.270  0.00  0.00    -0.483 OA
BRANCH   8  12
ATOM      9  C   UNL     1      -1.372   1.266   0.222  0.00  0.00    +0.045 C 
ATOM     10  C   UNL     1      -1.056  -0.207   0.175  0.00  0.00    -0.033 A 
ATOM     11  C   UNL     1      -1.030  -0.870  -1.036  0.00  0.00    +0.050 A 
ATOM     12  C   UNL     1      -0.739  -2.225  -1.078  0.00  0.00    +0.122 A 
ATOM     13  C   UNL     1      -0.474  -2.913   0.097  0.00  0.00    +0.047 A 
ATOM     14  C   UNL     1      -0.500  -2.246   1.307  0.00  0.00    +0.019 A 
ATOM     15  C   UNL     1      -0.786  -0.893   1.346  0.00  0.00    +0.021 A 
ATOM     16 BR   UNL     1      -0.815   0.018   3.002  0.00  0.00    -0.050 Br
ENDBRANCH   8  12
ENDBRANCH   7   8
ENDBRANCH   3   7
ENDBRANCH   1   5
BRANCH   1  17
ATOM     17  N   UNL     1       0.085  -7.927  -5.324  0.00  0.00    -0.294 N 
ATOM     18  H   UNL     1       0.347  -8.497  -4.585  0.00  0.00    +0.154 HD
BRANCH  17  19
ATOM     19  C   UNL     1      -0.020  -8.459  -6.616  0.00  0.00    +0.077 A 
ATOM     20  C   UNL     1       0.556  -7.796  -7.690  0.00  0.00    +0.059 A 
ATOM     21  C   UNL     1       0.451  -8.323  -8.963  0.00  0.00    +0.128 A 
ATOM     22  C   UNL     1      -0.227  -9.510  -9.170  0.00  0.00    +0.036 A 
ATOM     23  C   UNL     1      -0.804 -10.176  -8.105  0.00  0.00    +0.049 A 
ATOM     24  C   UNL     1      -0.698  -9.658  -6.824  0.00  0.00    +0.138 A 
BRANCH  21  25
ATOM     25  N   UNL     1       1.066  -7.615 -10.108  0.00  0.00    +0.056 N 
ATOM     26  O   UNL     1       1.659  -6.576  -9.929  0.00  0.00    -0.126 OA
ATOM     27  O   UNL     1       0.975  -8.075 -11.223  0.00  0.00    -0.126 OA
ENDBRANCH  21  25
BRANCH  24  28
ATOM     28  O   UNL     1      -1.260 -10.315  -5.775  0.00  0.00    -0.505 OA
ATOM     29  H   UNL     1      -2.174 -10.058  -5.594  0.00  0.00    +0.292 HD
ENDBRANCH  24  28
ENDBRANCH  17  19
ENDBRANCH   1  17
TORSDOF 8
