REMARK  Name = ZINC09869166
REMARK  7 active torsions:
REMARK  status: ('A' for Active; 'I' for Inactive)
REMARK    1  A    between atoms: C_5  and  C_7
REMARK    2  A    between atoms: C_7  and  C_8
REMARK    3  A    between atoms: C_11  and  S_14
REMARK    4  A    between atoms: N_12  and  N_13
REMARK    5  A    between atoms: S_14  and  C_15
REMARK    6  A    between atoms: C_15  and  C_16
REMARK    7  A    between atoms: C_18  and  C_21
REMARK                            x       y       z     vdW  Elec       q    Type
REMARK                         _______ _______ _______ _____ _____    ______ ____
ROOT
ATOM      1  C   UNL     1       6.532  10.890   1.670  0.00  0.00    +0.155 A 
ATOM      2  N   UNL     1       6.389  10.636   0.400  0.00  0.00    -0.132 NA
ATOM      3  N   UNL     1       5.822   9.494   0.240  0.00  0.00    -0.121 NA
ATOM      4  C   UNL     1       5.569   8.953   1.409  0.00  0.00    +0.209 A 
ATOM      5  N   UNL     1       6.009   9.831   2.359  0.00  0.00    -0.228 N 
ENDROOT
BRANCH   5   6
ATOM      6  N   UNL     1       5.944   9.680   3.715  0.00  0.00    -0.295 N 
ATOM      7  H   UNL     1       6.771   9.223   4.068  0.00  0.00    +0.163 HD
ATOM      8  H   UNL     1       5.799  10.568   4.171  0.00  0.00    +0.163 HD
ENDBRANCH   5   6
BRANCH   1   9
ATOM      9  C   UNL     1       7.152  12.126   2.269  0.00  0.00    +0.116 C 
BRANCH   9  14
ATOM     10  C   UNL     1       4.565  14.308   3.942  0.00  0.00    +0.000 A 
ATOM     11  C   UNL     1       4.129  15.083   2.884  0.00  0.00    +0.003 A 
ATOM     12  C   UNL     1       4.671  14.903   1.625  0.00  0.00    +0.038 A 
ATOM     13  C   UNL     1       5.654  13.948   1.426  0.00  0.00    +0.127 A 
ATOM     14  C   UNL     1       6.086  13.169   2.485  0.00  0.00    -0.005 A 
ATOM     15  C   UNL     1       5.543  13.351   3.743  0.00  0.00    +0.007 A 
ATOM     16  F   UNL     1       6.187  13.774   0.197  0.00  0.00    -0.205 F 
ENDBRANCH   9  14
ENDBRANCH   1   9
BRANCH   4  17
ATOM     17  S   UNL     1       4.800   7.394   1.699  0.00  0.00    -0.075 S 
BRANCH  17  18
ATOM     18  C   UNL     1       4.516   6.862  -0.007  0.00  0.00    +0.176 C 
BRANCH  18  19
ATOM     19  C   UNL     1       3.847   5.512  -0.007  0.00  0.00    +0.238 A 
ATOM     20  N   UNL     1       2.557   5.283   0.000  0.00  0.00    -0.191 NA
ATOM     21  C   UNL     1       2.428   3.937  -0.001  0.00  0.00    +0.202 A 
ATOM     22  N   UNL     1       3.634   3.433  -0.016  0.00  0.00    -0.056 NA
ATOM     23  O   UNL     1       4.458   4.323  -0.020  0.00  0.00    -0.337 OA
BRANCH  21  24
ATOM     24  C   UNL     1       1.154   3.174   0.008  0.00  0.00    +0.024 A 
ATOM     25  C   UNL     1       1.174   1.781   0.000  0.00  0.00    +0.012 A 
ATOM     26  C   UNL     1      -0.013   1.076   0.008  0.00  0.00    +0.002 A 
ATOM     27  C   UNL     1      -1.220   1.750   0.017  0.00  0.00    +0.020 A 
ATOM     28  C   UNL     1      -1.246   3.134   0.031  0.00  0.00    +0.042 A 
ATOM     29  C   UNL     1      -0.064   3.849   0.023  0.00  0.00    +0.031 A 
ATOM     30 CL   UNL     1      -2.766   3.972   0.049  0.00  0.00    -0.084 Cl
ENDBRANCH  21  24
ENDBRANCH  18  19
ENDBRANCH  17  18
ENDBRANCH   4  17
TORSDOF 7
