REMARK  Name = ZINC12139940
REMARK  7 active torsions:
REMARK  status: ('A' for Active; 'I' for Inactive)
REMARK    1  A    between atoms: C_1  and  N_2
REMARK    2  A    between atoms: C_6  and  C_23
REMARK    3  A    between atoms: C_8  and  C_16
REMARK    4  A    between atoms: C_10  and  C_11
REMARK    5  A    between atoms: C_10  and  O_15
REMARK    6  A    between atoms: C_16  and  C_18
REMARK    7  A    between atoms: C_26  and  C_29
REMARK                            x       y       z     vdW  Elec       q    Type
REMARK                         _______ _______ _______ _____ _____    ______ ____
ROOT
ATOM      1  C   UNL     1       6.743   1.131   0.566  0.00  0.00    +0.137 C 
ATOM      2  N   UNL     1       5.290   1.091   0.377  0.00  0.00    -0.253 N 
ATOM      3  C   UNL     1       4.747   1.723  -0.674  0.00  0.00    +0.305 C 
ATOM      4  O   UNL     1       5.482   2.304  -1.450  0.00  0.00    -0.253 OA
ATOM      5  N   UNL     1       3.426   1.738  -0.906  0.00  0.00    -0.292 N 
ATOM      6  C   UNL     1       2.490   1.048  -0.016  0.00  0.00    +0.120 C 
ATOM      7  C   UNL     1       3.075   1.012   1.400  0.00  0.00    +0.145 C 
ATOM      8  C   UNL     1       4.462   0.363   1.339  0.00  0.00    +0.245 C 
ATOM      9  H   UNL     1       3.083   2.216  -1.677  0.00  0.00    +0.151 HD
ENDROOT
BRANCH   6  10
ATOM     10  C   UNL     1       1.175   1.783   0.000  0.00  0.00    -0.026 A 
ATOM     11  C   UNL     1      -0.013   1.076   0.008  0.00  0.00    +0.006 A 
ATOM     12  C   UNL     1      -1.219   1.751   0.017  0.00  0.00    +0.013 A 
ATOM     13  C   UNL     1      -1.238   3.133   0.030  0.00  0.00    +0.055 A 
ATOM     14  C   UNL     1      -0.050   3.840   0.022  0.00  0.00    +0.013 A 
ATOM     15  C   UNL     1       1.156   3.165   0.008  0.00  0.00    +0.006 A 
BRANCH  13  16
ATOM     16  C   UNL     1      -2.553   3.869   0.045  0.00  0.00    +0.417 C 
ATOM     17  F   UNL     1      -2.972   4.102  -1.269  0.00  0.00    -0.166 F 
ATOM     18  F   UNL     1      -3.511   3.096   0.710  0.00  0.00    -0.166 F 
ATOM     19  F   UNL     1      -2.396   5.090   0.709  0.00  0.00    -0.166 F 
ENDBRANCH  13  16
ENDBRANCH   6  10
BRANCH   8  20
ATOM     20  C   UNL     1       4.325  -1.095   0.896  0.00  0.00    +0.436 C 
ATOM     21  F   UNL     1       3.732  -1.144  -0.370  0.00  0.00    -0.166 F 
ATOM     22  F   UNL     1       5.592  -1.686   0.840  0.00  0.00    -0.166 F 
ATOM     23  F   UNL     1       3.527  -1.788   1.812  0.00  0.00    -0.166 F 
ENDBRANCH   8  20
BRANCH   8  24
ATOM     24  O   UNL     1       5.071   0.416   2.630  0.00  0.00    -0.364 OA
ATOM     25  H   UNL     1       5.953   0.022   2.665  0.00  0.00    +0.212 HD
ENDBRANCH   8  24
BRANCH   7  26
ATOM     26  C   UNL     1       3.196   2.416   1.933  0.00  0.00    +0.180 C 
ATOM     27  O   UNL     1       4.216   3.049   1.749  0.00  0.00    -0.291 OA
BRANCH  26  28
ATOM     28  C   UNL     1       2.124   2.995   2.647  0.00  0.00    +0.055 A 
ATOM     29  C   UNL     1       2.034   4.259   3.221  0.00  0.00    +0.019 A 
ATOM     30  C   UNL     1       0.862   4.571   3.860  0.00  0.00    +0.008 A 
ATOM     31  C   UNL     1      -0.134   3.644   3.912  0.00  0.00    +0.046 A 
ATOM     32  S   UNL     1       0.535   2.294   3.054  0.00  0.00    -0.094 S 
ENDBRANCH  26  28
ENDBRANCH   7  26
TORSDOF 6
