REMARK  Name = ZINC27343705
REMARK  6 active torsions:
REMARK  status: ('A' for Active; 'I' for Inactive)
REMARK    1  A    between atoms: C_1  and  C_2
REMARK    2  A    between atoms: C_2  and  O_3
REMARK    3  A    between atoms: O_3  and  C_4
REMARK    4  A    between atoms: C_4  and  C_6
REMARK    5  A    between atoms: N_11  and  C_13
REMARK    6  A    between atoms: C_13  and  C_14
REMARK                            x       y       z     vdW  Elec       q    Type
REMARK                         _______ _______ _______ _____ _____    ______ ____
ROOT
ATOM      1  C   UNL     1      -3.140   3.020  -5.107  0.00  0.00    +0.116 A 
ATOM      2  N   UNL     1      -4.018   3.229  -4.147  0.00  0.00    -0.219 NA
ATOM      3  C   UNL     1      -3.750   3.091  -2.850  0.00  0.00    +0.128 A 
ATOM      4  C   UNL     1      -2.420   2.693  -2.530  0.00  0.00    +0.051 A 
ATOM      5  C   UNL     1      -1.865   2.470  -1.205  0.00  0.00    -0.025 A 
ATOM      6  C   UNL     1      -0.568   2.093  -1.146  0.00  0.00    -0.004 A 
ATOM      7  S   UNL     1      -0.026   2.016  -2.835  0.00  0.00    -0.073 S 
ATOM      8  C   UNL     1      -1.534   2.488  -3.618  0.00  0.00    +0.114 A 
ATOM      9  N   UNL     1      -1.886   2.648  -4.878  0.00  0.00    -0.227 NA
ATOM     10  C   UNL     1       0.237   1.803   0.083  0.00  0.00    +0.043 C 
ATOM     11  C   UNL     1      -0.514   2.353   1.304  0.00  0.00    +0.005 C 
ATOM     12  C   UNL     1      -1.981   1.904   1.212  0.00  0.00    +0.005 C 
ATOM     13  C   UNL     1      -2.681   2.644   0.073  0.00  0.00    +0.037 C 
ATOM     14  N   UNL     1      -4.703   3.322  -1.874  0.00  0.00    -0.343 N 
ATOM     15  H   UNL     1      -4.444   3.198  -0.812  0.00  0.00    +0.144 HD
ATOM     16  H   UNL     1      -5.720   3.629  -2.160  0.00  0.00    +0.144 HD
ENDROOT
BRANCH   1  17
ATOM     17  C   UNL     1      -3.580   3.214  -6.535  0.00  0.00    -0.001 C 
BRANCH  17  22
ATOM     18  C   UNL     1      -5.165   0.793  -8.945  0.00  0.00    +0.081 C 
ATOM     19  C   UNL     1      -6.120   0.091  -7.975  0.00  0.00    +0.011 C 
ATOM     20  C   UNL     1      -5.433  -0.063  -6.616  0.00  0.00    -0.018 C 
ATOM     21  C   UNL     1      -5.019   1.317  -6.100  0.00  0.00    -0.078 C 
ATOM     22  N   UNL     1      -4.106   1.947  -7.061  0.00  0.00    +0.385 N 
ATOM     23  C   UNL     1      -4.760   2.148  -8.361  0.00  0.00    -0.064 C 
ATOM     24  H   UNL     1      -3.258   1.264  -7.215  0.00  0.00    -0.081 HD
BRANCH  18  25
ATOM     25  C   UNL     1      -5.856   1.002 -10.268  0.00  0.00    +0.308 C 
ATOM     26  O   UNL     1      -6.008   2.119 -10.701  0.00  0.00    -0.251 OA
BRANCH  25  27
ATOM     27  O   UNL     1      -6.301  -0.055 -10.966  0.00  0.00    -0.465 OA
BRANCH  27  29
ATOM     28  C   UNL     1      -7.392  -1.096 -12.878  0.00  0.00    +0.048 C 
ATOM     29  C   UNL     1      -6.956   0.221 -12.232  0.00  0.00    +0.229 C 
ENDBRANCH  27  29
ENDBRANCH  25  27
ENDBRANCH  18  25
ENDBRANCH  17  22
ENDBRANCH   1  17
TORSDOF 5
