REMARK  Name = ZINC38818431
REMARK  4 active torsions:
REMARK  status: ('A' for Active; 'I' for Inactive)
REMARK    1  A    between atoms: C_1  and  C_2
REMARK    2  A    between atoms: C_5  and  C_8
REMARK    3  A    between atoms: N_9  and  N_10
REMARK    4  A    between atoms: N_10  and  C_11
REMARK                            x       y       z     vdW  Elec       q    Type
REMARK                         _______ _______ _______ _____ _____    ______ ____
ROOT
ATOM      1  N   UNL     1       0.170  -4.212   2.315  0.00  0.00    -0.238 N 
ATOM      2  H   UNL     1       0.011  -3.255   2.331  0.00  0.00    +0.174 HD
ENDROOT
BRANCH   1   3
ATOM      3  C   UNL     1       0.388  -4.880   3.470  0.00  0.00    +0.072 C 
ATOM      4  C   UNL     1       0.621  -6.231   3.489  0.00  0.00    +0.154 C 
ATOM      5  N   UNL     1       0.833  -6.878   4.617  0.00  0.00    -0.164 NA
ATOM      6  N   UNL     1       0.851  -6.367   5.787  0.00  0.00    -0.079 NA
ATOM      7  C   UNL     1       0.648  -5.062   6.019  0.00  0.00    +0.277 C 
ATOM      8  O   UNL     1       0.672  -4.610   7.146  0.00  0.00    -0.270 OA
ATOM      9  C   UNL     1       0.394  -4.171   4.815  0.00  0.00    +0.216 C 
ATOM     10 CL   UNL     1       1.661  -2.890   4.774  0.00  0.00    -0.105 Cl
ENDBRANCH   1   3
BRANCH   1  12
ATOM     11  C   UNL     1       0.089  -4.245  -0.023  0.00  0.00    +0.138 C 
ATOM     12  N   UNL     1       0.172  -4.902   1.096  0.00  0.00    -0.190 NA
BRANCH  11  17
ATOM     13  C   UNL     1       1.884   1.212  -0.293  0.00  0.00    +0.044 C 
ATOM     14  C   UNL     1       1.413  -0.218  -0.222  0.00  0.00    -0.050 A 
ATOM     15  C   UNL     1       1.771  -1.008   0.857  0.00  0.00    +0.004 A 
ATOM     16  C   UNL     1       1.345  -2.317   0.928  0.00  0.00    +0.010 A 
ATOM     17  C   UNL     1       0.549  -2.846  -0.092  0.00  0.00    -0.005 A 
ATOM     18  C   UNL     1       0.191  -2.042  -1.177  0.00  0.00    +0.010 A 
ATOM     19  C   UNL     1       0.621  -0.733  -1.233  0.00  0.00    +0.004 A 
ENDBRANCH  11  17
ENDBRANCH   1  12
TORSDOF 3
