REMARK  Name = ZINC59294520
REMARK  12 active torsions:
REMARK  status: ('A' for Active; 'I' for Inactive)
REMARK    1  A    between atoms: C_1  and  C_2
REMARK    2  A    between atoms: C_9  and  N_14
REMARK    3  A    between atoms: C_10  and  C_11
REMARK    4  A    between atoms: C_15  and  C_17
REMARK    5  A    between atoms: C_17  and  C_18
REMARK    6  A    between atoms: C_17  and  C_19
REMARK    7  A    between atoms: C_17  and  O_20
REMARK    8  A    between atoms: O_20  and  C_21
REMARK    9  A    between atoms: C_24  and  C_27
REMARK   10  A    between atoms: C_27  and  C_28
REMARK   11  A    between atoms: C_27  and  C_29
REMARK   12  A    between atoms: C_27  and  C_30
REMARK                            x       y       z     vdW  Elec       q    Type
REMARK                         _______ _______ _______ _____ _____    ______ ____
ROOT
ATOM      1  N   UNL     1       0.536  -6.620   2.114  0.00  0.00    -0.276 N 
ATOM      2  C   UNL     1       1.485  -6.495   3.063  0.00  0.00    +0.261 C 
ATOM      3  O   UNL     1       1.925  -5.399   3.339  0.00  0.00    -0.271 OA
ATOM      4  H   UNL     1       0.183  -7.496   1.893  0.00  0.00    +0.155 HD
ENDROOT
BRANCH   1  12
ATOM      5  C   UNL     1      -1.749  -0.052  -1.406  0.00  0.00    +0.008 C 
ATOM      6  C   UNL     1      -1.363  -1.516  -1.185  0.00  0.00    -0.009 C 
ATOM      7  C   UNL     1      -2.628  -2.378  -1.137  0.00  0.00    +0.008 C 
ATOM      8  C   UNL     1      -2.250  -3.861  -1.164  0.00  0.00    +0.037 C 
ATOM      9  C   UNL     1      -1.221  -4.121  -0.074  0.00  0.00    -0.023 A 
ATOM     10  C   UNL     1      -0.517  -3.112   0.483  0.00  0.00    -0.004 A 
ATOM     11  S   UNL     1       0.528  -3.897   1.675  0.00  0.00    -0.077 S 
ATOM     12  C   UNL     1       0.063  -5.496   1.454  0.00  0.00    +0.085 A 
ATOM     13  C   UNL     1      -0.901  -5.434   0.460  0.00  0.00    +0.068 A 
ATOM     14  C   UNL     1      -0.613  -1.655   0.148  0.00  0.00    +0.046 C 
BRANCH  13  15
ATOM     15  C   UNL     1      -1.571  -6.642  -0.031  0.00  0.00    +0.244 C 
ATOM     16  O   UNL     1      -1.100  -7.260  -0.968  0.00  0.00    -0.270 OA
ATOM     17  N   UNL     1      -2.707  -7.069   0.555  0.00  0.00    -0.325 N 
ATOM     18  H   UNL     1      -3.082  -6.576   1.302  0.00  0.00    +0.145 HD
ATOM     19  H   UNL     1      -3.150  -7.868   0.230  0.00  0.00    +0.145 HD
ENDBRANCH  13  15
ENDBRANCH   1  12
BRANCH   2  20
ATOM     20  C   UNL     1       1.998  -7.717   3.780  0.00  0.00    +0.180 C 
ATOM     21  C   UNL     1       0.841  -8.408   4.504  0.00  0.00    +0.065 C 
ATOM     22  C   UNL     1       2.615  -8.682   2.766  0.00  0.00    +0.065 C 
BRANCH  20  23
ATOM     23  O   UNL     1       2.991  -7.328   4.732  0.00  0.00    -0.477 OA
BRANCH  23  24
ATOM     24  C   UNL     1       4.103  -6.715   4.248  0.00  0.00    +0.122 A 
ATOM     25  C   UNL     1       4.181  -6.377   2.905  0.00  0.00    +0.046 A 
ATOM     26  C   UNL     1       5.313  -5.753   2.415  0.00  0.00    +0.008 A 
ATOM     27  C   UNL     1       6.367  -5.467   3.262  0.00  0.00    -0.042 A 
ATOM     28  C   UNL     1       6.292  -5.804   4.601  0.00  0.00    +0.008 A 
ATOM     29  C   UNL     1       5.160  -6.422   5.097  0.00  0.00    +0.046 A 
BRANCH  27  30
ATOM     30  C   UNL     1       7.600  -4.787   2.726  0.00  0.00    -0.013 C 
ATOM     31  C   UNL     1       7.218  -3.428   2.138  0.00  0.00    +0.015 C 
ATOM     32  C   UNL     1       8.607  -4.588   3.860  0.00  0.00    +0.015 C 
ATOM     33  C   UNL     1       8.228  -5.657   1.634  0.00  0.00    +0.015 C 
ENDBRANCH  27  30
ENDBRANCH  23  24
ENDBRANCH  20  23
ENDBRANCH   2  20
TORSDOF 6
