REMARK  Name = ZINC63217063
REMARK  5 active torsions:
REMARK  status: ('A' for Active; 'I' for Inactive)
REMARK    1  A    between atoms: C_6  and  S_11
REMARK    2  A    between atoms: S_11  and  N_14
REMARK    3  A    between atoms: C_20  and  C_22
REMARK    4  A    between atoms: C_22  and  S_23
REMARK    5  A    between atoms: S_23  and  C_24
REMARK                            x       y       z     vdW  Elec       q    Type
REMARK                         _______ _______ _______ _____ _____    ______ ____
ROOT
ATOM      1  N   UNL     1       5.677  -3.066   1.513  0.00  0.00    -0.174 NA
ATOM      2  C   UNL     1       6.481  -2.064   2.227  0.00  0.00    +0.128 C 
ATOM      3  C   UNL     1       5.740  -1.664   3.509  0.00  0.00    +0.125 C 
ATOM      4  N   UNL     1       5.338  -2.886   4.220  0.00  0.00    -0.298 N 
ATOM      5  C   UNL     1       4.534  -3.888   3.506  0.00  0.00    +0.125 C 
ATOM      6  C   UNL     1       5.270  -4.285   2.226  0.00  0.00    +0.128 C 
ATOM      7  C   UNL     1       5.700  -3.083   5.503  0.00  0.00    +0.226 C 
ATOM      8  O   UNL     1       6.364  -2.249   6.081  0.00  0.00    -0.275 OA
ENDROOT
BRANCH   1   9
ATOM      9  S   UNL     1       5.231  -2.823  -0.063  0.00  0.00    +0.061 S 
ATOM     10  O   UNL     1       4.984  -4.107  -0.618  0.00  0.00    -0.153 OA
ATOM     11  O   UNL     1       6.181  -1.923  -0.619  0.00  0.00    -0.153 OA
BRANCH   9  17
ATOM     12  C   UNL     1      -0.016   1.357   0.009  0.00  0.00    +0.001 A 
ATOM     13  C   UNL     1       1.169   2.091   0.002  0.00  0.00    +0.001 A 
ATOM     14  C   UNL     1       2.378   1.468  -0.013  0.00  0.00    +0.008 A 
ATOM     15  C   UNL     1       2.438   0.063  -0.021  0.00  0.00    -0.016 A 
ATOM     16  C   UNL     1       3.668  -0.615  -0.036  0.00  0.00    +0.037 A 
ATOM     17  C   UNL     1       3.687  -1.976  -0.043  0.00  0.00    +0.106 A 
ATOM     18  C   UNL     1       2.502  -2.710  -0.036  0.00  0.00    +0.029 A 
ATOM     19  C   UNL     1       1.292  -2.087  -0.021  0.00  0.00    +0.010 A 
ATOM     20  C   UNL     1       1.233  -0.683  -0.013  0.00  0.00    -0.018 A 
ATOM     21  C   UNL     1       0.002  -0.004   0.002  0.00  0.00    +0.008 A 
ENDBRANCH   9  17
ENDBRANCH   1   9
BRANCH   7  22
ATOM     22  C   UNL     1       5.280  -4.341   6.219  0.00  0.00    +0.173 C 
BRANCH  22  23
ATOM     23  S   UNL     1       5.917  -4.312   7.917  0.00  0.00    -0.079 S 
BRANCH  23  24
ATOM     24  C   UNL     1       5.350  -5.828   8.611  0.00  0.00    +0.182 C 
ATOM     25  N   UNL     1       4.638  -6.626   7.833  0.00  0.00    -0.155 NA
ATOM     26  C   UNL     1       4.165  -7.794   8.266  0.00  0.00    +0.245 C 
ATOM     27  O   UNL     1       3.512  -8.521   7.542  0.00  0.00    -0.273 OA
ATOM     28  C   UNL     1       4.475  -8.179   9.701  0.00  0.00    +0.169 C 
ATOM     29  C   UNL     1       5.299  -7.182  10.494  0.00  0.00    +0.104 C 
ATOM     30  N   UNL     1       5.675  -6.083   9.879  0.00  0.00    -0.213 NA
ATOM     31  N   UNL     1       5.636  -7.417  11.780  0.00  0.00    -0.346 N 
ATOM     32  H   UNL     1       5.351  -8.236  12.215  0.00  0.00    +0.143 HD
ATOM     33  H   UNL     1       6.164  -6.766  12.270  0.00  0.00    +0.143 HD
ENDBRANCH  23  24
ENDBRANCH  22  23
ENDBRANCH   7  22
TORSDOF 5
