REMARK  Name = ZINC39542666
REMARK  5 active torsions:
REMARK  status: ('A' for Active; 'I' for Inactive)
REMARK    1  A    between atoms: C_4  and  C_7
REMARK    2  A    between atoms: C_7  and  N_8
REMARK    3  A    between atoms: C_9  and  C_11
REMARK    4  A    between atoms: C_14  and  C_25
REMARK    5  A    between atoms: C_30  and  O_31
REMARK                            x       y       z     vdW  Elec       q    Type
REMARK                         _______ _______ _______ _____ _____    ______ ____
ROOT
ATOM      1  C   UNL     1       4.010  -2.163   3.490  0.00  0.00    +0.150 C 
ATOM      2  C   UNL     1       5.473  -2.643   3.509  0.00  0.00    +0.069 C 
ATOM      3  C   UNL     1       5.409  -4.008   4.156  0.00  0.00    -0.000 C 
ATOM      4  C   UNL     1       4.149  -4.290   4.454  0.00  0.00    +0.079 C 
ATOM      5  N   UNL     1       3.689  -5.448   5.095  0.00  0.00    -0.303 N 
ATOM      6  C   UNL     1       2.621  -5.247   5.985  0.00  0.00    +0.037 A 
ATOM      7  C   UNL     1       2.162  -6.302   6.761  0.00  0.00    +0.023 A 
ATOM      8  C   UNL     1       1.105  -6.107   7.630  0.00  0.00    +0.002 A 
ATOM      9  C   UNL     1       0.511  -4.861   7.720  0.00  0.00    +0.000 A 
ATOM     10  C   UNL     1       0.971  -3.810   6.951  0.00  0.00    +0.007 A 
ATOM     11  C   UNL     1       2.033  -3.994   6.081  0.00  0.00    -0.010 A 
ATOM     12  C   UNL     1       2.529  -2.823   5.274  0.00  0.00    +0.124 C 
ATOM     13  N   UNL     1       3.251  -3.276   4.083  0.00  0.00    -0.370 NA
ATOM     14  H   UNL     1       4.079  -6.322   4.936  0.00  0.00    +0.153 HD
ATOM     15  H   UNL     1       2.592  -3.635   3.408  0.00  0.00    +0.128 HD
ENDROOT
BRANCH   3  16
ATOM     16  C   UNL     1       6.565  -4.888   4.413  0.00  0.00    +0.023 A 
ATOM     17  C   UNL     1       6.789  -6.006   3.608  0.00  0.00    +0.012 A 
ATOM     18  C   UNL     1       7.872  -6.824   3.854  0.00  0.00    +0.001 A 
ATOM     19  C   UNL     1       8.738  -6.542   4.896  0.00  0.00    +0.004 A 
ATOM     20  C   UNL     1       8.526  -5.437   5.701  0.00  0.00    +0.046 A 
ATOM     21  C   UNL     1       7.447  -4.601   5.463  0.00  0.00    +0.124 A 
BRANCH  21  22
ATOM     22  O   UNL     1       7.242  -3.512   6.249  0.00  0.00    -0.506 OA
ATOM     23  H   UNL     1       6.690  -3.685   7.024  0.00  0.00    +0.292 HD
ENDBRANCH  21  22
ENDBRANCH   3  16
BRANCH   1  25
ATOM     24  N   UNL     1       4.152  -0.952   1.338  0.00  0.00    -0.208 N 
ATOM     25  C   UNL     1       3.557  -1.911   2.075  0.00  0.00    +0.249 C 
ATOM     26  O   UNL     1       2.656  -2.570   1.600  0.00  0.00    -0.272 OA
ATOM     27 CL   UNL     1       5.421  -0.023   2.008  0.00  0.00    +0.004 Cl
BRANCH  24  28
ATOM     28  C   UNL     1       3.711  -0.707  -0.038  0.00  0.00    +0.162 C 
BRANCH  28  32
ATOM     29  C   UNL     1      -0.017   1.378   0.010  0.00  0.00    +0.000 A 
ATOM     30  C   UNL     1       1.171   2.086   0.002  0.00  0.00    +0.000 A 
ATOM     31  C   UNL     1       2.377   1.411  -0.013  0.00  0.00    +0.005 A 
ATOM     32  C   UNL     1       2.396   0.029  -0.020  0.00  0.00    -0.029 A 
ATOM     33  C   UNL     1       1.208  -0.679  -0.012  0.00  0.00    +0.005 A 
ATOM     34  C   UNL     1       0.002  -0.004   0.002  0.00  0.00    +0.000 A 
ENDBRANCH  28  32
ENDBRANCH  24  28
ENDBRANCH   1  25
TORSDOF 5
