REMARK  Name = ZINC39932205
REMARK  8 active torsions:
REMARK  status: ('A' for Active; 'I' for Inactive)
REMARK    1  A    between atoms: C_7  and  C_10
REMARK    2  A    between atoms: C_13  and  S_23
REMARK    3  A    between atoms: N_15  and  C_16
REMARK    4  A    between atoms: C_16  and  C_17
REMARK    5  A    between atoms: S_23  and  C_24
REMARK    6  A    between atoms: C_24  and  C_25
REMARK    7  A    between atoms: N_27  and  C_28
REMARK    8  A    between atoms: C_28  and  C_33
REMARK                            x       y       z     vdW  Elec       q    Type
REMARK                         _______ _______ _______ _____ _____    ______ ____
ROOT
ATOM      1  C   UNL     1       0.800  -3.028   0.042  0.00  0.00    +0.147 C 
ATOM      2  N   UNL     1      -0.489  -2.835   0.139  0.00  0.00    -0.169 NA
ATOM      3  N   UNL     1      -1.192  -4.043   0.057  0.00  0.00    -0.237 N 
ATOM      4  C   UNL     1      -0.183  -5.102  -0.113  0.00  0.00    +0.237 C 
ATOM      5  N   UNL     1       1.101  -4.382  -0.122  0.00  0.00    -0.283 N 
ATOM      6  H   UNL     1      -2.154  -4.159   0.102  0.00  0.00    +0.171 HD
ENDROOT
BRANCH   1  13
ATOM      7  C   UNL     1       0.410   1.489   0.222  0.00  0.00    +0.001 A 
ATOM      8  C   UNL     1       1.637   2.155   0.257  0.00  0.00    +0.002 A 
ATOM      9  C   UNL     1       2.815   1.485   0.237  0.00  0.00    +0.026 A 
ATOM     10  C   UNL     1       2.820   0.067   0.179  0.00  0.00    +0.043 A 
ATOM     11  N   UNL     1       3.811  -0.802   0.150  0.00  0.00    -0.380 N 
ATOM     12  C   UNL     1       3.263  -2.160   0.092  0.00  0.00    +0.152 C 
ATOM     13  C   UNL     1       1.759  -2.004   0.089  0.00  0.00    +0.022 C 
ATOM     14  C   UNL     1       1.524  -0.630   0.143  0.00  0.00    +0.006 A 
ATOM     15  C   UNL     1       0.337   0.134   0.167  0.00  0.00    +0.010 A 
ATOM     16  H   UNL     1       4.755  -0.577   0.165  0.00  0.00    +0.160 HD
ENDBRANCH   1  13
BRANCH   5  17
ATOM     17  C   UNL     1       2.434  -4.971  -0.270  0.00  0.00    +0.140 C 
BRANCH  17  18
ATOM     18  C   UNL     1       2.843  -4.942  -1.744  0.00  0.00    +0.136 C 
ATOM     19  C   UNL     1       4.224  -5.619  -1.932  0.00  0.00    +0.035 C 
ATOM     20  C   UNL     1       4.138  -6.056  -3.420  0.00  0.00    +0.031 C 
ATOM     21  C   UNL     1       2.642  -6.402  -3.574  0.00  0.00    +0.160 C 
ATOM     22  O   UNL     1       1.930  -5.724  -2.531  0.00  0.00    -0.375 OA
ENDBRANCH  17  18
ENDBRANCH   5  17
BRANCH   4  23
ATOM     23  S   UNL     1      -0.255  -6.273   1.271  0.00  0.00    -0.109 S 
BRANCH  23  24
ATOM     24  C   UNL     1       0.041  -5.243   2.734  0.00  0.00    +0.168 C 
BRANCH  24  25
ATOM     25  C   UNL     1       0.007  -6.104   3.970  0.00  0.00    +0.224 C 
ATOM     26  O   UNL     1      -0.197  -7.296   3.874  0.00  0.00    -0.275 OA
ATOM     27  N   UNL     1       0.203  -5.550   5.183  0.00  0.00    -0.297 N 
ATOM     28  H   UNL     1       0.366  -4.597   5.260  0.00  0.00    +0.150 HD
BRANCH  27  29
ATOM     29  C   UNL     1       0.170  -6.387   6.385  0.00  0.00    +0.121 C 
ATOM     30  C   UNL     1       1.306  -7.430   6.334  0.00  0.00    +0.041 C 
ATOM     31  C   UNL     1       2.454  -6.781   7.146  0.00  0.00    +0.003 C 
ATOM     32  C   UNL     1       1.699  -6.074   8.300  0.00  0.00    +0.003 C 
ATOM     33  C   UNL     1       0.420  -5.526   7.635  0.00  0.00    +0.041 C 
BRANCH  29  34
ATOM     34  C   UNL     1      -1.132  -7.065   6.492  0.00  0.00    +0.088 C 
ATOM     35  N   UNL     1      -2.138  -7.587   6.574  0.00  0.00    -0.194 NA
ENDBRANCH  29  34
ENDBRANCH  27  29
ENDBRANCH  24  25
ENDBRANCH  23  24
ENDBRANCH   4  23
TORSDOF 8
