REMARK  Name = ZINC01264143
REMARK  5 active torsions:
REMARK  status: ('A' for Active; 'I' for Inactive)
REMARK    1  A    between atoms: C_1  and  N_2
REMARK    2  A    between atoms: N_10  and  C_20
REMARK    3  A    between atoms: C_11  and  S_13
REMARK    4  A    between atoms: S_13  and  C_14
REMARK    5  A    between atoms: C_20  and  C_21
REMARK                            x       y       z     vdW  Elec       q    Type
REMARK                         _______ _______ _______ _____ _____    ______ ____
ROOT
ATOM      1  C   UNL     1       0.340   8.687   0.237  0.00  0.00    +0.155 C 
ATOM      2  N   UNL     1       1.794   8.518   0.296  0.00  0.00    -0.280 N 
ATOM      3  C   UNL     1       2.353   7.269   0.132  0.00  0.00    +0.169 A 
ATOM      4  C   UNL     1       3.742   7.147   0.194  0.00  0.00    +0.152 A 
ATOM      5  C   UNL     1       4.515   8.291   0.420  0.00  0.00    +0.280 A 
ATOM      6  N   UNL     1       3.915   9.466   0.570  0.00  0.00    -0.273 N 
ATOM      7  C   UNL     1       2.591   9.583   0.510  0.00  0.00    +0.331 A 
ATOM      8  O   UNL     1       2.085  10.683   0.654  0.00  0.00    -0.246 OA
ATOM      9  O   UNL     1       5.863   8.200   0.486  0.00  0.00    -0.265 OA
ATOM     10  N   UNL     1       4.023   5.802   0.005  0.00  0.00    -0.308 N 
ATOM     11  C   UNL     1       2.829   5.172  -0.170  0.00  0.00    +0.179 A 
ATOM     12  N   UNL     1       1.852   6.052  -0.089  0.00  0.00    -0.203 NA
ATOM     13  H   UNL     1       4.470  10.282   0.732  0.00  0.00    +0.173 HD
ENDROOT
BRANCH  11  14
ATOM     14  S   UNL     1       2.622   3.445  -0.453  0.00  0.00    -0.012 S 
BRANCH  14  15
ATOM     15  C   UNL     1       0.866   3.363  -0.569  0.00  0.00    +0.196 A 
ATOM     16  N   UNL     1       0.156   4.474  -0.436  0.00  0.00    -0.230 NA
ATOM     17  C   UNL     1      -1.164   4.447  -0.518  0.00  0.00    +0.115 A 
ATOM     18  C   UNL     1      -1.803   3.238  -0.745  0.00  0.00    +0.039 A 
ATOM     19  C   UNL     1      -1.030   2.095  -0.879  0.00  0.00    +0.115 A 
ATOM     20  N   UNL     1       0.286   2.191  -0.787  0.00  0.00    -0.230 NA
ENDBRANCH  14  15
ENDBRANCH  11  14
BRANCH  10  21
ATOM     21  C   UNL     1       5.349   5.180  -0.008  0.00  0.00    +0.161 C 
BRANCH  21  22
ATOM     22  C   UNL     1       5.851   5.096  -1.427  0.00  0.00    -0.009 A 
ATOM     23  C   UNL     1       6.304   6.234  -2.068  0.00  0.00    +0.007 A 
ATOM     24  C   UNL     1       6.764   6.158  -3.369  0.00  0.00    +0.000 A 
ATOM     25  C   UNL     1       6.772   4.944  -4.030  0.00  0.00    +0.001 A 
ATOM     26  C   UNL     1       6.319   3.805  -3.390  0.00  0.00    +0.020 A 
ATOM     27  C   UNL     1       5.864   3.880  -2.086  0.00  0.00    +0.046 A 
ATOM     28 CL   UNL     1       5.302   2.450  -1.279  0.00  0.00    -0.083 Cl
ENDBRANCH  21  22
ENDBRANCH  10  21
TORSDOF 4
