REMARK  Name = ZINC39999774
REMARK  8 active torsions:
REMARK  status: ('A' for Active; 'I' for Inactive)
REMARK    1  A    between atoms: C_1  and  C_2
REMARK    2  A    between atoms: C_2  and  S_3
REMARK    3  A    between atoms: S_3  and  C_4
REMARK    4  A    between atoms: C_10  and  C_26
REMARK    5  A    between atoms: C_12  and  C_17
REMARK    6  A    between atoms: C_17  and  C_19
REMARK    7  A    between atoms: C_22  and  C_25
REMARK    8  A    between atoms: C_29  and  O_32
REMARK                            x       y       z     vdW  Elec       q    Type
REMARK                         _______ _______ _______ _____ _____    ______ ____
ROOT
ATOM      1  C   UNL     1       0.654  -2.375  -1.662  0.00  0.00    +0.160 A 
ATOM      2  N   UNL     1       0.232  -3.089  -0.628  0.00  0.00    -0.133 NA
ATOM      3  N   UNL     1       0.307  -4.348  -0.612  0.00  0.00    -0.125 NA
ATOM      4  C   UNL     1       0.811  -5.033  -1.626  0.00  0.00    +0.192 A 
ATOM      5  S   UNL     1       1.218  -3.690  -2.738  0.00  0.00    -0.024 S 
ATOM      6  N   UNL     1       0.973  -6.404  -1.785  0.00  0.00    -0.230 N 
ATOM      7  C   UNL     1       0.594  -7.437  -0.813  0.00  0.00    +0.152 C 
ATOM      8  C   UNL     1       0.967  -8.761  -1.439  0.00  0.00    +0.077 C 
ATOM      9  C   UNL     1       1.504  -8.482  -2.651  0.00  0.00    +0.250 C 
ATOM     10  C   UNL     1       1.499  -7.020  -2.859  0.00  0.00    +0.293 C 
ATOM     11  O   UNL     1       1.911  -6.456  -3.854  0.00  0.00    -0.266 OA
ATOM     12  O   UNL     1       1.968  -9.398  -3.532  0.00  0.00    -0.282 OA
ENDROOT
BRANCH   7  13
ATOM     13  C   UNL     1       1.351  -7.239   0.474  0.00  0.00    -0.022 A 
ATOM     14  C   UNL     1       2.701  -6.944   0.443  0.00  0.00    +0.009 A 
ATOM     15  C   UNL     1       3.398  -6.762   1.622  0.00  0.00    +0.046 A 
ATOM     16  C   UNL     1       2.741  -6.876   2.839  0.00  0.00    +0.117 A 
ATOM     17  C   UNL     1       1.386  -7.172   2.868  0.00  0.00    +0.046 A 
ATOM     18  C   UNL     1       0.693  -7.347   1.686  0.00  0.00    +0.009 A 
BRANCH  16  19
ATOM     19  O   UNL     1       3.425  -6.699   4.000  0.00  0.00    -0.507 OA
ATOM     20  H   UNL     1       3.434  -5.785   4.315  0.00  0.00    +0.292 HD
ENDBRANCH  16  19
ENDBRANCH   7  13
BRANCH   8  21
ATOM     21  C   UNL     1       0.782 -10.089  -0.849  0.00  0.00    +0.195 C 
ATOM     22  O   UNL     1       1.751 -10.764  -0.555  0.00  0.00    -0.287 OA
BRANCH  21  23
ATOM     23  C   UNL     1      -0.581 -10.609  -0.610  0.00  0.00    +0.022 A 
ATOM     24  C   UNL     1      -1.693  -9.893  -1.059  0.00  0.00    +0.012 A 
ATOM     25  C   UNL     1      -2.962 -10.384  -0.833  0.00  0.00    +0.004 A 
ATOM     26  C   UNL     1      -3.135 -11.583  -0.164  0.00  0.00    -0.050 A 
ATOM     27  C   UNL     1      -2.037 -12.297   0.284  0.00  0.00    +0.004 A 
ATOM     28  C   UNL     1      -0.762 -11.821   0.059  0.00  0.00    +0.012 A 
ATOM     29  C   UNL     1      -4.524 -12.113   0.080  0.00  0.00    +0.044 C 
ENDBRANCH  21  23
ENDBRANCH   8  21
BRANCH   1  30
ATOM     30  S   UNL     1       0.653  -0.630  -1.910  0.00  0.00    -0.097 S 
BRANCH  30  32
ATOM     31  C   UNL     1      -0.131   1.556  -0.466  0.00  0.00    +0.016 C 
ATOM     32  C   UNL     1      -0.070   0.030  -0.383  0.00  0.00    +0.073 C 
ENDBRANCH  30  32
ENDBRANCH   1  30
TORSDOF 6
