REMARK  Name = ZINC00888421
REMARK  13 active torsions:
REMARK  status: ('A' for Active; 'I' for Inactive)
REMARK    1  A    between atoms: C_1  and  C_2
REMARK    2  A    between atoms: C_5  and  C_7
REMARK    3  A    between atoms: N_10  and  C_12
REMARK    4  A    between atoms: C_12  and  C_13
REMARK    5  A    between atoms: N_15  and  C_16
REMARK    6  A    between atoms: N_15  and  C_25
REMARK    7  A    between atoms: C_16  and  C_17
REMARK    8  A    between atoms: C_20  and  O_23
REMARK    9  A    between atoms: O_23  and  C_24
REMARK   10  A    between atoms: C_25  and  C_27
REMARK   11  A    between atoms: C_25  and  C_33
REMARK   12  A    between atoms: C_30  and  C_32
REMARK   13  A    between atoms: N_35  and  C_36
REMARK                            x       y       z     vdW  Elec       q    Type
REMARK                         _______ _______ _______ _____ _____    ______ ____
ROOT
ATOM      1  C   UNL     1       5.300  -5.097  -1.773  0.00  0.00    +0.240 C 
ATOM      2  O   UNL     1       4.731  -5.159  -2.841  0.00  0.00    -0.273 OA
ATOM      3  N   UNL     1       6.647  -5.094  -1.726  0.00  0.00    -0.278 N 
ENDROOT
BRANCH   1   4
ATOM      4  C   UNL     1       4.502  -5.023  -0.496  0.00  0.00    +0.264 C 
BRANCH   4   8
ATOM      5  C   UNL     1       1.089  -4.595  -1.290  0.00  0.00    +0.239 A 
ATOM      6  N   UNL     1       1.173  -5.929  -1.168  0.00  0.00    -0.105 NA
ATOM      7  N   UNL     1       2.397  -6.210  -0.874  0.00  0.00    -0.045 NA
ATOM      8  N   UNL     1       3.074  -5.117  -0.808  0.00  0.00    -0.154 N 
ATOM      9  N   UNL     1       2.300  -4.119  -1.063  0.00  0.00    -0.127 NA
BRANCH   5  14
ATOM     10  C   UNL     1      -1.925  -0.701  -2.267  0.00  0.00    +0.086 C 
ATOM     11  C   UNL     1      -1.443  -2.112  -2.047  0.00  0.00    +0.103 A 
ATOM     12  C   UNL     1      -2.203  -3.222  -2.124  0.00  0.00    +0.045 A 
ATOM     13  C   UNL     1      -1.360  -4.318  -1.850  0.00  0.00    +0.053 A 
ATOM     14  C   UNL     1      -0.121  -3.811  -1.619  0.00  0.00    +0.175 A 
ATOM     15  O   UNL     1      -0.185  -2.472  -1.748  0.00  0.00    -0.457 OA
ENDBRANCH   5  14
ENDBRANCH   4   8
ENDBRANCH   1   4
BRANCH   3  16
ATOM     16  C   UNL     1       7.336  -5.116  -0.433  0.00  0.00    +0.144 C 
BRANCH  16  17
ATOM     17  C   UNL     1       7.680  -3.707  -0.023  0.00  0.00    -0.030 A 
ATOM     18  C   UNL     1       8.843  -3.118  -0.485  0.00  0.00    +0.009 A 
ATOM     19  C   UNL     1       9.161  -1.827  -0.111  0.00  0.00    +0.046 A 
ATOM     20  C   UNL     1       8.312  -1.121   0.729  0.00  0.00    +0.120 A 
ATOM     21  C   UNL     1       7.146  -1.714   1.191  0.00  0.00    +0.046 A 
ATOM     22  C   UNL     1       6.830  -3.003   0.809  0.00  0.00    +0.009 A 
BRANCH  20  23
ATOM     23  O   UNL     1       8.623   0.149   1.100  0.00  0.00    -0.495 OA
ATOM     24  C   UNL     1       7.703   0.815   1.967  0.00  0.00    +0.277 C 
ENDBRANCH  20  23
ENDBRANCH  16  17
ENDBRANCH   3  16
BRANCH   3  25
ATOM     25  C   UNL     1       7.423  -5.068  -2.969  0.00  0.00    +0.228 C 
BRANCH  25  26
ATOM     26  C   UNL     1       7.100  -3.812  -3.737  0.00  0.00    +0.135 A 
ATOM     27  C   UNL     1       7.977  -3.073  -4.439  0.00  0.00    +0.047 A 
ATOM     28  C   UNL     1       7.251  -1.994  -4.993  0.00  0.00    +0.045 A 
ATOM     29  C   UNL     1       5.974  -2.139  -4.597  0.00  0.00    +0.102 A 
ATOM     30  O   UNL     1       5.887  -3.245  -3.841  0.00  0.00    -0.462 OA
ATOM     31  C   UNL     1       4.833  -1.219  -4.947  0.00  0.00    +0.086 C 
ENDBRANCH  25  26
BRANCH  25  32
ATOM     32  C   UNL     1       7.072  -6.272  -3.805  0.00  0.00    +0.241 C 
ATOM     33  O   UNL     1       6.255  -7.073  -3.402  0.00  0.00    -0.273 OA
ATOM     34  N   UNL     1       7.667  -6.459  -5.000  0.00  0.00    -0.311 N 
ATOM     35  H   UNL     1       8.321  -5.819  -5.322  0.00  0.00    +0.149 HD
BRANCH  34  36
ATOM     36  C   UNL     1       7.326  -7.630  -5.812  0.00  0.00    +0.073 C 
ATOM     37  C   UNL     1       8.174  -8.823  -5.368  0.00  0.00    +0.022 C 
ATOM     38  C   UNL     1       7.818 -10.046  -6.217  0.00  0.00    +0.002 C 
ATOM     39  C   UNL     1       8.097  -9.742  -7.690  0.00  0.00    +0.000 C 
ATOM     40  C   UNL     1       7.249  -8.549  -8.134  0.00  0.00    +0.002 C 
ATOM     41  C   UNL     1       7.605  -7.326  -7.286  0.00  0.00    +0.022 C 
ENDBRANCH  34  36
ENDBRANCH  25  32
ENDBRANCH   3  25
TORSDOF 10
