REMARK  Name = ZINC39631960
REMARK  14 active torsions:
REMARK  status: ('A' for Active; 'I' for Inactive)
REMARK    1  A    between atoms: C_1  and  C_2
REMARK    2  A    between atoms: C_12  and  O_13
REMARK    3  A    between atoms: O_13  and  C_14
REMARK    4  A    between atoms: C_14  and  C_15
REMARK    5  A    between atoms: C_19  and  C_28
REMARK    6  A    between atoms: N_30  and  C_31
REMARK    7  A    between atoms: C_31  and  C_33
REMARK    8  A    between atoms: C_31  and  C_34
REMARK    9  A    between atoms: C_34  and  C_35
REMARK   10  A    between atoms: C_35  and  C_36
REMARK   11  A    between atoms: C_36  and  C_37
REMARK   12  A    between atoms: C_37  and  C_38
REMARK   13  A    between atoms: C_37  and  C_39
REMARK   14  A    between atoms: C_37  and  O_40
REMARK                            x       y       z     vdW  Elec       q    Type
REMARK                         _______ _______ _______ _____ _____    ______ ____
ROOT
ATOM      1  C   UNL     1       0.135  -6.537   3.324  0.00  0.00    +0.253 C 
ATOM      2  O   UNL     1       0.095  -6.991   2.200  0.00  0.00    -0.272 OA
ATOM      3  N   UNL     1       0.125  -7.366   4.387  0.00  0.00    -0.297 N 
ATOM      4  C   UNL     1       0.161  -7.002   5.823  0.00  0.00    +0.121 C 
ATOM      5  C   UNL     1      -0.808  -7.996   6.502  0.00  0.00    +0.100 C 
ATOM      6  C   UNL     1      -0.857  -9.206   5.553  0.00  0.00    -0.004 C 
ATOM      7  C   UNL     1       0.071  -8.847   4.383  0.00  0.00    +0.115 C 
ATOM      8  C   UNL     1      -2.279  -9.420   5.044  0.00  0.00    -0.010 C 
ATOM      9  C   UNL     1      -2.314 -10.662   4.148  0.00  0.00    -0.082 C 
ATOM     10  N   UNL     1      -1.865 -11.832   4.912  0.00  0.00    +0.379 N 
ATOM     11  C   UNL     1      -0.465 -11.657   5.320  0.00  0.00    -0.082 C 
ATOM     12  C   UNL     1      -0.352 -10.457   6.265  0.00  0.00    -0.010 C 
ATOM     13  H   UNL     1      -2.442 -11.937   5.734  0.00  0.00    -0.086 HD
ATOM     14  H   UNL     1      -1.946 -12.658   4.339  0.00  0.00    -0.086 HD
ENDROOT
BRANCH   5  15
ATOM     15  C   UNL     1      -0.278  -8.407   7.851  0.00  0.00    +0.218 C 
ATOM     16  O   UNL     1       0.918  -8.472   8.039  0.00  0.00    -0.275 OA
ATOM     17  N   UNL     1      -1.134  -8.701   8.850  0.00  0.00    -0.312 N 
ATOM     18  H   UNL     1      -2.091  -8.649   8.700  0.00  0.00    +0.149 HD
BRANCH  17  19
ATOM     19  C   UNL     1      -0.619  -9.100  10.162  0.00  0.00    +0.070 C 
ATOM     20  C   UNL     1      -0.312  -7.851  10.991  0.00  0.00    +0.028 C 
BRANCH  19  21
ATOM     21  C   UNL     1      -1.668  -9.947  10.886  0.00  0.00    +0.022 C 
BRANCH  21  22
ATOM     22  C   UNL     1      -1.884 -11.255  10.121  0.00  0.00    +0.005 C 
BRANCH  22  23
ATOM     23  C   UNL     1      -2.933 -12.102  10.845  0.00  0.00    +0.034 C 
BRANCH  23  24
ATOM     24  C   UNL     1      -3.148 -13.409  10.080  0.00  0.00    +0.061 C 
ATOM     25  C   UNL     1      -4.284 -14.200  10.732  0.00  0.00    +0.041 C 
ATOM     26  C   UNL     1      -3.513 -13.096   8.627  0.00  0.00    +0.041 C 
BRANCH  24  27
ATOM     27  O   UNL     1      -1.948 -14.184  10.113  0.00  0.00    -0.389 OA
ATOM     28  H   UNL     1      -2.012 -15.029   9.647  0.00  0.00    +0.210 HD
ENDBRANCH  24  27
ENDBRANCH  23  24
ENDBRANCH  22  23
ENDBRANCH  21  22
ENDBRANCH  19  21
ENDBRANCH  17  19
ENDBRANCH   5  15
BRANCH   1  29
ATOM     29  C   UNL     1       0.194  -5.045   3.533  0.00  0.00    +0.324 C 
BRANCH  29  30
ATOM     30  O   UNL     1       0.193  -4.387   2.264  0.00  0.00    -0.479 OA
BRANCH  30  42
ATOM     31  C   UNL     1       0.353   1.324  -0.190  0.00  0.00    +0.045 C 
ATOM     32  C   UNL     1       0.298  -0.182  -0.168  0.00  0.00    -0.033 A 
ATOM     33  C   UNL     1       0.249  -0.894  -1.322  0.00  0.00    +0.096 A 
ATOM     34  C   UNL     1       0.199  -2.304  -1.274  0.00  0.00    +0.338 A 
ATOM     35  O   UNL     1       0.156  -2.932  -2.317  0.00  0.00    -0.245 OA
ATOM     36  O   UNL     1       0.198  -2.970  -0.110  0.00  0.00    -0.418 OA
ATOM     37  C   UNL     1       0.245  -2.321   1.074  0.00  0.00    +0.181 A 
ATOM     38  C   UNL     1       0.302  -0.917   1.100  0.00  0.00    +0.024 A 
ATOM     39  C   UNL     1       0.357  -0.243   2.324  0.00  0.00    +0.012 A 
ATOM     40  C   UNL     1       0.359  -0.960   3.499  0.00  0.00    +0.004 A 
ATOM     41  C   UNL     1       0.308  -2.346   3.476  0.00  0.00    +0.049 A 
ATOM     42  C   UNL     1       0.243  -3.028   2.275  0.00  0.00    +0.164 A 
ENDBRANCH  30  42
ENDBRANCH  29  30
ENDBRANCH   1  29
TORSDOF 10
