REMARK  Name = ZINC63276379
REMARK  6 active torsions:
REMARK  status: ('A' for Active; 'I' for Inactive)
REMARK    1  A    between atoms: C_1  and  C_2
REMARK    2  A    between atoms: C_6  and  C_28
REMARK    3  A    between atoms: C_7  and  N_8
REMARK    4  A    between atoms: C_14  and  C_15
REMARK    5  A    between atoms: N_17  and  C_26
REMARK    6  A    between atoms: C_19  and  C_20
REMARK                            x       y       z     vdW  Elec       q    Type
REMARK                         _______ _______ _______ _____ _____    ______ ____
ROOT
ATOM      1  N   UNL     1       0.025  -0.038   2.398  0.00  0.00    -0.225 NA
ATOM      2  C   UNL     1      -1.112   0.270   2.981  0.00  0.00    +0.166 C 
ATOM      3  N   UNL     1      -2.394  -0.001   2.556  0.00  0.00    -0.260 N 
ATOM      4  C   UNL     1      -3.437   0.384   3.272  0.00  0.00    +0.256 C 
ATOM      5  O   UNL     1      -4.577   0.153   2.910  0.00  0.00    -0.269 OA
ATOM      6  C   UNL     1      -3.159   1.105   4.526  0.00  0.00    +0.078 C 
ATOM      7  C   UNL     1      -4.027   1.608   5.441  0.00  0.00    +0.032 C 
ATOM      8  S   UNL     1      -1.372   1.134   4.522  0.00  0.00    -0.049 S 
ATOM      9  H   UNL     1      -2.533  -0.479   1.723  0.00  0.00    +0.157 HD
ENDROOT
BRANCH   1  16
ATOM     10  C   UNL     1      -0.018   1.503   0.010  0.00  0.00    +0.046 C 
ATOM     11  C   UNL     1       0.002  -0.004   0.002  0.00  0.00    -0.025 A 
ATOM     12  C   UNL     1       0.006  -0.689  -1.195  0.00  0.00    +0.005 A 
ATOM     13  C   UNL     1       0.025  -2.072  -1.205  0.00  0.00    +0.001 A 
ATOM     14  C   UNL     1       0.040  -2.779  -0.015  0.00  0.00    +0.005 A 
ATOM     15  C   UNL     1       0.037  -2.107   1.190  0.00  0.00    -0.025 A 
ATOM     16  C   UNL     1       0.023  -0.711   1.207  0.00  0.00    +0.072 A 
ATOM     17  C   UNL     1       0.054  -2.878   2.484  0.00  0.00    +0.046 C 
ENDBRANCH   1  16
BRANCH   7  18
ATOM     18  C   UNL     1      -3.519   2.298   6.633  0.00  0.00    +0.022 A 
ATOM     19  C   UNL     1      -2.194   2.520   6.959  0.00  0.00    +0.116 A 
ATOM     20  N   UNL     1      -2.165   3.184   8.128  0.00  0.00    -0.273 N 
ATOM     21  N   UNL     1      -3.470   3.403   8.578  0.00  0.00    -0.171 NA
ATOM     22  C   UNL     1      -4.316   2.895   7.710  0.00  0.00    +0.100 A 
ATOM     23  C   UNL     1      -0.949   3.613   8.824  0.00  0.00    +0.172 C 
BRANCH  22  24
ATOM     24  C   UNL     1      -5.795   2.917   7.804  0.00  0.00    +0.006 A 
ATOM     25  C   UNL     1      -6.586   3.033   6.657  0.00  0.00    +0.030 A 
ATOM     26  C   UNL     1      -7.959   3.050   6.790  0.00  0.00    +0.111 A 
ATOM     27  N   UNL     1      -8.525   2.958   7.978  0.00  0.00    -0.263 NA
ATOM     28  C   UNL     1      -7.816   2.847   9.085  0.00  0.00    +0.111 A 
ATOM     29  C   UNL     1      -6.437   2.816   9.043  0.00  0.00    +0.030 A 
ENDBRANCH  22  24
ENDBRANCH   7  18
TORSDOF 3
