REMARK  Name = ZINC11254202
REMARK  6 active torsions:
REMARK  status: ('A' for Active; 'I' for Inactive)
REMARK    1  A    between atoms: C_1  and  N_2
REMARK    2  A    between atoms: N_2  and  C_3
REMARK    3  A    between atoms: C_6  and  C_11
REMARK    4  A    between atoms: C_11  and  S_12
REMARK    5  A    between atoms: S_12  and  C_13
REMARK    6  A    between atoms: N_26  and  C_27
REMARK                            x       y       z     vdW  Elec       q    Type
REMARK                         _______ _______ _______ _____ _____    ______ ____
ROOT
ATOM      1  C   UNL     1       5.667   3.203  -1.455  0.00  0.00    +0.173 A 
ATOM      2  N   UNL     1       6.070   3.424  -0.220  0.00  0.00    -0.216 NA
ATOM      3  C   UNL     1       7.103   4.223   0.025  0.00  0.00    +0.117 A 
ATOM      4  C   UNL     1       7.811   4.865  -1.005  0.00  0.00    +0.076 A 
ATOM      5  C   UNL     1       8.925   5.715  -0.580  0.00  0.00    -0.023 A 
ATOM      6  C   UNL     1       9.161   5.798   0.745  0.00  0.00    -0.004 A 
ATOM      7  S   UNL     1       7.933   4.765   1.497  0.00  0.00    -0.073 S 
ATOM      8  C   UNL     1      10.232   6.593   1.428  0.00  0.00    +0.043 C 
ATOM      9  C   UNL     1      11.266   7.018   0.376  0.00  0.00    +0.005 C 
ATOM     10  C   UNL     1      10.527   7.597  -0.834  0.00  0.00    +0.005 C 
ATOM     11  C   UNL     1       9.792   6.480  -1.576  0.00  0.00    +0.037 C 
ATOM     12  C   UNL     1       7.352   4.605  -2.335  0.00  0.00    +0.263 A 
ATOM     13  O   UNL     1       7.906   5.119  -3.292  0.00  0.00    -0.267 OA
ATOM     14  N   UNL     1       6.302   3.782  -2.515  0.00  0.00    -0.284 N 
ENDROOT
BRANCH  14  15
ATOM     15  C   UNL     1       5.829   3.508  -3.874  0.00  0.00    +0.093 C 
ATOM     16  C   UNL     1       6.952   2.848  -4.701  0.00  0.00    +0.025 C 
ATOM     17  C   UNL     1       6.784   3.453  -6.118  0.00  0.00    +0.002 C 
ATOM     18  C   UNL     1       6.394   4.922  -5.819  0.00  0.00    +0.002 C 
ATOM     19  C   UNL     1       5.474   4.825  -4.585  0.00  0.00    +0.025 C 
ENDBRANCH  14  15
BRANCH   1  20
ATOM     20  S   UNL     1       4.293   2.137  -1.742  0.00  0.00    -0.080 S 
BRANCH  20  21
ATOM     21  C   UNL     1       3.887   1.681  -0.038  0.00  0.00    +0.153 C 
BRANCH  21  27
ATOM     22  C   UNL     1      -1.998   0.013   0.103  0.00  0.00    +0.132 C 
ATOM     23  N   UNL     1      -0.847   0.919   0.107  0.00  0.00    -0.306 N 
ATOM     24  C   UNL     1      -1.055   2.367   0.185  0.00  0.00    +0.132 C 
ATOM     25  C   UNL     1       0.434   0.409   0.038  0.00  0.00    +0.222 A 
ATOM     26  N   UNL     1       1.480   1.233   0.036  0.00  0.00    -0.198 NA
ATOM     27  C   UNL     1       2.706   0.746  -0.036  0.00  0.00    +0.146 A 
ATOM     28  N   UNL     1       2.899  -0.560  -0.106  0.00  0.00    -0.199 NA
ATOM     29  C   UNL     1       1.858  -1.389  -0.105  0.00  0.00    +0.217 A 
ATOM     30  N   UNL     1       0.624  -0.903  -0.033  0.00  0.00    -0.181 NA
ATOM     31  N   UNL     1       2.061  -2.752  -0.177  0.00  0.00    -0.327 N 
ATOM     32  H   UNL     1       1.302  -3.357  -0.176  0.00  0.00    +0.145 HD
ATOM     33  H   UNL     1       2.963  -3.107  -0.230  0.00  0.00    +0.145 HD
ENDBRANCH  21  27
ENDBRANCH  20  21
ENDBRANCH   1  20
TORSDOF 4
