REMARK  Name = ZINC39630026
REMARK  7 active torsions:
REMARK  status: ('A' for Active; 'I' for Inactive)
REMARK    1  A    between atoms: C_3  and  C_12
REMARK    2  A    between atoms: C_6  and  C_7
REMARK    3  A    between atoms: C_16  and  C_25
REMARK    4  A    between atoms: N_27  and  C_28
REMARK    5  A    between atoms: C_28  and  C_29
REMARK    6  A    between atoms: C_29  and  C_30
REMARK    7  A    between atoms: C_30  and  N_31
REMARK                            x       y       z     vdW  Elec       q    Type
REMARK                         _______ _______ _______ _____ _____    ______ ____
ROOT
ATOM      1  C   UNL     1       3.460   2.112   0.056  0.00  0.00    +0.249 C 
ATOM      2  O   UNL     1       4.499   1.482   0.067  0.00  0.00    -0.270 OA
ATOM      3  N   UNL     1       3.486   3.452  -0.091  0.00  0.00    -0.296 N 
ATOM      4  C   UNL     1       2.345   4.396  -0.023  0.00  0.00    +0.121 C 
ATOM      5  C   UNL     1       2.902   5.627   0.727  0.00  0.00    +0.100 C 
ATOM      6  C   UNL     1       4.422   5.569   0.503  0.00  0.00    -0.004 C 
ATOM      7  C   UNL     1       4.664   4.315  -0.350  0.00  0.00    +0.115 C 
ATOM      8  C   UNL     1       5.148   5.439   1.838  0.00  0.00    -0.010 C 
ATOM      9  C   UNL     1       6.660   5.441   1.594  0.00  0.00    -0.082 C 
ATOM     10  N   UNL     1       7.048   6.687   0.922  0.00  0.00    +0.379 N 
ATOM     11  C   UNL     1       6.417   6.760  -0.401  0.00  0.00    -0.082 C 
ATOM     12  C   UNL     1       4.895   6.814  -0.241  0.00  0.00    -0.010 C 
ATOM     13  H   UNL     1       6.750   7.474   1.479  0.00  0.00    -0.086 HD
ATOM     14  H   UNL     1       8.051   6.713   0.818  0.00  0.00    -0.086 HD
ENDROOT
BRANCH   1  17
ATOM     15  C   UNL     1      -0.167   1.220  -0.327  0.00  0.00    +0.013 A 
ATOM     16  C   UNL     1       1.036   1.879  -0.467  0.00  0.00    +0.016 A 
ATOM     17  C   UNL     1       2.168   1.411   0.202  0.00  0.00    +0.072 A 
ATOM     18  C   UNL     1       2.074   0.273   1.010  0.00  0.00    +0.136 A 
ATOM     19  C   UNL     1       0.861  -0.378   1.140  0.00  0.00    +0.051 A 
ATOM     20  C   UNL     1      -0.255   0.094   0.474  0.00  0.00    +0.058 A 
ATOM     21  F   UNL     1       3.164  -0.188   1.660  0.00  0.00    -0.205 F 
BRANCH  20  22
ATOM     22  C   UNL     1      -1.573  -0.620   0.622  0.00  0.00    +0.418 C 
ATOM     23  F   UNL     1      -1.685  -1.602  -0.369  0.00  0.00    -0.166 F 
ATOM     24  F   UNL     1      -1.640  -1.221   1.883  0.00  0.00    -0.166 F 
ATOM     25  F   UNL     1      -2.619   0.299   0.487  0.00  0.00    -0.166 F 
ENDBRANCH  20  22
ENDBRANCH   1  17
BRANCH   5  26
ATOM     26  C   UNL     1       2.332   6.896   0.147  0.00  0.00    +0.218 C 
ATOM     27  O   UNL     1       2.039   6.947  -1.029  0.00  0.00    -0.275 OA
ATOM     28  N   UNL     1       2.148   7.974   0.935  0.00  0.00    -0.315 N 
ATOM     29  H   UNL     1       2.382   7.933   1.875  0.00  0.00    +0.149 HD
BRANCH  28  30
ATOM     30  C   UNL     1       1.594   9.207   0.371  0.00  0.00    +0.106 C 
BRANCH  30  31
ATOM     31  C   UNL     1       1.488  10.267   1.470  0.00  0.00    +0.040 C 
BRANCH  31  32
ATOM     32  C   UNL     1       0.910  11.556   0.881  0.00  0.00    +0.124 C 
BRANCH  32  33
ATOM     33  N   UNL     1       0.809  12.571   1.932  0.00  0.00    -0.338 N 
ATOM     34  C   UNL     1      -0.263  12.781   2.758  0.00  0.00    +0.104 A 
ATOM     35  C   UNL     1       0.066  13.804   3.570  0.00  0.00    +0.101 A 
ATOM     36  N   UNL     1       1.305  14.207   3.249  0.00  0.00    -0.352 N 
ATOM     37  C   UNL     1       1.758  13.470   2.272  0.00  0.00    +0.173 A 
ATOM     38  H   UNL     1       1.789  14.930   3.678  0.00  0.00    +0.166 HD
ENDBRANCH  32  33
ENDBRANCH  31  32
ENDBRANCH  30  31
ENDBRANCH  28  30
ENDBRANCH   5  26
TORSDOF 7
