REMARK  Name = ZINC18167747
REMARK  8 active torsions:
REMARK  status: ('A' for Active; 'I' for Inactive)
REMARK    1  A    between atoms: C_1  and  C_2
REMARK    2  A    between atoms: C_5  and  N_8
REMARK    3  A    between atoms: N_8  and  C_9
REMARK    4  A    between atoms: C_9  and  N_11
REMARK    5  A    between atoms: N_11  and  N_12
REMARK    6  A    between atoms: N_20  and  C_23
REMARK    7  A    between atoms: C_23  and  C_24
REMARK    8  A    between atoms: C_29  and  C_30
REMARK                            x       y       z     vdW  Elec       q    Type
REMARK                         _______ _______ _______ _____ _____    ______ ____
ROOT
ATOM      1  N   UNL     1       0.070  -7.261  -0.685  0.00  0.00    -0.175 NA
ATOM      2  C   UNL     1       0.326  -8.545  -0.595  0.00  0.00    +0.153 C 
ATOM      3  C   UNL     1       0.623  -9.485  -1.701  0.00  0.00    +0.028 A 
ATOM      4  C   UNL     1       0.722  -9.333  -3.079  0.00  0.00    +0.012 A 
ATOM      5  C   UNL     1       1.020 -10.426  -3.869  0.00  0.00    +0.001 A 
ATOM      6  C   UNL     1       1.221 -11.667  -3.288  0.00  0.00    +0.002 A 
ATOM      7  C   UNL     1       1.125 -11.828  -1.921  0.00  0.00    +0.024 A 
ATOM      8  C   UNL     1       0.826 -10.739  -1.110  0.00  0.00    +0.046 A 
ATOM      9  N   UNL     1       0.673 -10.627   0.268  0.00  0.00    -0.261 N 
ATOM     10  C   UNL     1       0.386  -9.365   0.630  0.00  0.00    +0.272 C 
ATOM     11  O   UNL     1       0.204  -8.970   1.766  0.00  0.00    -0.268 OA
ENDROOT
BRANCH   1  12
ATOM     12  N   UNL     1      -0.186  -6.515   0.472  0.00  0.00    -0.217 N 
ATOM     13  H   UNL     1      -0.175  -6.948   1.341  0.00  0.00    +0.176 HD
BRANCH  12  14
ATOM     14  C   UNL     1      -0.449  -5.196   0.380  0.00  0.00    +0.154 C 
ATOM     15  S   UNL     1      -0.762  -4.285   1.795  0.00  0.00    -0.017 S 
BRANCH  14  16
ATOM     16  N   UNL     1      -0.465  -4.596  -0.826  0.00  0.00    -0.296 N 
ATOM     17  H   UNL     1      -0.370  -5.125  -1.633  0.00  0.00    +0.154 HD
BRANCH  16  22
ATOM     18  C   UNL     1      -1.089   1.031  -1.185  0.00  0.00    +0.044 C 
ATOM     19  C   UNL     1      -0.923  -0.464  -1.090  0.00  0.00    -0.050 A 
ATOM     20  C   UNL     1      -0.108  -1.006  -0.114  0.00  0.00    +0.005 A 
ATOM     21  C   UNL     1       0.046  -2.376  -0.024  0.00  0.00    +0.023 A 
ATOM     22  C   UNL     1      -0.620  -3.208  -0.914  0.00  0.00    +0.033 A 
ATOM     23  C   UNL     1      -1.438  -2.660  -1.893  0.00  0.00    +0.023 A 
ATOM     24  C   UNL     1      -1.592  -1.290  -1.975  0.00  0.00    +0.005 A 
ENDBRANCH  16  22
ENDBRANCH  14  16
ENDBRANCH  12  14
ENDBRANCH   1  12
BRANCH   9  25
ATOM     25  C   UNL     1       0.814 -11.743   1.207  0.00  0.00    +0.149 C 
BRANCH  25  26
ATOM     26  C   UNL     1       2.249 -11.842   1.657  0.00  0.00    -0.027 A 
ATOM     27  C   UNL     1       3.211 -11.033   1.082  0.00  0.00    +0.005 A 
ATOM     28  C   UNL     1       4.527 -11.124   1.495  0.00  0.00    +0.000 A 
ATOM     29  C   UNL     1       4.881 -12.024   2.482  0.00  0.00    +0.000 A 
ATOM     30  C   UNL     1       3.919 -12.833   3.057  0.00  0.00    +0.003 A 
ATOM     31  C   UNL     1       2.602 -12.739   2.647  0.00  0.00    -0.046 A 
ATOM     32  C   UNL     1       1.552 -13.617   3.278  0.00  0.00    +0.044 C 
ENDBRANCH  25  26
ENDBRANCH   9  25
TORSDOF 6
