REMARK  Name = ZINC07238823
REMARK  6 active torsions:
REMARK  status: ('A' for Active; 'I' for Inactive)
REMARK    1  A    between atoms: C_10  and  C_11
REMARK    2  A    between atoms: C_11  and  C_12
REMARK    3  A    between atoms: C_15  and  S_18
REMARK    4  A    between atoms: N_16  and  N_17
REMARK    5  A    between atoms: S_18  and  C_19
REMARK    6  A    between atoms: C_19  and  N_20
REMARK                            x       y       z     vdW  Elec       q    Type
REMARK                         _______ _______ _______ _____ _____    ______ ____
ROOT
ATOM      1  C   UNL     1       5.049   0.351   1.515  0.00  0.00    +0.155 A 
ATOM      2  N   UNL     1       4.681   1.413   2.175  0.00  0.00    -0.132 NA
ATOM      3  N   UNL     1       5.271   1.449   3.317  0.00  0.00    -0.121 NA
ATOM      4  C   UNL     1       6.054   0.403   3.448  0.00  0.00    +0.210 A 
ATOM      5  N   UNL     1       5.933  -0.333   2.304  0.00  0.00    -0.228 N 
ENDROOT
BRANCH   5   6
ATOM      6  N   UNL     1       6.565  -1.507   2.007  0.00  0.00    -0.295 N 
ATOM      7  H   UNL     1       7.447  -1.336   1.546  0.00  0.00    +0.163 HD
ATOM      8  H   UNL     1       6.693  -2.068   2.836  0.00  0.00    +0.163 HD
ENDBRANCH   5   6
BRANCH   1   9
ATOM      9  C   UNL     1       4.583  -0.051   0.140  0.00  0.00    +0.113 C 
BRANCH   9  19
ATOM     10  C   UNL     1      -0.443   0.812   0.581  0.00  0.00    +0.001 A 
ATOM     11  C   UNL     1       0.685   1.623   0.473  0.00  0.00    +0.001 A 
ATOM     12  C   UNL     1       1.929   1.082   0.367  0.00  0.00    +0.009 A 
ATOM     13  C   UNL     1       2.082  -0.315   0.366  0.00  0.00    -0.014 A 
ATOM     14  C   UNL     1       0.935  -1.140   0.477  0.00  0.00    -0.018 A 
ATOM     15  C   UNL     1      -0.334  -0.545   0.585  0.00  0.00    +0.008 A 
ATOM     16  C   UNL     1       1.088  -2.537   0.477  0.00  0.00    +0.008 A 
ATOM     17  C   UNL     1       2.332  -3.078   0.372  0.00  0.00    +0.001 A 
ATOM     18  C   UNL     1       3.460  -2.267   0.263  0.00  0.00    +0.004 A 
ATOM     19  C   UNL     1       3.351  -0.911   0.259  0.00  0.00    -0.032 A 
ENDBRANCH   9  19
ENDBRANCH   1   9
BRANCH   4  20
ATOM     20  S   UNL     1       7.064   0.018   4.839  0.00  0.00    -0.061 S 
BRANCH  20  21
ATOM     21  C   UNL     1       6.878   1.457   5.928  0.00  0.00    +0.226 C 
BRANCH  21  22
ATOM     22  N   UNL     1       7.669   2.573   5.402  0.00  0.00    -0.200 N 
ATOM     23  C   UNL     1       8.986   2.668   5.700  0.00  0.00    +0.279 A 
ATOM     24  O   UNL     1       9.537   1.840   6.402  0.00  0.00    -0.265 OA
ATOM     25  C   UNL     1       9.725   3.811   5.142  0.00  0.00    +0.068 A 
ATOM     26  C   UNL     1      11.084   3.996   5.391  0.00  0.00    +0.015 A 
ATOM     27  C   UNL     1      11.732   5.082   4.846  0.00  0.00    +0.001 A 
ATOM     28  C   UNL     1      11.044   5.991   4.053  0.00  0.00    +0.002 A 
ATOM     29  C   UNL     1       9.702   5.826   3.795  0.00  0.00    +0.030 A 
ATOM     30  C   UNL     1       9.021   4.732   4.337  0.00  0.00    +0.100 A 
ATOM     31  N   UNL     1       7.699   4.538   4.103  0.00  0.00    -0.131 NA
ATOM     32  N   UNL     1       7.063   3.535   4.589  0.00  0.00    -0.061 NA
ENDBRANCH  21  22
ENDBRANCH  20  21
ENDBRANCH   4  20
TORSDOF 6
