REMARK  Name = ZINC58475275
REMARK  5 active torsions:
REMARK  status: ('A' for Active; 'I' for Inactive)
REMARK    1  A    between atoms: C_1  and  C_2
REMARK    2  A    between atoms: C_10  and  C_11
REMARK    3  A    between atoms: C_11  and  C_12
REMARK    4  A    between atoms: C_11  and  N_13
REMARK    5  A    between atoms: C_14  and  C_16
REMARK                            x       y       z     vdW  Elec       q    Type
REMARK                         _______ _______ _______ _____ _____    ______ ____
ROOT
ATOM      1  N   UNL     1      -0.938  -1.139   3.269  0.00  0.00    -0.302 N 
ATOM      2  C   UNL     1      -1.473  -0.636   4.399  0.00  0.00    +0.250 C 
ATOM      3  O   UNL     1      -1.094   0.437   4.827  0.00  0.00    -0.270 OA
ATOM      4  H   UNL     1      -1.186  -2.027   2.968  0.00  0.00    +0.150 HD
ENDROOT
BRANCH   2   5
ATOM      5  C   UNL     1      -2.517  -1.386   5.116  0.00  0.00    +0.102 A 
ATOM      6  C   UNL     1      -3.164  -0.836   6.214  0.00  0.00    +0.031 A 
ATOM      7  C   UNL     1      -4.160  -1.593   6.868  0.00  0.00    +0.037 A 
ATOM      8  C   UNL     1      -4.493  -2.860   6.420  0.00  0.00    +0.030 A 
ATOM      9  N   UNL     1      -3.861  -3.398   5.357  0.00  0.00    -0.325 N 
ATOM     10  H   UNL     1      -4.106  -4.290   5.066  0.00  0.00    +0.169 HD
ATOM     11  C   UNL     1      -2.906  -2.732   4.686  0.00  0.00    +0.261 A 
ATOM     12  O   UNL     1      -2.363  -3.247   3.726  0.00  0.00    -0.267 OA
ATOM     13  C   UNL     1      -5.568  -3.674   7.094  0.00  0.00    +0.054 C 
ATOM     14  C   UNL     1      -5.781  -3.227   8.537  0.00  0.00    +0.014 C 
ATOM     15  C   UNL     1      -6.073  -1.721   8.562  0.00  0.00    +0.080 C 
ATOM     16  C   UNL     1      -4.839  -1.015   8.041  0.00  0.00    +0.165 C 
ATOM     17  O   UNL     1      -4.423  -0.007   8.571  0.00  0.00    -0.292 OA
ENDBRANCH   2   5
BRANCH   1  18
ATOM     18  C   UNL     1       0.019  -0.344   2.495  0.00  0.00    +0.137 C 
ATOM     19  C   UNL     1       1.424  -0.534   3.071  0.00  0.00    +0.036 C 
BRANCH  18  29
ATOM     20  C   UNL     1      -0.038   1.530   0.017  0.00  0.00    +0.048 C 
ATOM     21  C   UNL     1      -0.025   0.024  -0.003  0.00  0.00    +0.000 A 
ATOM     22  C   UNL     1      -0.029  -0.842  -1.188  0.00  0.00    +0.023 A 
ATOM     23  C   UNL     1      -0.046  -0.613  -2.563  0.00  0.00    +0.012 A 
ATOM     24  C   UNL     1      -0.046  -1.672  -3.427  0.00  0.00    +0.001 A 
ATOM     25  C   UNL     1      -0.029  -2.973  -2.944  0.00  0.00    +0.004 A 
ATOM     26  C   UNL     1      -0.012  -3.219  -1.588  0.00  0.00    +0.047 A 
ATOM     27  C   UNL     1      -0.012  -2.157  -0.693  0.00  0.00    +0.136 A 
ATOM     28  O   UNL     1       0.002  -2.077   0.653  0.00  0.00    -0.458 OA
ATOM     29  C   UNL     1       0.000  -0.795   1.058  0.00  0.00    +0.129 A 
ENDBRANCH  18  29
ENDBRANCH   1  18
TORSDOF 3
