REMARK  Name = ZINC43297351
REMARK  12 active torsions:
REMARK  status: ('A' for Active; 'I' for Inactive)
REMARK    1  A    between atoms: C_1  and  C_2
REMARK    2  A    between atoms: C_2  and  O_3
REMARK    3  A    between atoms: O_3  and  C_4
REMARK    4  A    between atoms: C_12  and  S_14
REMARK    5  A    between atoms: S_14  and  C_15
REMARK    6  A    between atoms: C_15  and  C_17
REMARK    7  A    between atoms: C_15  and  C_21
REMARK    8  A    between atoms: C_17  and  C_19
REMARK    9  A    between atoms: C_17  and  N_20
REMARK   10  A    between atoms: C_21  and  C_22
REMARK   11  A    between atoms: C_21  and  C_23
REMARK   12  A    between atoms: C_21  and  C_24
REMARK                            x       y       z     vdW  Elec       q    Type
REMARK                         _______ _______ _______ _____ _____    ______ ____
ROOT
ATOM      1  C   UNL     1       3.238  -0.842  -2.407  0.00  0.00    +0.123 A 
ATOM      2  C   UNL     1       2.385  -1.327  -1.421  0.00  0.00    +0.048 A 
ATOM      3  C   UNL     1       2.128  -2.676  -1.323  0.00  0.00    +0.033 A 
ATOM      4  C   UNL     1       2.727  -3.565  -2.218  0.00  0.00    +0.090 A 
ATOM      5  C   UNL     1       3.588  -3.072  -3.212  0.00  0.00    +0.070 A 
ATOM      6  C   UNL     1       3.834  -1.710  -3.304  0.00  0.00    +0.073 A 
ATOM      7  N   UNL     1       4.018  -4.175  -3.932  0.00  0.00    -0.333 N 
ATOM      8  H   UNL     1       4.625  -4.167  -4.689  0.00  0.00    +0.168 HD
ATOM      9  C   UNL     1       3.428  -5.276  -3.377  0.00  0.00    +0.168 A 
ATOM     10  N   UNL     1       2.671  -4.915  -2.371  0.00  0.00    -0.222 NA
ENDROOT
BRANCH   1  11
ATOM     11  O   UNL     1       3.483   0.493  -2.493  0.00  0.00    -0.492 OA
BRANCH  11  13
ATOM     12  C   UNL     1       3.229   2.791  -1.789  0.00  0.00    +0.048 C 
ATOM     13  C   UNL     1       2.836   1.335  -1.536  0.00  0.00    +0.225 C 
ENDBRANCH  11  13
ENDBRANCH   1  11
BRANCH   9  14
ATOM     14  S   UNL     1       3.652  -6.933  -3.932  0.00  0.00    -0.086 S 
BRANCH  14  15
ATOM     15  C   UNL     1       2.630  -7.917  -2.802  0.00  0.00    +0.045 C 
BRANCH  15  16
ATOM     16  C   UNL     1       1.172  -7.875  -3.266  0.00  0.00    -0.027 C 
ATOM     17  C   UNL     1       1.121  -7.955  -4.793  0.00  0.00    +0.011 C 
ATOM     18  C   UNL     1       0.412  -9.059  -2.667  0.00  0.00    +0.011 C 
ATOM     19  C   UNL     1       0.527  -6.567  -2.802  0.00  0.00    +0.011 C 
ENDBRANCH  15  16
BRANCH  15  20
ATOM     20  C   UNL     1       3.122  -9.365  -2.799  0.00  0.00    -0.064 C 
ATOM     21  C   UNL     1       2.433 -10.136  -1.670  0.00  0.00    -0.013 C 
BRANCH  20  22
ATOM     22  N   UNL     1       2.802  -9.994  -4.087  0.00  0.00    +0.381 N 
ATOM     23  H   UNL     1       1.804 -10.120  -4.162  0.00  0.00    -0.090 HD
ATOM     24  H   UNL     1       3.124  -9.403  -4.839  0.00  0.00    -0.090 HD
ATOM     25  H   UNL     1       3.260 -10.892  -4.146  0.00  0.00    -0.090 HD
ENDBRANCH  20  22
ENDBRANCH  15  20
ENDBRANCH  14  15
ENDBRANCH   9  14
TORSDOF 7
