REMARK  Name = ZINC58236012
REMARK  9 active torsions:
REMARK  status: ('A' for Active; 'I' for Inactive)
REMARK    1  A    between atoms: C_1  and  C_2
REMARK    2  A    between atoms: C_2  and  C_3
REMARK    3  A    between atoms: C_2  and  N_13
REMARK    4  A    between atoms: C_6  and  N_9
REMARK    5  A    between atoms: C_14  and  C_16
REMARK    6  A    between atoms: C_16  and  O_17
REMARK    7  A    between atoms: O_17  and  C_18
REMARK    8  A    between atoms: C_25  and  C_27
REMARK    9  A    between atoms: C_25  and  C_28
REMARK                            x       y       z     vdW  Elec       q    Type
REMARK                         _______ _______ _______ _____ _____    ______ ____
ROOT
ATOM      1  N   UNL     1      -1.422  -0.313   0.122  0.00  0.00    -0.306 N 
ATOM      2  C   UNL     1      -2.173  -0.434  -0.990  0.00  0.00    +0.251 C 
ATOM      3  O   UNL     1      -1.671  -0.267  -2.082  0.00  0.00    -0.272 OA
ATOM      4  H   UNL     1      -1.823  -0.447   0.995  0.00  0.00    +0.149 HD
ENDROOT
BRANCH   1   6
ATOM      5  C   UNL     1       0.162   1.539  -0.084  0.00  0.00    +0.033 C 
ATOM      6  C   UNL     1       0.000   0.020   0.013  0.00  0.00    +0.100 C 
BRANCH   6   7
ATOM      7  C   UNL     1       0.730  -0.485   1.231  0.00  0.00    -0.027 A 
ATOM      8  C   UNL     1       0.143  -0.382   2.479  0.00  0.00    +0.007 A 
ATOM      9  C   UNL     1       0.809  -0.845   3.597  0.00  0.00    +0.023 A 
ATOM     10  C   UNL     1       2.069  -1.414   3.467  0.00  0.00    +0.035 A 
ATOM     11  C   UNL     1       2.655  -1.516   2.213  0.00  0.00    +0.023 A 
ATOM     12  C   UNL     1       1.982  -1.057   1.098  0.00  0.00    +0.007 A 
BRANCH  10  13
ATOM     13  N   UNL     1       2.746  -1.883   4.598  0.00  0.00    -0.270 N 
ATOM     14  C   UNL     1       2.054  -2.412   5.627  0.00  0.00    +0.301 C 
ATOM     15  O   UNL     1       0.853  -2.571   5.534  0.00  0.00    -0.253 OA
ATOM     16  N   UNL     1       2.695  -2.765   6.759  0.00  0.00    -0.313 N 
ATOM     17  H   UNL     1       3.713  -1.827   4.642  0.00  0.00    +0.156 HD
ATOM     18  H   UNL     1       3.654  -2.639   6.833  0.00  0.00    +0.146 HD
ATOM     19  H   UNL     1       2.197  -3.146   7.499  0.00  0.00    +0.146 HD
ENDBRANCH  10  13
ENDBRANCH   6   7
ENDBRANCH   1   6
BRANCH   2  20
ATOM     20  C   UNL     1      -3.636  -0.777  -0.878  0.00  0.00    +0.324 C 
BRANCH  20  21
ATOM     21  O   UNL     1      -4.210  -0.849  -2.185  0.00  0.00    -0.479 OA
BRANCH  21  22
ATOM     22  C   UNL     1      -5.534  -1.151  -2.262  0.00  0.00    +0.163 A 
ATOM     23  C   UNL     1      -6.261  -1.367  -1.105  0.00  0.00    +0.049 A 
ATOM     24  C   UNL     1      -7.607  -1.675  -1.175  0.00  0.00    +0.004 A 
ATOM     25  C   UNL     1      -8.227  -1.771  -2.408  0.00  0.00    +0.007 A 
ATOM     26  C   UNL     1      -7.506  -1.559  -3.563  0.00  0.00    +0.002 A 
ATOM     27  C   UNL     1      -6.158  -1.236  -3.509  0.00  0.00    +0.166 A 
ATOM     28  O   UNL     1      -5.647  -1.041  -4.757  0.00  0.00    -0.482 OA
ATOM     29  C   UNL     1      -6.518  -1.649  -5.725  0.00  0.00    +0.109 C 
ATOM     30  C   UNL     1      -7.895  -1.604  -5.028  0.00  0.00    +0.086 C 
ATOM     31  C   UNL     1      -6.105  -3.098  -5.991  0.00  0.00    +0.056 C 
ATOM     32  C   UNL     1      -6.533  -0.841  -7.024  0.00  0.00    +0.056 C 
ENDBRANCH  21  22
ENDBRANCH  20  21
ENDBRANCH   2  20
TORSDOF 6
