REMARK  Name = ZINC48229812
REMARK  4 active torsions:
REMARK  status: ('A' for Active; 'I' for Inactive)
REMARK    1  A    between atoms: C_1  and  C_2
REMARK    2  A    between atoms: C_2  and  C_4
REMARK    3  A    between atoms: C_2  and  N_15
REMARK    4  A    between atoms: C_18  and  C_21
REMARK                            x       y       z     vdW  Elec       q    Type
REMARK                         _______ _______ _______ _____ _____    ______ ____
ROOT
ATOM      1  N   UNL     1      -1.346  -0.597   0.012  0.00  0.00    +0.387 N 
ATOM      2  C   UNL     1      -1.260  -2.062   0.011  0.00  0.00    -0.077 C 
ATOM      3  C   UNL     1      -2.669  -2.659   0.042  0.00  0.00    -0.006 C 
ATOM      4  C   UNL     1      -3.444  -2.189  -1.194  0.00  0.00    +0.072 C 
ATOM      5  C   UNL     1      -3.462  -0.658  -1.221  0.00  0.00    -0.006 C 
ATOM      6  C   UNL     1      -2.024  -0.136  -1.205  0.00  0.00    -0.077 C 
ATOM      7  H   UNL     1      -1.866  -0.293   0.822  0.00  0.00    -0.081 HD
ENDROOT
BRANCH   4   8
ATOM      8  C   UNL     1      -4.857  -2.709  -1.130  0.00  0.00    +0.222 C 
ATOM      9  O   UNL     1      -5.211  -3.389  -0.190  0.00  0.00    -0.275 OA
ATOM     10  N   UNL     1      -5.726  -2.420  -2.118  0.00  0.00    -0.263 N 
ATOM     11  C   UNL     1      -7.030  -2.899  -2.059  0.00  0.00    +0.187 A 
ATOM     12  N   UNL     1      -7.603  -3.639  -1.130  0.00  0.00    -0.126 NA
ATOM     13  N   UNL     1      -8.811  -4.002  -1.216  0.00  0.00    -0.148 NA
ATOM     14  C   UNL     1      -9.519  -3.630  -2.263  0.00  0.00    +0.183 A 
ATOM     15  S   UNL     1      -8.294  -2.681  -3.154  0.00  0.00    -0.039 S 
ATOM     16  H   UNL     1      -5.443  -1.876  -2.870  0.00  0.00    +0.157 HD
ENDBRANCH   4   8
BRANCH   1  18
ATOM     17  C   UNL     1      -0.074   1.495  -0.042  0.00  0.00    -0.004 C 
ATOM     18  C   UNL     1       0.008  -0.029   0.061  0.00  0.00    +0.016 C 
BRANCH  18  19
ATOM     19  C   UNL     1       0.666  -0.410   1.363  0.00  0.00    +0.202 C 
ATOM     20  O   UNL     1      -0.013  -0.737   2.312  0.00  0.00    -0.277 OA
ATOM     21  N   UNL     1       2.009  -0.386   1.471  0.00  0.00    -0.298 N 
ATOM     22  C   UNL     1       2.658  -0.656   2.763  0.00  0.00    +0.113 C 
ATOM     23  C   UNL     1       3.474  -1.951   2.632  0.00  0.00    +0.061 C 
ATOM     24  C   UNL     1       4.201  -1.929   1.327  0.00  0.00    -0.004 A 
ATOM     25  C   UNL     1       3.965  -1.130   0.251  0.00  0.00    -0.020 A 
ATOM     26  C   UNL     1       4.787  -1.314  -0.859  0.00  0.00    +0.013 A 
ATOM     27  C   UNL     1       5.766  -2.248  -0.828  0.00  0.00    +0.046 A 
ATOM     28  S   UNL     1       5.570  -2.932   0.811  0.00  0.00    -0.101 S 
ATOM     29  C   UNL     1       2.846  -0.097   0.299  0.00  0.00    +0.143 C 
ENDBRANCH  18  19
ENDBRANCH   1  18
TORSDOF 3
