REMARK  Name = ZINC63493275
REMARK  11 active torsions:
REMARK  status: ('A' for Active; 'I' for Inactive)
REMARK    1  A    between atoms: C_1  and  C_2
REMARK    2  A    between atoms: C_4  and  C_35
REMARK    3  A    between atoms: C_6  and  N_8
REMARK    4  A    between atoms: N_8  and  C_9
REMARK    5  A    between atoms: N_10  and  S_11
REMARK    6  A    between atoms: S_11  and  C_14
REMARK    7  A    between atoms: N_21  and  C_22
REMARK    8  A    between atoms: C_22  and  C_23
REMARK    9  A    between atoms: C_23  and  C_24
REMARK   10  A    between atoms: C_27  and  O_33
REMARK   11  A    between atoms: O_33  and  C_34
REMARK                            x       y       z     vdW  Elec       q    Type
REMARK                         _______ _______ _______ _____ _____    ______ ____
ROOT
ATOM      1  C   UNL     1      -0.407  -1.993   3.571  0.00  0.00    +0.246 C 
ATOM      2  N   UNL     1      -0.187  -2.606   4.700  0.00  0.00    -0.091 NA
ATOM      3  N   UNL     1      -0.519  -0.624   3.543  0.00  0.00    -0.353 N 
ATOM      4  H   UNL     1      -0.510  -0.119   4.372  0.00  0.00    +0.163 HD
ENDROOT
BRANCH   2   5
ATOM      5  S   UNL     1      -0.043  -1.735   6.101  0.00  0.00    +0.102 S 
ATOM      6  O   UNL     1       1.140  -0.957   5.976  0.00  0.00    -0.146 OA
ATOM      7  O   UNL     1      -1.315  -1.151   6.348  0.00  0.00    -0.146 OA
BRANCH   5   8
ATOM      8  C   UNL     1       0.246  -2.886   7.403  0.00  0.00    +0.113 A 
ATOM      9  C   UNL     1      -0.822  -3.435   8.089  0.00  0.00    +0.030 A 
ATOM     10  C   UNL     1      -0.596  -4.338   9.111  0.00  0.00    +0.022 A 
ATOM     11  C   UNL     1       0.699  -4.692   9.447  0.00  0.00    +0.041 A 
ATOM     12  C   UNL     1       1.766  -4.143   8.760  0.00  0.00    +0.022 A 
ATOM     13  C   UNL     1       1.539  -3.244   7.734  0.00  0.00    +0.030 A 
ATOM     14 CL   UNL     1       0.983  -5.826  10.730  0.00  0.00    -0.084 Cl
ENDBRANCH   5   8
ENDBRANCH   2   5
BRANCH   1  15
ATOM     15  N   UNL     1      -0.526  -2.719   2.405  0.00  0.00    -0.174 NA
BRANCH  15  21
ATOM     16  C   UNL     1      -0.818  -6.707   5.049  0.00  0.00    +0.066 C 
ATOM     17  C   UNL     1      -0.715  -6.028   3.708  0.00  0.00    +0.044 A 
ATOM     18  C   UNL     1      -0.670  -6.778   2.543  0.00  0.00    +0.046 A 
ATOM     19  C   UNL     1      -0.576  -6.114   1.330  0.00  0.00    +0.044 A 
ATOM     20  N   UNL     1      -0.532  -4.792   1.321  0.00  0.00    -0.216 NA
ATOM     21  C   UNL     1      -0.576  -4.105   2.452  0.00  0.00    +0.254 A 
ATOM     22  N   UNL     1      -0.671  -4.708   3.627  0.00  0.00    -0.216 NA
ATOM     23  C   UNL     1      -0.525  -6.888   0.038  0.00  0.00    +0.066 C 
ENDBRANCH  15  21
ENDBRANCH   1  15
BRANCH   3  24
ATOM     24  C   UNL     1      -0.652   0.074   2.262  0.00  0.00    +0.120 C 
BRANCH  24  25
ATOM     25  C   UNL     1      -0.635   1.586   2.500  0.00  0.00    +0.054 C 
BRANCH  25  26
ATOM     26  C   UNL     1      -0.891   2.302   1.200  0.00  0.00    -0.040 C 
ATOM     27  C   UNL     1      -2.081   2.748   0.737  0.00  0.00    +0.002 A 
ATOM     28  C   UNL     1      -3.442   2.701   1.283  0.00  0.00    +0.055 A 
ATOM     29  C   UNL     1      -4.463   3.243   0.576  0.00  0.00    +0.121 A 
ATOM     30  C   UNL     1      -4.268   3.855  -0.674  0.00  0.00    +0.047 A 
ATOM     31  C   UNL     1      -3.054   3.947  -1.258  0.00  0.00    +0.029 A 
ATOM     32  C   UNL     1      -1.877   3.394  -0.581  0.00  0.00    +0.043 A 
ATOM     33  N   UNL     1      -0.613   3.349  -0.918  0.00  0.00    -0.380 N 
ATOM     34  C   UNL     1       0.133   2.675   0.150  0.00  0.00    +0.144 C 
ATOM     35  H   UNL     1      -0.232   3.705  -1.736  0.00  0.00    +0.160 HD
BRANCH  29  36
ATOM     36  O   UNL     1      -5.718   3.192   1.094  0.00  0.00    -0.495 OA
ATOM     37  C   UNL     1      -6.765   3.775   0.315  0.00  0.00    +0.277 C 
ENDBRANCH  29  36
ENDBRANCH  25  26
ENDBRANCH  24  25
ENDBRANCH   3  24
TORSDOF 8
