REMARK  Name = ZINC13405114
REMARK  5 active torsions:
REMARK  status: ('A' for Active; 'I' for Inactive)
REMARK    1  A    between atoms: C_3  and  S_8
REMARK    2  A    between atoms: S_8  and  N_11
REMARK    3  A    between atoms: C_14  and  C_17
REMARK    4  A    between atoms: C_22  and  C_25
REMARK    5  A    between atoms: C_25  and  C_26
REMARK                            x       y       z     vdW  Elec       q    Type
REMARK                         _______ _______ _______ _____ _____    ______ ____
ROOT
ATOM      1  N   UNL     1       1.153   4.329   1.596  0.00  0.00    -0.177 NA
ATOM      2  C   UNL     1      -0.108   4.534   2.322  0.00  0.00    +0.110 C 
ATOM      3  C   UNL     1      -0.108   5.935   2.932  0.00  0.00    +0.030 C 
ATOM      4  C   UNL     1       1.148   6.116   3.788  0.00  0.00    +0.078 C 
ATOM      5  C   UNL     1       2.392   5.971   2.909  0.00  0.00    +0.030 C 
ATOM      6  C   UNL     1       2.421   4.565   2.300  0.00  0.00    +0.110 C 
ENDROOT
BRANCH   4   7
ATOM      7  C   UNL     1       1.134   7.486   4.416  0.00  0.00    +0.222 C 
ATOM      8  O   UNL     1       2.030   8.269   4.184  0.00  0.00    -0.275 OA
ATOM      9  N   UNL     1       0.125   7.841   5.236  0.00  0.00    -0.264 N 
ATOM     10  C   UNL     1       0.112   9.105   5.815  0.00  0.00    +0.165 A 
ATOM     11  N   UNL     1      -0.777   9.632   6.635  0.00  0.00    -0.229 NA
ATOM     12  C   UNL     1      -0.637  10.858   7.097  0.00  0.00    +0.061 A 
ATOM     13  C   UNL     1       0.448  11.574   6.712  0.00  0.00    +0.072 A 
ATOM     14  S   UNL     1       1.267  10.392   5.652  0.00  0.00    -0.060 S 
ATOM     15  H   UNL     1      -0.592   7.215   5.422  0.00  0.00    +0.157 HD
BRANCH  12  16
ATOM     16  C   UNL     1      -1.658  11.451   8.033  0.00  0.00    +0.181 C 
BRANCH  16  17
ATOM     17  C   UNL     1      -3.025  11.369   7.403  0.00  0.00    +0.362 C 
ATOM     18  O   UNL     1      -3.155  10.879   6.306  0.00  0.00    -0.246 OA
ATOM     19  O   UNL     1      -4.096  11.839   8.060  0.00  0.00    -0.246 OA
ENDBRANCH  16  17
ENDBRANCH  12  16
ENDBRANCH   4   7
BRANCH   1  20
ATOM     20  S   UNL     1       1.145   3.848   0.011  0.00  0.00    +0.061 S 
ATOM     21  O   UNL     1       2.379   4.274  -0.549  0.00  0.00    -0.153 OA
ATOM     22  O   UNL     1      -0.111   4.238  -0.526  0.00  0.00    -0.153 OA
BRANCH  20  25
ATOM     23  C   UNL     1       0.002  -0.004   0.002  0.00  0.00    +0.040 A 
ATOM     24  C   UNL     1      -0.017   1.378   0.010  0.00  0.00    +0.031 A 
ATOM     25  C   UNL     1       1.171   2.086   0.002  0.00  0.00    +0.106 A 
ATOM     26  C   UNL     1       2.378   1.413  -0.013  0.00  0.00    +0.031 A 
ATOM     27  C   UNL     1       2.399   0.031  -0.021  0.00  0.00    +0.040 A 
ATOM     28  C   UNL     1       1.211  -0.679  -0.013  0.00  0.00    +0.124 A 
ATOM     29  F   UNL     1       1.230  -2.030  -0.020  0.00  0.00    -0.205 F 
ENDBRANCH  20  25
ENDBRANCH   1  20
TORSDOF 5
