REMARK  Name = ZINC64226346
REMARK  6 active torsions:
REMARK  status: ('A' for Active; 'I' for Inactive)
REMARK    1  A    between atoms: C_1  and  C_2
REMARK    2  A    between atoms: C_9  and  C_11
REMARK    3  A    between atoms: N_18  and  C_19
REMARK    4  A    between atoms: C_19  and  C_20
REMARK    5  A    between atoms: C_19  and  C_21
REMARK    6  A    between atoms: C_21  and  C_22
REMARK                            x       y       z     vdW  Elec       q    Type
REMARK                         _______ _______ _______ _____ _____    ______ ____
ROOT
ATOM      1  C   UNL     1       0.090  -5.594   2.249  0.00  0.00    +0.143 C 
ATOM      2  C   UNL     1      -1.078  -6.470   1.751  0.00  0.00    +0.032 C 
ATOM      3  C   UNL     1      -0.449  -7.886   1.688  0.00  0.00    +0.021 C 
ATOM      4  C   UNL     1       0.999  -7.564   1.240  0.00  0.00    +0.110 C 
ATOM      5  N   UNL     1       1.336  -6.306   1.931  0.00  0.00    -0.276 N 
ATOM      6  C   UNL     1       2.581  -5.880   2.223  0.00  0.00    +0.303 C 
ATOM      7  O   UNL     1       2.742  -4.821   2.799  0.00  0.00    -0.253 OA
ATOM      8  N   UNL     1       3.648  -6.628   1.877  0.00  0.00    -0.296 N 
ATOM      9  H   UNL     1       3.519  -7.473   1.418  0.00  0.00    +0.151 HD
ENDROOT
BRANCH   1  18
ATOM     10  C   UNL     1      -0.018   1.503   0.010  0.00  0.00    +0.044 C 
ATOM     11  C   UNL     1       0.002  -0.004   0.002  0.00  0.00    -0.048 A 
ATOM     12  C   UNL     1       0.006  -0.687  -1.206  0.00  0.00    +0.005 A 
ATOM     13  C   UNL     1       0.024  -2.052  -1.235  0.00  0.00    +0.030 A 
ATOM     14  C   UNL     1       0.040  -2.774  -0.039  0.00  0.00    +0.089 A 
ATOM     15  C   UNL     1       0.037  -2.083   1.185  0.00  0.00    +0.067 A 
ATOM     16  C   UNL     1       0.023  -0.695   1.195  0.00  0.00    +0.031 A 
ATOM     17  N   UNL     1       0.055  -3.051   2.169  0.00  0.00    -0.340 N 
ATOM     18  C   UNL     1       0.068  -4.261   1.546  0.00  0.00    +0.129 A 
ATOM     19  N   UNL     1       0.059  -4.099   0.255  0.00  0.00    -0.231 NA
ATOM     20  H   UNL     1       0.058  -2.898   3.127  0.00  0.00    +0.167 HD
ENDBRANCH   1  18
BRANCH   8  21
ATOM     21  C   UNL     1       5.001  -6.165   2.194  0.00  0.00    +0.076 C 
ATOM     22  C   UNL     1       5.360  -6.578   3.623  0.00  0.00    +0.028 C 
BRANCH  21  23
ATOM     23  C   UNL     1       5.997  -6.792   1.217  0.00  0.00    +0.057 C 
BRANCH  23  24
ATOM     24  C   UNL     1       5.719  -6.288  -0.176  0.00  0.00    -0.039 A 
ATOM     25  C   UNL     1       4.837  -6.959  -1.002  0.00  0.00    +0.011 A 
ATOM     26  C   UNL     1       4.610  -6.479  -2.249  0.00  0.00    +0.045 A 
ATOM     27  S   UNL     1       5.660  -5.035  -2.287  0.00  0.00    -0.105 S 
ATOM     28  C   UNL     1       6.326  -5.166  -0.636  0.00  0.00    +0.049 A 
ENDBRANCH  23  24
ENDBRANCH  21  23
ENDBRANCH   8  21
TORSDOF 4
