REMARK  Name = ZINC16904409
REMARK  5 active torsions:
REMARK  status: ('A' for Active; 'I' for Inactive)
REMARK    1  A    between atoms: C_1  and  C_2
REMARK    2  A    between atoms: C_5  and  N_9
REMARK    3  A    between atoms: C_6  and  O_8
REMARK    4  A    between atoms: N_11  and  C_22
REMARK    5  A    between atoms: C_15  and  C_16
REMARK                            x       y       z     vdW  Elec       q    Type
REMARK                         _______ _______ _______ _____ _____    ______ ____
ROOT
ATOM      1  N   UNL     1      -1.062   2.585   0.021  0.00  0.00    -0.222 NA
ATOM      2  C   UNL     1      -0.051   1.796   0.309  0.00  0.00    +0.168 C 
ATOM      3  N   UNL     1       1.292   2.103   0.354  0.00  0.00    -0.249 N 
ATOM      4  C   UNL     1       2.184   1.177   0.660  0.00  0.00    +0.259 C 
ATOM      5  O   UNL     1       3.374   1.431   0.704  0.00  0.00    -0.269 OA
ATOM      6  C   UNL     1       1.677  -0.174   0.945  0.00  0.00    +0.079 C 
ATOM      7  C   UNL     1       2.364  -1.302   1.283  0.00  0.00    +0.035 C 
ATOM      8  S   UNL     1      -0.082   0.061   0.731  0.00  0.00    -0.049 S 
ATOM      9  C   UNL     1       1.734   3.468   0.059  0.00  0.00    +0.140 C 
ENDROOT
BRANCH   1  14
ATOM     10  C   UNL     1      -6.278   0.455  -0.391  0.00  0.00    +0.044 C 
ATOM     11  C   UNL     1      -4.887   1.025  -0.280  0.00  0.00    -0.047 A 
ATOM     12  C   UNL     1      -3.841   0.426  -0.959  0.00  0.00    +0.005 A 
ATOM     13  C   UNL     1      -2.565   0.944  -0.868  0.00  0.00    +0.032 A 
ATOM     14  C   UNL     1      -2.327   2.070  -0.078  0.00  0.00    +0.108 A 
ATOM     15  C   UNL     1      -3.389   2.673   0.608  0.00  0.00    +0.142 A 
ATOM     16  C   UNL     1      -4.663   2.145   0.502  0.00  0.00    +0.051 A 
BRANCH  15  17
ATOM     17  O   UNL     1      -3.168   3.773   1.376  0.00  0.00    -0.505 OA
ATOM     18  H   UNL     1      -3.260   4.610   0.900  0.00  0.00    +0.292 HD
ENDBRANCH  15  17
ENDBRANCH   1  14
BRANCH   7  19
ATOM     19  C   UNL     1       1.667  -2.511   1.516  0.00  0.00    +0.013 A 
ATOM     20  C   UNL     1       2.170  -3.759   1.866  0.00  0.00    +0.015 A 
ATOM     21  C   UNL     1       1.260  -4.773   2.033  0.00  0.00    +0.008 A 
ATOM     22  C   UNL     1      -0.062  -4.516   1.852  0.00  0.00    +0.046 A 
ATOM     23  S   UNL     1      -0.087  -2.830   1.446  0.00  0.00    -0.097 S 
ENDBRANCH   7  19
TORSDOF 3
