REMARK  Name = ZINC04149984
REMARK  6 active torsions:
REMARK  status: ('A' for Active; 'I' for Inactive)
REMARK    1  A    between atoms: C_1  and  O_2
REMARK    2  A    between atoms: O_2  and  C_3
REMARK    3  A    between atoms: C_7  and  C_9
REMARK    4  A    between atoms: C_20  and  S_25
REMARK    5  A    between atoms: S_25  and  N_28
REMARK    6  A    between atoms: N_28  and  C_29
REMARK                            x       y       z     vdW  Elec       q    Type
REMARK                         _______ _______ _______ _____ _____    ______ ____
ROOT
ATOM      1  C   UNL     1      -0.214  -1.226   5.163  0.00  0.00    +0.105 C 
ATOM      2  C   UNL     1       0.380  -1.993   4.000  0.00  0.00    +0.029 C 
ATOM      3  C   UNL     1       0.705  -0.977   2.868  0.00  0.00    +0.033 C 
ATOM      4  C   UNL     1       2.145  -0.590   3.118  0.00  0.00    -0.030 C 
ATOM      5  C   UNL     1       2.734  -1.460   3.900  0.00  0.00    -0.023 C 
ATOM      6  C   UNL     1       1.764  -2.572   4.286  0.00  0.00    +0.049 C 
ATOM      7  C   UNL     1       1.958  -3.050   5.685  0.00  0.00    -0.018 A 
ATOM      8  C   UNL     1       3.031  -3.882   5.971  0.00  0.00    +0.034 A 
ATOM      9  C   UNL     1       3.232  -4.354   7.252  0.00  0.00    +0.109 A 
ATOM     10  C   UNL     1       2.361  -4.001   8.267  0.00  0.00    +0.030 A 
ATOM     11  C   UNL     1       1.293  -3.170   7.996  0.00  0.00    +0.025 A 
ATOM     12  C   UNL     1       1.094  -2.687   6.707  0.00  0.00    +0.031 A 
ATOM     13  N   UNL     1       0.054  -1.813   6.457  0.00  0.00    -0.336 N 
ATOM     14  H   UNL     1      -0.542  -1.600   7.192  0.00  0.00    +0.147 HD
ENDROOT
BRANCH   1  19
ATOM     15  C   UNL     1       0.125   2.490   4.567  0.00  0.00    +0.120 A 
ATOM     16  C   UNL     1       1.371   2.744   5.122  0.00  0.00    +0.045 A 
ATOM     17  C   UNL     1       2.098   1.714   5.687  0.00  0.00    +0.004 A 
ATOM     18  C   UNL     1       1.584   0.430   5.700  0.00  0.00    +0.006 A 
ATOM     19  C   UNL     1       0.343   0.174   5.147  0.00  0.00    -0.024 A 
ATOM     20  C   UNL     1      -0.390   1.202   4.586  0.00  0.00    +0.051 A 
BRANCH  15  22
ATOM     21  C   UNL     1       0.002   4.802   4.028  0.00  0.00    +0.277 C 
ATOM     22  O   UNL     1      -0.592   3.502   4.012  0.00  0.00    -0.495 OA
ENDBRANCH  15  22
ENDBRANCH   1  19
BRANCH   9  23
ATOM     23  S   UNL     1       4.601  -5.408   7.596  0.00  0.00    +0.072 S 
ATOM     24  O   UNL     1       4.210  -6.242   8.678  0.00  0.00    -0.150 OA
ATOM     25  O   UNL     1       5.034  -5.931   6.348  0.00  0.00    -0.150 OA
BRANCH  23  26
ATOM     26  N   UNL     1       5.828  -4.449   8.158  0.00  0.00    -0.216 N 
ATOM     27  H   UNL     1       6.166  -4.572   9.059  0.00  0.00    +0.174 HD
BRANCH  26  28
ATOM     28  C   UNL     1       6.377  -3.463   7.335  0.00  0.00    +0.048 A 
ATOM     29  C   UNL     1       7.234  -3.817   6.301  0.00  0.00    +0.024 A 
ATOM     30  C   UNL     1       7.775  -2.840   5.489  0.00  0.00    +0.002 A 
ATOM     31  C   UNL     1       7.465  -1.510   5.704  0.00  0.00    +0.000 A 
ATOM     32  C   UNL     1       6.612  -1.154   6.733  0.00  0.00    +0.002 A 
ATOM     33  C   UNL     1       6.063  -2.126   7.545  0.00  0.00    +0.024 A 
ENDBRANCH  26  28
ENDBRANCH  23  26
ENDBRANCH   9  23
TORSDOF 5
