REMARK  Name = ZINC64759006
REMARK  7 active torsions:
REMARK  status: ('A' for Active; 'I' for Inactive)
REMARK    1  A    between atoms: C_1  and  C_2
REMARK    2  A    between atoms: C_4  and  C_27
REMARK    3  A    between atoms: N_6  and  C_8
REMARK    4  A    between atoms: C_8  and  C_9
REMARK    5  A    between atoms: C_8  and  C_10
REMARK    6  A    between atoms: C_8  and  C_11
REMARK    7  A    between atoms: C_11  and  N_12
REMARK                            x       y       z     vdW  Elec       q    Type
REMARK                         _______ _______ _______ _____ _____    ______ ____
ROOT
ATOM      1  N   UNL     1      -0.749  -2.471   3.618  0.00  0.00    -0.301 N 
ATOM      2  C   UNL     1      -1.628  -2.151   4.588  0.00  0.00    +0.302 C 
ATOM      3  O   UNL     1      -1.259  -1.522   5.561  0.00  0.00    -0.253 OA
ATOM      4  N   UNL     1      -2.917  -2.529   4.479  0.00  0.00    -0.284 N 
ATOM      5  C   UNL     1      -3.285  -3.379   3.347  0.00  0.00    +0.111 C 
ATOM      6  C   UNL     1      -3.308  -4.816   3.827  0.00  0.00    +0.038 C 
ATOM      7  C   UNL     1      -4.678  -5.158   4.420  0.00  0.00    +0.108 C 
ATOM      8  N   UNL     1      -5.223  -4.069   5.246  0.00  0.00    -0.308 N 
ATOM      9  C   UNL     1      -4.425  -3.314   6.196  0.00  0.00    +0.126 C 
ATOM     10  C   UNL     1      -3.825  -2.080   5.477  0.00  0.00    +0.128 C 
ATOM     11  C   UNL     1      -6.564  -3.748   5.111  0.00  0.00    +0.161 A 
ATOM     12  N   UNL     1      -7.462  -4.301   4.323  0.00  0.00    -0.233 NA
ATOM     13  C   UNL     1      -8.713  -3.876   4.311  0.00  0.00    +0.120 A 
ATOM     14  C   UNL     1      -9.024  -2.853   5.143  0.00  0.00    +0.068 A 
ATOM     15  S   UNL     1      -7.442  -2.562   5.919  0.00  0.00    -0.061 S 
ATOM     16  H   UNL     1      -1.024  -3.037   2.880  0.00  0.00    +0.150 HD
ENDROOT
BRANCH   1  17
ATOM     17  C   UNL     1       0.625  -1.964   3.679  0.00  0.00    +0.093 C 
BRANCH  17  18
ATOM     18  C   UNL     1       1.409  -2.471   2.467  0.00  0.00    -0.055 C 
ATOM     19  C   UNL     1       1.430  -4.000   2.477  0.00  0.00    -0.008 C 
ATOM     20  C   UNL     1       2.843  -1.941   2.531  0.00  0.00    -0.008 C 
BRANCH  18  26
ATOM     21  C   UNL     1      -0.025   1.498  -0.014  0.00  0.00    +0.005 C 
ATOM     22  C   UNL     1      -0.001  -0.032  -0.012  0.00  0.00    -0.031 C 
ATOM     23  C   UNL     1       0.722  -0.533  -1.265  0.00  0.00    +0.003 C 
ATOM     24  C   UNL     1       0.810  -2.062  -1.215  0.00  0.00    -0.031 C 
ATOM     25  C   UNL     1       1.520  -2.484   0.073  0.00  0.00    -0.075 C 
ATOM     26  N   UNL     1       0.766  -1.997   1.234  0.00  0.00    +0.384 N 
ATOM     27  C   UNL     1       0.740  -0.529   1.231  0.00  0.00    -0.075 C 
ATOM     28  C   UNL     1       1.599  -2.568  -2.424  0.00  0.00    +0.005 C 
ATOM     29  H   UNL     1      -0.178  -2.350   1.193  0.00  0.00    -0.081 HD
ENDBRANCH  18  26
ENDBRANCH  17  18
ENDBRANCH   1  17
TORSDOF 3
