REMARK  Name = ZINC22224573
REMARK  5 active torsions:
REMARK  status: ('A' for Active; 'I' for Inactive)
REMARK    1  A    between atoms: C_1  and  C_2
REMARK    2  A    between atoms: C_15  and  C_17
REMARK    3  A    between atoms: C_17  and  N_18
REMARK    4  A    between atoms: C_21  and  C_25
REMARK    5  A    between atoms: C_21  and  C_26
REMARK                            x       y       z     vdW  Elec       q    Type
REMARK                         _______ _______ _______ _____ _____    ______ ____
ROOT
ATOM      1  C   UNL     1      -0.777   0.049  -2.345  0.00  0.00    +0.214 C 
ENDROOT
BRANCH   1  15
ATOM      2  C   UNL     1      -0.734  -0.700   2.226  0.00  0.00    +0.029 C 
ATOM      3  C   UNL     1       0.416  -0.707   1.217  0.00  0.00    +0.087 C 
ATOM      4  C   UNL     1       1.633  -0.011   1.830  0.00  0.00    +0.118 C 
ATOM      5  C   UNL     1       2.623   0.347   0.754  0.00  0.00    +0.219 C 
ATOM      6  O   UNL     1       3.636  -0.308   0.626  0.00  0.00    -0.275 OA
ATOM      7  N   UNL     1       2.391   1.392  -0.071  0.00  0.00    -0.284 N 
ATOM      8  C   UNL     1       1.187   2.102   0.002  0.00  0.00    +0.055 A 
ATOM      9  C   UNL     1       1.179   3.486   0.049  0.00  0.00    +0.025 A 
ATOM     10  C   UNL     1      -0.025   4.166   0.080  0.00  0.00    +0.002 A 
ATOM     11  C   UNL     1      -1.219   3.468   0.066  0.00  0.00    +0.002 A 
ATOM     12  C   UNL     1      -1.219   2.086   0.031  0.00  0.00    +0.025 A 
ATOM     13  C   UNL     1      -0.017   1.397   0.010  0.00  0.00    +0.058 A 
ATOM     14  N   UNL     1       0.002  -0.004   0.002  0.00  0.00    -0.265 N 
ATOM     15  C   UNL     1      -0.354  -0.690  -1.102  0.00  0.00    +0.238 C 
ATOM     16  O   UNL     1      -0.333  -1.903  -1.095  0.00  0.00    -0.273 OA
ATOM     17  H   UNL     1       3.152   1.691  -0.808  0.00  0.00    +0.155 HD
ENDBRANCH   1  15
BRANCH   1  18
ATOM     18  N   UNL     1      -1.111  -0.915  -3.397  0.00  0.00    -0.215 N 
ATOM     19  C   UNL     1      -0.227  -1.393  -4.294  0.00  0.00    +0.251 C 
ATOM     20  O   UNL     1       0.950  -1.116  -4.381  0.00  0.00    -0.272 OA
ATOM     21  C   UNL     1      -1.010  -2.349  -5.172  0.00  0.00    +0.138 C 
ATOM     22  N   UNL     1      -2.374  -2.287  -4.620  0.00  0.00    -0.281 N 
ATOM     23  C   UNL     1      -2.333  -1.425  -3.588  0.00  0.00    +0.310 C 
ATOM     24  O   UNL     1      -3.298  -1.141  -2.905  0.00  0.00    -0.252 OA
ATOM     25  C   UNL     1      -0.450  -3.769  -5.067  0.00  0.00    +0.047 C 
ATOM     26  H   UNL     1      -3.177  -2.890  -5.069  0.00  0.00    +0.152 HD
BRANCH  21  27
ATOM     27  C   UNL     1      -0.996  -1.879  -6.604  0.00  0.00    +0.022 A 
ATOM     28  C   UNL     1      -2.175  -1.499  -7.218  0.00  0.00    +0.047 A 
ATOM     29  C   UNL     1      -2.162  -1.067  -8.533  0.00  0.00    +0.124 A 
ATOM     30  C   UNL     1      -0.968  -1.016  -9.234  0.00  0.00    +0.041 A 
ATOM     31  C   UNL     1       0.210  -1.397  -8.620  0.00  0.00    +0.041 A 
ATOM     32  C   UNL     1       0.198  -1.823  -7.303  0.00  0.00    +0.129 A 
ATOM     33  F   UNL     1       1.350  -2.190  -6.701  0.00  0.00    -0.205 F 
ATOM     34  F   UNL     1      -3.314  -0.696  -9.133  0.00  0.00    -0.205 F 
ENDBRANCH  21  27
ENDBRANCH   1  18
TORSDOF 3
