REMARK  Name = ZINC35381984
REMARK  3 active torsions:
REMARK  status: ('A' for Active; 'I' for Inactive)
REMARK    1  A    between atoms: C_5  and  C_6
REMARK    2  A    between atoms: C_6  and  C_8
REMARK    3  A    between atoms: C_6  and  N_19
REMARK                            x       y       z     vdW  Elec       q    Type
REMARK                         _______ _______ _______ _____ _____    ______ ____
ROOT
ATOM      1  C   UNL     1      -1.156  -0.969   0.009  0.00  0.00    -0.005 C 
ENDROOT
BRANCH   1   2
ATOM      2  C   UNL     1      -1.398  -1.472  -1.391  0.00  0.00    -0.039 A 
ATOM      3  C   UNL     1      -0.926  -2.716  -1.768  0.00  0.00    +0.052 A 
ATOM      4  C   UNL     1      -1.148  -3.182  -3.055  0.00  0.00    +0.162 A 
ATOM      5  C   UNL     1      -1.849  -2.397  -3.964  0.00  0.00    +0.163 A 
ATOM      6  C   UNL     1      -2.318  -1.150  -3.580  0.00  0.00    +0.065 A 
ATOM      7  C   UNL     1      -2.097  -0.693  -2.294  0.00  0.00    +0.023 A 
ATOM      8 BR   UNL     1      -2.746   1.005  -1.771  0.00  0.00    -0.050 Br
ATOM      9  O   UNL     1      -2.084  -2.840  -5.229  0.00  0.00    -0.485 OA
ATOM     10  C   UNL     1      -1.279  -3.930  -5.690  0.00  0.00    +0.270 C 
ATOM     11  C   UNL     1      -1.239  -4.997  -4.588  0.00  0.00    +0.270 C 
ATOM     12  O   UNL     1      -0.674  -4.407  -3.413  0.00  0.00    -0.485 OA
ENDBRANCH   1   2
BRANCH   1  17
ATOM     13  C   UNL     1      -0.016   1.351   0.009  0.00  0.00    +0.011 A 
ATOM     14  C   UNL     1       1.183   2.038   0.002  0.00  0.00    +0.023 A 
ATOM     15  C   UNL     1       2.343   1.335  -0.013  0.00  0.00    +0.055 A 
ATOM     16  S   UNL     1       1.753  -0.350  -0.017  0.00  0.00    -0.088 S 
ATOM     17  C   UNL     1       0.002  -0.004   0.002  0.00  0.00    -0.019 A 
ATOM     18 BR   UNL     1       4.123   1.974  -0.027  0.00  0.00    -0.043 Br
ENDBRANCH   1  17
BRANCH   1  19
ATOM     19  N   UNL     1      -0.844  -2.102   0.890  0.00  0.00    +0.386 N 
ATOM     20  H   UNL     1      -1.619  -2.748   0.894  0.00  0.00    -0.089 HD
ATOM     21  H   UNL     1      -0.017  -2.572   0.553  0.00  0.00    -0.089 HD
ATOM     22  H   UNL     1      -0.682  -1.765   1.827  0.00  0.00    -0.089 HD
ENDBRANCH   1  19
TORSDOF 3
