REMARK  Name = ZINC06449143
REMARK  4 active torsions:
REMARK  status: ('A' for Active; 'I' for Inactive)
REMARK    1  A    between atoms: C_11  and  C_14
REMARK    2  A    between atoms: C_14  and  C_15
REMARK    3  A    between atoms: N_17  and  N_18
REMARK    4  A    between atoms: C_19  and  C_21
REMARK                            x       y       z     vdW  Elec       q    Type
REMARK                         _______ _______ _______ _____ _____    ______ ____
ROOT
ATOM      1  C   UNL     1       2.928   6.015  -1.409  0.00  0.00    +0.234 C 
ATOM      2  O   UNL     1       2.128   6.030  -2.320  0.00  0.00    -0.274 OA
ATOM      3  N   UNL     1       4.240   5.842  -1.668  0.00  0.00    -0.234 N 
ATOM      4  H   UNL     1       4.880   5.829  -0.940  0.00  0.00    +0.173 HD
ENDROOT
BRANCH   3   5
ATOM      5  N   UNL     1       4.678   5.680  -2.989  0.00  0.00    -0.234 N 
ATOM      6  C   UNL     1       5.989   5.507  -3.248  0.00  0.00    +0.235 C 
ATOM      7  O   UNL     1       6.790   5.491  -2.337  0.00  0.00    -0.274 OA
ATOM      8  H   UNL     1       4.037   5.693  -3.717  0.00  0.00    +0.173 HD
BRANCH   6   9
ATOM      9  C   UNL     1       6.461   5.333  -4.668  0.00  0.00    +0.049 C 
ATOM     10  C   UNL     1       5.797   4.096  -5.278  0.00  0.00    +0.019 C 
ATOM     11  C   UNL     1       6.276   3.920  -6.720  0.00  0.00    -0.009 C 
ATOM     12  C   UNL     1       7.796   3.743  -6.736  0.00  0.00    +0.007 C 
ATOM     13  C   UNL     1       8.459   4.980  -6.126  0.00  0.00    -0.009 C 
ATOM     14  C   UNL     1       7.980   5.157  -4.684  0.00  0.00    +0.019 C 
ATOM     15  C   UNL     1       8.081   6.217  -6.944  0.00  0.00    +0.007 C 
ATOM     16  C   UNL     1       6.561   6.393  -6.928  0.00  0.00    -0.009 C 
ATOM     17  C   UNL     1       5.898   5.157  -7.538  0.00  0.00    +0.007 C 
ATOM     18  C   UNL     1       6.083   6.570  -5.486  0.00  0.00    +0.019 C 
ENDBRANCH   6   9
ENDBRANCH   3   5
BRANCH   1  19
ATOM     19  C   UNL     1       2.457   6.189   0.011  0.00  0.00    +0.136 C 
BRANCH  19  30
ATOM     20  C   UNL     1      -0.013   1.076   0.008  0.00  0.00    +0.001 A 
ATOM     21  C   UNL     1       1.189   1.778   0.000  0.00  0.00    +0.001 A 
ATOM     22  C   UNL     1       1.202   3.142   0.007  0.00  0.00    +0.009 A 
ATOM     23  C   UNL     1      -0.006   3.847   0.023  0.00  0.00    -0.007 A 
ATOM     24  C   UNL     1      -1.230   3.135   0.031  0.00  0.00    -0.017 A 
ATOM     25  C   UNL     1      -1.207   1.731   0.017  0.00  0.00    +0.008 A 
ATOM     26  C   UNL     1      -2.445   3.846   0.045  0.00  0.00    +0.012 A 
ATOM     27  C   UNL     1      -2.465   5.202   0.052  0.00  0.00    +0.047 A 
ATOM     28  C   UNL     1      -1.285   5.954   0.045  0.00  0.00    +0.136 A 
ATOM     29  C   UNL     1      -0.047   5.304   0.030  0.00  0.00    +0.031 A 
ATOM     30  C   UNL     1       0.960   6.363   0.026  0.00  0.00    +0.007 A 
ATOM     31  C   UNL     1       0.282   7.522   0.038  0.00  0.00    +0.200 A 
ATOM     32  O   UNL     1      -1.039   7.280   0.050  0.00  0.00    -0.463 OA
ENDBRANCH  19  30
ENDBRANCH   1  19
TORSDOF 4
