REMARK  Name = ZINC05572505
REMARK  5 active torsions:
REMARK  status: ('A' for Active; 'I' for Inactive)
REMARK    1  A    between atoms: C_8  and  C_12
REMARK    2  A    between atoms: C_12  and  C_14
REMARK    3  A    between atoms: C_14  and  N_15
REMARK    4  A    between atoms: N_15  and  C_16
REMARK    5  A    between atoms: C_21  and  N_22
REMARK                            x       y       z     vdW  Elec       q    Type
REMARK                         _______ _______ _______ _____ _____    ______ ____
ROOT
ATOM      1  C   UNL     1      -1.249  -0.767   0.016  0.00  0.00    +0.187 C 
ATOM      2  O   UNL     1      -2.295  -0.194   0.242  0.00  0.00    -0.290 OA
ENDROOT
BRANCH   1  10
ATOM      3  C   UNL     1       4.715   0.292  -0.973  0.00  0.00    +0.001 A 
ATOM      4  C   UNL     1       4.647   1.675  -0.865  0.00  0.00    +0.004 A 
ATOM      5  C   UNL     1       3.446   2.301  -0.609  0.00  0.00    +0.047 A 
ATOM      6  C   UNL     1       2.287   1.547  -0.455  0.00  0.00    +0.139 A 
ATOM      7  C   UNL     1       2.359   0.146  -0.564  0.00  0.00    +0.018 A 
ATOM      8  C   UNL     1       3.592  -0.470  -0.826  0.00  0.00    +0.011 A 
ATOM      9  C   UNL     1       1.190  -0.639  -0.410  0.00  0.00    +0.030 A 
ATOM     10  C   UNL     1      -0.014   0.003  -0.151  0.00  0.00    +0.104 A 
ATOM     11  C   UNL     1      -0.026   1.468  -0.048  0.00  0.00    +0.348 A 
ATOM     12  O   UNL     1      -1.069   2.053   0.173  0.00  0.00    -0.244 OA
ATOM     13  O   UNL     1       1.113   2.164  -0.203  0.00  0.00    -0.422 OA
ENDBRANCH   1  10
BRANCH   1  14
ATOM     14  C   UNL     1      -1.221  -2.270  -0.093  0.00  0.00    +0.181 C 
BRANCH  14  15
ATOM     15  N   UNL     1      -2.571  -2.799   0.112  0.00  0.00    -0.335 N 
ATOM     16  H   UNL     1      -3.309  -2.194   0.285  0.00  0.00    +0.147 HD
BRANCH  15  17
ATOM     17  C   UNL     1      -2.797  -4.177   0.057  0.00  0.00    +0.058 A 
ATOM     18  C   UNL     1      -1.726  -5.053  -0.069  0.00  0.00    +0.025 A 
ATOM     19  C   UNL     1      -1.952  -6.414  -0.117  0.00  0.00    +0.002 A 
ATOM     20  C   UNL     1      -3.244  -6.905  -0.052  0.00  0.00    +0.002 A 
ATOM     21  C   UNL     1      -4.312  -6.036   0.068  0.00  0.00    +0.034 A 
ATOM     22  C   UNL     1      -4.092  -4.673   0.122  0.00  0.00    +0.147 A 
BRANCH  22  23
ATOM     23  N   UNL     1      -5.236  -3.743   0.250  0.00  0.00    +0.058 N 
ATOM     24  O   UNL     1      -6.191  -4.044   0.944  0.00  0.00    -0.126 OA
ATOM     25  O   UNL     1      -5.223  -2.677  -0.339  0.00  0.00    -0.126 OA
ENDBRANCH  22  23
ENDBRANCH  15  17
ENDBRANCH  14  15
ENDBRANCH   1  14
TORSDOF 5
