REMARK  Name = ZINC66607965
REMARK  9 active torsions:
REMARK  status: ('A' for Active; 'I' for Inactive)
REMARK    1  A    between atoms: C_1  and  C_2
REMARK    2  A    between atoms: C_5  and  C_12
REMARK    3  A    between atoms: C_8  and  C_10
REMARK    4  A    between atoms: C_8  and  C_11
REMARK    5  A    between atoms: C_12  and  C_13
REMARK    6  A    between atoms: N_15  and  C_16
REMARK    7  A    between atoms: C_20  and  N_22
REMARK    8  A    between atoms: N_22  and  S_23
REMARK    9  A    between atoms: S_23  and  N_26
REMARK                            x       y       z     vdW  Elec       q    Type
REMARK                         _______ _______ _______ _____ _____    ______ ____
ROOT
ATOM      1  C   UNL     1      -3.540  -2.196  -1.263  0.00  0.00    +0.217 C 
ATOM      2  O   UNL     1      -2.946  -1.546  -2.097  0.00  0.00    -0.275 OA
ATOM      3  N   UNL     1      -4.821  -2.557  -1.477  0.00  0.00    -0.285 N 
ATOM      4  H   UNL     1      -5.275  -3.132  -0.842  0.00  0.00    +0.155 HD
ENDROOT
BRANCH   3   5
ATOM      5  C   UNL     1      -5.495  -2.101  -2.615  0.00  0.00    +0.035 A 
ATOM      6  C   UNL     1      -4.811  -1.946  -3.814  0.00  0.00    +0.023 A 
ATOM      7  C   UNL     1      -5.476  -1.496  -4.938  0.00  0.00    +0.004 A 
ATOM      8  C   UNL     1      -6.823  -1.199  -4.874  0.00  0.00    +0.024 A 
ATOM      9  C   UNL     1      -7.514  -1.352  -3.678  0.00  0.00    +0.051 A 
ATOM     10  C   UNL     1      -6.850  -1.809  -2.548  0.00  0.00    +0.047 A 
BRANCH   9  11
ATOM     11  N   UNL     1      -8.877  -1.051  -3.614  0.00  0.00    -0.207 N 
ATOM     12  H   UNL     1      -9.225  -0.535  -2.870  0.00  0.00    +0.175 HD
BRANCH  11  13
ATOM     13  S   UNL     1      -9.897  -1.574  -4.809  0.00  0.00    +0.107 S 
ATOM     14  O   UNL     1     -11.201  -1.138  -4.449  0.00  0.00    -0.138 OA
ATOM     15  O   UNL     1      -9.290  -1.222  -6.044  0.00  0.00    -0.138 OA
BRANCH  13  16
ATOM     16  N   UNL     1      -9.917  -3.229  -4.746  0.00  0.00    -0.191 NA
ATOM     17  H   UNL     1      -9.384  -3.695  -4.083  0.00  0.00    +0.146 HD
ATOM     18  H   UNL     1     -10.461  -3.732  -5.372  0.00  0.00    +0.146 HD
ENDBRANCH  13  16
ENDBRANCH  11  13
ENDBRANCH   9  11
ENDBRANCH   3   5
BRANCH   1  19
ATOM     19  C   UNL     1      -2.846  -2.599   0.013  0.00  0.00    +0.099 C 
BRANCH  19  23
ATOM     20  C   UNL     1      -0.025   1.526   0.032  0.00  0.00    +0.007 C 
ATOM     21  C   UNL     1      -0.001  -0.004   0.013  0.00  0.00    -0.013 C 
ATOM     22  C   UNL     1      -1.435  -0.537   0.022  0.00  0.00    +0.007 C 
ATOM     23  C   UNL     1      -1.412  -2.067   0.003  0.00  0.00    -0.002 C 
ATOM     24  C   UNL     1      -0.669  -2.580   1.238  0.00  0.00    +0.010 C 
ATOM     25  C   UNL     1       0.765  -2.047   1.229  0.00  0.00    -0.034 C 
ATOM     26  C   UNL     1       0.742  -0.518   1.248  0.00  0.00    +0.009 C 
ATOM     27  C   UNL     1       1.508  -2.561   2.464  0.00  0.00    +0.011 C 
ATOM     28  C   UNL     1       1.481  -2.531  -0.034  0.00  0.00    +0.011 C 
ENDBRANCH  19  23
ENDBRANCH   1  19
TORSDOF 6
