REMARK  Name = ZINC45750496
REMARK  7 active torsions:
REMARK  status: ('A' for Active; 'I' for Inactive)
REMARK    1  A    between atoms: C_1  and  C_2
REMARK    2  A    between atoms: C_3  and  N_14
REMARK    3  A    between atoms: C_4  and  C_13
REMARK    4  A    between atoms: N_5  and  C_7
REMARK    5  A    between atoms: C_15  and  C_17
REMARK    6  A    between atoms: C_17  and  C_19
REMARK    7  A    between atoms: C_17  and  N_20
REMARK                            x       y       z     vdW  Elec       q    Type
REMARK                         _______ _______ _______ _____ _____    ______ ____
ROOT
ATOM      1  N   UNL     1      -0.343  -0.510  -2.764  0.00  0.00    -0.284 N 
ATOM      2  C   UNL     1      -0.175   0.818  -2.926  0.00  0.00    +0.203 C 
ATOM      3  O   UNL     1       0.266   1.488  -2.016  0.00  0.00    -0.277 OA
ATOM      4  H   UNL     1      -0.646  -1.054  -3.508  0.00  0.00    +0.155 HD
ENDROOT
BRANCH   1   7
ATOM      5  C   UNL     1      -0.832   0.866  -0.013  0.00  0.00    +0.069 C 
ATOM      6  C   UNL     1      -0.288  -0.518  -0.260  0.00  0.00    +0.082 A 
ATOM      7  C   UNL     1      -0.081  -1.106  -1.517  0.00  0.00    +0.078 A 
ATOM      8  C   UNL     1       0.418  -2.352  -1.316  0.00  0.00    +0.063 A 
ATOM      9  N   UNL     1       0.521  -2.541   0.028  0.00  0.00    -0.235 N 
ATOM     10  N   UNL     1       0.076  -1.373   0.661  0.00  0.00    -0.170 NA
ATOM     11  C   UNL     1       0.790  -3.346  -2.386  0.00  0.00    +0.068 C 
BRANCH   9  12
ATOM     12  C   UNL     1       0.992  -3.697   0.665  0.00  0.00    +0.066 A 
ATOM     13  C   UNL     1       2.133  -4.334   0.196  0.00  0.00    +0.028 A 
ATOM     14  C   UNL     1       2.596  -5.473   0.826  0.00  0.00    +0.002 A 
ATOM     15  C   UNL     1       1.923  -5.979   1.923  0.00  0.00    +0.000 A 
ATOM     16  C   UNL     1       0.786  -5.346   2.393  0.00  0.00    +0.002 A 
ATOM     17  C   UNL     1       0.323  -4.204   1.770  0.00  0.00    +0.028 A 
ENDBRANCH   9  12
ENDBRANCH   1   7
BRANCH   2  18
ATOM     18  C   UNL     1      -0.534   1.469  -4.236  0.00  0.00    +0.016 C 
ATOM     19  C   UNL     1      -2.042   1.722  -4.284  0.00  0.00    -0.004 C 
BRANCH  18  20
ATOM     20  N   UNL     1       0.181   2.747  -4.360  0.00  0.00    +0.387 N 
ATOM     21  C   UNL     1       1.625   2.493  -4.422  0.00  0.00    -0.073 C 
ATOM     22  C   UNL     1       2.379   3.825  -4.465  0.00  0.00    +0.046 C 
ATOM     23  C   UNL     1       1.938   4.614  -5.700  0.00  0.00    +0.167 C 
ATOM     24  C   UNL     1       0.419   4.804  -5.670  0.00  0.00    +0.046 C 
ATOM     25  C   UNL     1      -0.258   3.435  -5.580  0.00  0.00    -0.073 C 
ATOM     26  O   UNL     1       2.582   5.897  -5.705  0.00  0.00    -0.346 OA
ATOM     27  C   UNL     1       3.746   5.724  -6.548  0.00  0.00    +0.191 C 
ATOM     28  C   UNL     1       3.210   4.751  -7.628  0.00  0.00    +0.191 C 
ATOM     29  O   UNL     1       2.311   3.902  -6.886  0.00  0.00    -0.346 OA
ATOM     30  H   UNL     1      -0.023   3.324  -3.558  0.00  0.00    -0.081 HD
ENDBRANCH  18  20
ENDBRANCH   2  18
TORSDOF 4
