REMARK  Name = ZINC39631126
REMARK  11 active torsions:
REMARK  status: ('A' for Active; 'I' for Inactive)
REMARK    1  A    between atoms: C_1  and  C_2
REMARK    2  A    between atoms: C_2  and  C_4
REMARK    3  A    between atoms: C_2  and  N_11
REMARK    4  A    between atoms: C_4  and  C_5
REMARK    5  A    between atoms: C_5  and  C_6
REMARK    6  A    between atoms: C_6  and  C_7
REMARK    7  A    between atoms: C_7  and  C_8
REMARK    8  A    between atoms: C_7  and  C_9
REMARK    9  A    between atoms: C_7  and  O_10
REMARK   10  A    between atoms: C_12  and  C_14
REMARK   11  A    between atoms: C_25  and  C_27
REMARK                            x       y       z     vdW  Elec       q    Type
REMARK                         _______ _______ _______ _____ _____    ______ ____
ROOT
ATOM      1  C   UNL     1       2.729  -1.074  -2.457  0.00  0.00    +0.100 C 
ATOM      2  C   UNL     1       2.409  -2.565  -2.708  0.00  0.00    +0.121 C 
ATOM      3  N   UNL     1       3.675  -3.138  -3.223  0.00  0.00    -0.296 N 
ATOM      4  C   UNL     1       4.732  -2.483  -2.416  0.00  0.00    +0.115 C 
ATOM      5  C   UNL     1       4.255  -1.024  -2.265  0.00  0.00    -0.004 C 
ATOM      6  C   UNL     1       4.595  -0.500  -0.874  0.00  0.00    -0.010 C 
ATOM      7  C   UNL     1       6.117  -0.404  -0.728  0.00  0.00    -0.082 C 
ATOM      8  N   UNL     1       6.653   0.495  -1.757  0.00  0.00    +0.379 N 
ATOM      9  C   UNL     1       6.402  -0.065  -3.091  0.00  0.00    -0.082 C 
ATOM     10  C   UNL     1       4.893  -0.146  -3.337  0.00  0.00    -0.010 C 
ATOM     11  C   UNL     1       3.830  -4.049  -4.204  0.00  0.00    +0.248 C 
ATOM     12  O   UNL     1       2.867  -4.424  -4.844  0.00  0.00    -0.270 OA
ATOM     13  H   UNL     1       6.205   1.396  -1.682  0.00  0.00    -0.086 HD
ATOM     14  H   UNL     1       7.647   0.604  -1.621  0.00  0.00    -0.086 HD
ENDROOT
BRANCH  11  15
ATOM     15  C   UNL     1       5.171  -4.593  -4.502  0.00  0.00    +0.055 A 
ATOM     16  C   UNL     1       6.088  -4.801  -3.469  0.00  0.00    +0.016 A 
ATOM     17  C   UNL     1       7.338  -5.309  -3.753  0.00  0.00    +0.021 A 
ATOM     18  C   UNL     1       7.686  -5.612  -5.060  0.00  0.00    +0.042 A 
ATOM     19  C   UNL     1       6.783  -5.408  -6.088  0.00  0.00    +0.040 A 
ATOM     20  C   UNL     1       5.525  -4.906  -5.816  0.00  0.00    +0.054 A 
ATOM     21 CL   UNL     1       4.390  -4.658  -7.106  0.00  0.00    -0.083 Cl
ATOM     22 CL   UNL     1       9.263  -6.250  -5.408  0.00  0.00    -0.083 Cl
ENDBRANCH  11  15
BRANCH   1  24
ATOM     23  N   UNL     1       1.819   0.730  -1.030  0.00  0.00    -0.312 N 
ATOM     24  C   UNL     1       2.028  -0.589  -1.214  0.00  0.00    +0.218 C 
ATOM     25  O   UNL     1       1.653  -1.385  -0.380  0.00  0.00    -0.275 OA
ATOM     26  H   UNL     1       2.119   1.366  -1.698  0.00  0.00    +0.149 HD
BRANCH  23  28
ATOM     27  C   UNL     1       2.154   1.355   1.310  0.00  0.00    +0.028 C 
ATOM     28  C   UNL     1       1.137   1.202   0.177  0.00  0.00    +0.070 C 
BRANCH  28  29
ATOM     29  C   UNL     1       0.479   2.554  -0.104  0.00  0.00    +0.022 C 
BRANCH  29  30
ATOM     30  C   UNL     1      -0.625   2.377  -1.148  0.00  0.00    +0.005 C 
BRANCH  30  31
ATOM     31  C   UNL     1      -1.282   3.730  -1.429  0.00  0.00    +0.034 C 
BRANCH  31  32
ATOM     32  C   UNL     1      -2.386   3.553  -2.474  0.00  0.00    +0.061 C 
ATOM     33  C   UNL     1      -2.959   4.921  -2.847  0.00  0.00    +0.041 C 
ATOM     34  C   UNL     1      -1.805   2.886  -3.722  0.00  0.00    +0.041 C 
BRANCH  32  35
ATOM     35  O   UNL     1      -3.424   2.732  -1.935  0.00  0.00    -0.389 OA
ATOM     36  H   UNL     1      -3.839   3.094  -1.141  0.00  0.00    +0.210 HD
ENDBRANCH  32  35
ENDBRANCH  31  32
ENDBRANCH  30  31
ENDBRANCH  29  30
ENDBRANCH  28  29
ENDBRANCH  23  28
ENDBRANCH   1  24
TORSDOF 8
