REMARK  Name = ZINC45470684
REMARK  5 active torsions:
REMARK  status: ('A' for Active; 'I' for Inactive)
REMARK    1  A    between atoms: C_1  and  C_2
REMARK    2  A    between atoms: C_15  and  C_17
REMARK    3  A    between atoms: C_17  and  C_19
REMARK    4  A    between atoms: C_17  and  N_20
REMARK    5  A    between atoms: C_30  and  C_33
REMARK                            x       y       z     vdW  Elec       q    Type
REMARK                         _______ _______ _______ _____ _____    ______ ____
ROOT
ATOM      1  C   UNL     1       2.240  -8.124   1.041  0.00  0.00    -0.004 C 
ATOM      2  C   UNL     1       1.080  -9.088   0.785  0.00  0.00    -0.005 C 
ENDROOT
BRANCH   1  16
ATOM      3  C   UNL     1      -0.531   1.410   0.281  0.00  0.00    +0.008 C 
ATOM      4  C   UNL     1      -0.457  -0.117   0.342  0.00  0.00    -0.009 C 
ATOM      5  C   UNL     1       0.030  -0.663  -1.003  0.00  0.00    +0.008 C 
ATOM      6  C   UNL     1      -0.129  -2.183  -1.035  0.00  0.00    +0.037 C 
ATOM      7  C   UNL     1       0.551  -2.777   0.196  0.00  0.00    -0.023 A 
ATOM      8  C   UNL     1       0.826  -2.001   1.270  0.00  0.00    -0.004 A 
ATOM      9  S   UNL     1       1.602  -3.088   2.441  0.00  0.00    -0.073 S 
ATOM     10  C   UNL     1       1.556  -4.574   1.490  0.00  0.00    +0.116 A 
ATOM     11  C   UNL     1       0.935  -4.174   0.286  0.00  0.00    +0.075 A 
ATOM     12  C   UNL     1       0.749  -5.184  -0.718  0.00  0.00    +0.260 A 
ATOM     13  O   UNL     1       0.223  -4.943  -1.791  0.00  0.00    -0.267 OA
ATOM     14  N   UNL     1       1.195  -6.421  -0.396  0.00  0.00    -0.312 N 
ATOM     15  H   UNL     1       1.089  -7.134  -1.045  0.00  0.00    +0.170 HD
ATOM     16  C   UNL     1       1.781  -6.710   0.791  0.00  0.00    +0.097 A 
ATOM     17  N   UNL     1       1.969  -5.814   1.734  0.00  0.00    -0.228 NA
ATOM     18  C   UNL     1       0.534  -0.541   1.436  0.00  0.00    +0.046 C 
ENDBRANCH   1  16
BRANCH   1  19
ATOM     19  N   UNL     1       2.687  -8.254   2.434  0.00  0.00    +0.387 N 
ATOM     20  C   UNL     1       3.393  -9.526   2.575  0.00  0.00    -0.076 C 
ATOM     21  C   UNL     1       4.435  -9.401   3.664  0.00  0.00    +0.000 C 
ATOM     22  C   UNL     1       3.838  -9.874   5.001  0.00  0.00    +0.104 C 
ATOM     23  N   UNL     1       2.439  -9.423   5.147  0.00  0.00    -0.317 N 
ATOM     24  C   UNL     1       2.008  -8.095   4.761  0.00  0.00    +0.088 C 
ATOM     25  C   UNL     1       1.565  -8.099   3.279  0.00  0.00    -0.059 C 
ATOM     26  C   UNL     1       1.502 -10.305   5.675  0.00  0.00    +0.121 A 
ATOM     27  C   UNL     1       1.903 -11.574   6.082  0.00  0.00    +0.044 A 
ATOM     28  C   UNL     1       0.960 -12.441   6.605  0.00  0.00    +0.017 A 
ATOM     29  C   UNL     1      -0.355 -12.008   6.705  0.00  0.00    +0.073 A 
ATOM     30  C   UNL     1      -0.682 -10.735   6.282  0.00  0.00    +0.125 A 
ATOM     31  N   UNL     1       0.239  -9.927   5.792  0.00  0.00    -0.240 NA
ATOM     32  H   UNL     1       3.338  -7.508   2.629  0.00  0.00    -0.081 HD
BRANCH  29  33
ATOM     33  C   UNL     1      -1.416 -12.918   7.268  0.00  0.00    +0.419 C 
ATOM     34  F   UNL     1      -1.499 -12.736   8.653  0.00  0.00    -0.166 F 
ATOM     35  F   UNL     1      -2.650 -12.616   6.683  0.00  0.00    -0.166 F 
ATOM     36  F   UNL     1      -1.083 -14.249   6.992  0.00  0.00    -0.166 F 
ENDBRANCH  29  33
ENDBRANCH   1  19
TORSDOF 3
