REMARK  Name = ZINC10715921
REMARK  5 active torsions:
REMARK  status: ('A' for Active; 'I' for Inactive)
REMARK    1  A    between atoms: C_1  and  C_2
REMARK    2  A    between atoms: C_2  and  C_3
REMARK    3  A    between atoms: C_2  and  S_15
REMARK    4  A    between atoms: N_5  and  C_6
REMARK    5  A    between atoms: S_15  and  C_16
REMARK                            x       y       z     vdW  Elec       q    Type
REMARK                         _______ _______ _______ _____ _____    ______ ____
ROOT
ATOM      1  C   UNL     1      -1.741   0.618   0.655  0.00  0.00    +0.230 C 
ATOM      2  O   UNL     1      -2.567   1.317   0.107  0.00  0.00    -0.274 OA
ATOM      3  N   UNL     1      -2.103  -0.575   1.169  0.00  0.00    -0.282 N 
ATOM      4  H   UNL     1      -1.431  -1.167   1.542  0.00  0.00    +0.155 HD
ENDROOT
BRANCH   3   5
ATOM      5  C   UNL     1      -3.450  -0.960   1.163  0.00  0.00    +0.071 A 
ATOM      6  C   UNL     1      -3.963  -1.681   0.092  0.00  0.00    +0.065 A 
ATOM      7  C   UNL     1      -5.293  -2.060   0.090  0.00  0.00    +0.042 A 
ATOM      8  C   UNL     1      -6.112  -1.722   1.153  0.00  0.00    +0.044 A 
ATOM      9  C   UNL     1      -5.603  -1.005   2.221  0.00  0.00    +0.042 A 
ATOM     10  C   UNL     1      -4.273  -0.628   2.232  0.00  0.00    +0.065 A 
ATOM     11 CL   UNL     1      -3.634   0.267   3.575  0.00  0.00    -0.082 Cl
ATOM     12 CL   UNL     1      -7.781  -2.199   1.146  0.00  0.00    -0.083 Cl
ATOM     13 CL   UNL     1      -2.937  -2.104  -1.242  0.00  0.00    -0.082 Cl
ENDBRANCH   3   5
BRANCH   1  15
ATOM     14  C   UNL     1      -0.064   1.651   2.161  0.00  0.00    +0.029 C 
ATOM     15  C   UNL     1      -0.312   1.082   0.763  0.00  0.00    +0.137 C 
BRANCH  15  16
ATOM     16  S   UNL     1       0.002   2.367  -0.478  0.00  0.00    -0.072 S 
BRANCH  16  17
ATOM     17  C   UNL     1       1.726   2.695  -0.327  0.00  0.00    +0.211 A 
ATOM     18  N   UNL     1       2.416   3.584  -1.051  0.00  0.00    -0.188 NA
ATOM     19  H   UNL     1       4.633   2.431   0.773  0.00  0.00    +0.192 HD
ATOM     20  C   UNL     1       3.678   3.573  -0.680  0.00  0.00    +0.209 A 
ATOM     21  N   UNL     1       3.816   2.660   0.304  0.00  0.00    -0.246 N 
ATOM     22  N   UNL     1       2.542   2.110   0.518  0.00  0.00    -0.144 NA
ATOM     23  N   UNL     1       4.687   4.358  -1.207  0.00  0.00    -0.328 N 
ATOM     24  H   UNL     1       4.490   4.990  -1.917  0.00  0.00    +0.145 HD
ATOM     25  H   UNL     1       5.592   4.278  -0.867  0.00  0.00    +0.145 HD
ENDBRANCH  16  17
ENDBRANCH  15  16
ENDBRANCH   1  15
TORSDOF 4
