REMARK  Name = ZINC34016611
REMARK  12 active torsions:
REMARK  status: ('A' for Active; 'I' for Inactive)
REMARK    1  A    between atoms: C_5  and  C_7
REMARK    2  A    between atoms: C_7  and  N_8
REMARK    3  A    between atoms: N_8  and  C_9
REMARK    4  A    between atoms: C_9  and  C_10
REMARK    5  A    between atoms: C_10  and  N_11
REMARK    6  A    between atoms: N_11  and  C_12
REMARK    7  A    between atoms: N_11  and  C_28
REMARK    8  A    between atoms: C_12  and  C_13
REMARK    9  A    between atoms: C_16  and  C_19
REMARK   10  A    between atoms: C_19  and  N_20
REMARK   11  A    between atoms: N_20  and  C_21
REMARK   12  A    between atoms: C_21  and  C_22
REMARK                            x       y       z     vdW  Elec       q    Type
REMARK                         _______ _______ _______ _____ _____    ______ ____
ROOT
ATOM      1  N   UNL     1       1.848  -6.060  -2.849  0.00  0.00    -0.292 NA
ENDROOT
BRANCH   1   2
ATOM      2  C   UNL     1       0.543  -6.576  -2.418  0.00  0.00    +0.106 C 
ATOM      3  C   UNL     1       0.535  -6.720  -0.898  0.00  0.00    +0.025 C 
ATOM      4  C   UNL     1      -0.893  -7.053  -0.449  0.00  0.00    +0.007 C 
ATOM      5  C   UNL     1      -1.764  -5.815  -0.659  0.00  0.00    +0.037 C 
ATOM      6  C   UNL     1      -1.599  -5.284  -2.057  0.00  0.00    -0.025 A 
ATOM      7  C   UNL     1      -0.540  -5.628  -2.865  0.00  0.00    +0.062 A 
ATOM      8  N   UNL     1      -0.446  -5.121  -4.088  0.00  0.00    -0.258 NA
ATOM      9  C   UNL     1      -1.339  -4.289  -4.577  0.00  0.00    +0.111 A 
ATOM     10  C   UNL     1      -2.430  -3.904  -3.821  0.00  0.00    +0.020 A 
ATOM     11  C   UNL     1      -2.566  -4.408  -2.541  0.00  0.00    +0.007 A 
ENDBRANCH   1   2
BRANCH   1  12
ATOM     12  C   UNL     1       1.888  -4.593  -2.767  0.00  0.00    +0.066 C 
BRANCH  12  13
ATOM     13  C   UNL     1       1.591  -4.155  -1.331  0.00  0.00    -0.066 C 
BRANCH  13  14
ATOM     14  N   UNL     1       1.787  -2.704  -1.212  0.00  0.00    +0.384 N 
ATOM     15  H   UNL     1       1.109  -2.225  -1.784  0.00  0.00    -0.085 HD
ATOM     16  H   UNL     1       2.717  -2.465  -1.520  0.00  0.00    -0.085 HD
BRANCH  14  17
ATOM     17  C   UNL     1       1.617  -2.301   0.191  0.00  0.00    -0.026 C 
BRANCH  17  22
ATOM     18  C   UNL     1       1.221   1.440   0.417  0.00  0.00    +0.003 A 
ATOM     19  C   UNL     1       2.547   1.802   0.596  0.00  0.00    +0.020 A 
ATOM     20  C   UNL     1       3.515   0.816   0.635  0.00  0.00    +0.111 A 
ATOM     21  N   UNL     1       3.188  -0.455   0.506  0.00  0.00    -0.262 NA
ATOM     22  C   UNL     1       1.937  -0.836   0.334  0.00  0.00    +0.024 A 
ATOM     23  C   UNL     1       0.916   0.095   0.285  0.00  0.00    +0.021 A 
ENDBRANCH  17  22
ENDBRANCH  14  17
ENDBRANCH  13  14
ENDBRANCH  12  13
ENDBRANCH   1  12
BRANCH   1  24
ATOM     24  C   UNL     1       2.175  -6.519  -4.206  0.00  0.00    +0.120 C 
BRANCH  24  25
ATOM     25  C   UNL     1       2.328  -8.019  -4.205  0.00  0.00    -0.033 A 
ATOM     26  C   UNL     1       3.524  -8.591  -3.816  0.00  0.00    +0.005 A 
ATOM     27  C   UNL     1       3.664  -9.966  -3.815  0.00  0.00    +0.002 A 
ATOM     28  C   UNL     1       2.608 -10.769  -4.202  0.00  0.00    -0.064 A 
ATOM     29  C   UNL     1       1.411 -10.197  -4.590  0.00  0.00    +0.002 A 
ATOM     30  C   UNL     1       1.269  -8.822  -4.587  0.00  0.00    +0.005 A 
BRANCH  28  31
ATOM     31  C   UNL     1       2.761 -12.268  -4.202  0.00  0.00    -0.046 C 
BRANCH  31  32
ATOM     32  N   UNL     1       2.365 -12.801  -2.892  0.00  0.00    +0.385 N 
ATOM     33  H   UNL     1       2.953 -12.403  -2.175  0.00  0.00    -0.085 HD
ATOM     34  H   UNL     1       1.402 -12.561  -2.708  0.00  0.00    -0.085 HD
BRANCH  32  35
ATOM     35  C   UNL     1       2.514 -14.262  -2.892  0.00  0.00    -0.026 C 
BRANCH  35  36
ATOM     36  C   UNL     1       2.108 -14.809  -1.547  0.00  0.00    +0.024 A 
ATOM     37  C   UNL     1       0.820 -15.274  -1.359  0.00  0.00    +0.021 A 
ATOM     38  C   UNL     1       0.457 -15.774  -0.119  0.00  0.00    +0.003 A 
ATOM     39  C   UNL     1       1.407 -15.788   0.891  0.00  0.00    +0.020 A 
ATOM     40  C   UNL     1       2.675 -15.306   0.630  0.00  0.00    +0.111 A 
ATOM     41  N   UNL     1       2.987 -14.842  -0.565  0.00  0.00    -0.262 NA
ENDBRANCH  35  36
ENDBRANCH  32  35
ENDBRANCH  31  32
ENDBRANCH  28  31
ENDBRANCH  24  25
ENDBRANCH   1  24
TORSDOF 12
