REMARK  Name = ZINC01642705
REMARK  4 active torsions:
REMARK  status: ('A' for Active; 'I' for Inactive)
REMARK    1  A    between atoms: C_1  and  C_2
REMARK    2  A    between atoms: C_4  and  C_22
REMARK    3  A    between atoms: C_13  and  N_49
REMARK    4  A    between atoms: C_27  and  O_28
REMARK                            x       y       z     vdW  Elec       q    Type
REMARK                         _______ _______ _______ _____ _____    ______ ____
ROOT
ATOM      1  C   UNL     1      -0.142   0.622  -0.104  0.00  0.00    +0.010 C 
ATOM      2  C   UNL     1      -0.677   1.328   1.143  0.00  0.00    +0.021 C 
ATOM      3  C   UNL     1      -0.037   0.721   2.394  0.00  0.00    +0.061 C 
ATOM      4  C   UNL     1      -0.768   1.200   3.623  0.00  0.00    +0.006 A 
ATOM      5  C   UNL     1      -0.144   1.085   4.855  0.00  0.00    +0.057 A 
ATOM      6  C   UNL     1      -0.784   1.510   6.006  0.00  0.00    +0.167 A 
ATOM      7  C   UNL     1      -2.063   2.055   5.925  0.00  0.00    +0.170 A 
ATOM      8  C   UNL     1      -2.684   2.171   4.694  0.00  0.00    +0.095 A 
ATOM      9  C   UNL     1      -2.037   1.744   3.539  0.00  0.00    +0.126 A 
ATOM     10  O   UNL     1      -2.679   1.885   2.349  0.00  0.00    -0.506 OA
ATOM     11  C   UNL     1      -2.196   1.131   1.236  0.00  0.00    +0.127 C 
ATOM     12  O   UNL     1      -2.474   2.392   7.183  0.00  0.00    -0.452 OA
ATOM     13  C   UNL     1      -1.277   2.427   7.982  0.00  0.00    +0.466 C 
ATOM     14  O   UNL     1      -0.393   1.507   7.315  0.00  0.00    -0.453 OA
ENDROOT
BRANCH  11  19
ATOM     15  C   UNL     1      -4.296   1.350   0.024  0.00  0.00    -0.074 C 
ATOM     16  C   UNL     1      -4.846   2.341  -1.032  0.00  0.00    -0.020 C 
ATOM     17  C   UNL     1      -3.961   3.592  -0.827  0.00  0.00    -0.020 C 
ATOM     18  C   UNL     1      -2.684   3.073  -0.141  0.00  0.00    -0.074 C 
ATOM     19  N   UNL     1      -2.851   1.624  -0.013  0.00  0.00    +0.404 N 
ATOM     20  H   UNL     1      -2.429   1.154  -0.822  0.00  0.00    -0.076 HD
ENDBRANCH  11  19
BRANCH   3  21
ATOM     21  C   UNL     1       1.407   1.145   2.473  0.00  0.00    +0.002 A 
ATOM     22  C   UNL     1       1.732   2.486   2.543  0.00  0.00    +0.008 A 
ATOM     23  C   UNL     1       3.056   2.875   2.621  0.00  0.00    +0.001 A 
ATOM     24  C   UNL     1       4.060   1.923   2.618  0.00  0.00    +0.004 A 
ATOM     25  C   UNL     1       3.741   0.582   2.543  0.00  0.00    +0.046 A 
ATOM     26  C   UNL     1       2.412   0.188   2.471  0.00  0.00    +0.121 A 
BRANCH  26  27
ATOM     27  O   UNL     1       2.096  -1.131   2.396  0.00  0.00    -0.506 OA
ATOM     28  H   UNL     1       2.041  -1.472   1.493  0.00  0.00    +0.292 HD
ENDBRANCH  26  27
ENDBRANCH   3  21
TORSDOF 3
