REMARK  Name = ZINC39690317
REMARK  5 active torsions:
REMARK  status: ('A' for Active; 'I' for Inactive)
REMARK    1  A    between atoms: N_4  and  C_6
REMARK    2  A    between atoms: C_9  and  C_12
REMARK    3  A    between atoms: C_12  and  N_13
REMARK    4  A    between atoms: C_14  and  C_16
REMARK    5  A    between atoms: C_27  and  C_29
REMARK                            x       y       z     vdW  Elec       q    Type
REMARK                         _______ _______ _______ _____ _____    ______ ____
ROOT
ATOM      1  C   UNL     1       3.179  -8.032   3.676  0.00  0.00    +0.100 C 
ATOM      2  C   UNL     1       4.579  -7.416   3.896  0.00  0.00    +0.121 C 
ATOM      3  N   UNL     1       5.301  -8.412   4.721  0.00  0.00    -0.300 N 
ATOM      4  C   UNL     1       4.880  -9.722   4.169  0.00  0.00    +0.115 C 
ATOM      5  C   UNL     1       3.381  -9.546   3.856  0.00  0.00    -0.004 C 
ATOM      6  C   UNL     1       2.535 -10.057   5.018  0.00  0.00    -0.010 C 
ATOM      7  C   UNL     1       2.709 -11.574   5.141  0.00  0.00    -0.082 C 
ATOM      8  N   UNL     1       2.298 -12.219   3.888  0.00  0.00    +0.379 N 
ATOM      9  C   UNL     1       3.176 -11.791   2.792  0.00  0.00    -0.082 C 
ATOM     10  C   UNL     1       3.022 -10.284   2.570  0.00  0.00    -0.010 C 
ATOM     11  C   UNL     1       6.149  -8.180   5.742  0.00  0.00    +0.219 C 
ATOM     12  O   UNL     1       6.334  -7.046   6.131  0.00  0.00    -0.275 OA
ATOM     13  H   UNL     1       2.356 -13.221   3.992  0.00  0.00    -0.086 HD
ATOM     14  H   UNL     1       1.346 -11.960   3.675  0.00  0.00    -0.086 HD
ENDROOT
BRANCH  11  15
ATOM     15  C   UNL     1       6.869  -9.329   6.401  0.00  0.00    +0.079 C 
ATOM     16  C   UNL     1       7.245  -8.946   7.838  0.00  0.00    +0.017 C 
ATOM     17  C   UNL     1       7.811 -10.184   8.536  0.00  0.00    +0.027 C 
ATOM     18  C   UNL     1       8.861 -10.827   7.679  0.00  0.00    -0.031 C 
ATOM     19  C   UNL     1       9.007 -10.594   6.414  0.00  0.00    -0.030 C 
ATOM     20  C   UNL     1       8.150  -9.644   5.627  0.00  0.00    +0.039 C 
ENDBRANCH  11  15
BRANCH   1  22
ATOM     21  N   UNL     1       1.362  -7.654   2.040  0.00  0.00    -0.311 N 
ATOM     22  C   UNL     1       2.686  -7.730   2.284  0.00  0.00    +0.218 C 
ATOM     23  O   UNL     1       3.479  -7.557   1.384  0.00  0.00    -0.275 OA
ATOM     24  H   UNL     1       0.728  -7.793   2.760  0.00  0.00    +0.149 HD
BRANCH  21  25
ATOM     25  C   UNL     1       0.883  -7.361   0.687  0.00  0.00    +0.139 C 
BRANCH  25  29
ATOM     26  C   UNL     1      -3.390  -7.277   0.678  0.00  0.00    +0.046 A 
ATOM     27  C   UNL     1      -2.672  -6.115   0.926  0.00  0.00    +0.026 A 
ATOM     28  C   UNL     1      -1.292  -6.145   0.928  0.00  0.00    +0.007 A 
ATOM     29  C   UNL     1      -0.624  -7.331   0.684  0.00  0.00    -0.030 A 
ATOM     30  C   UNL     1      -1.336  -8.490   0.436  0.00  0.00    +0.007 A 
ATOM     31  C   UNL     1      -2.717  -8.467   0.438  0.00  0.00    +0.026 A 
BRANCH  26  35
ATOM     32  C   UNL     1      -6.888  -7.899   0.529  0.00  0.00    +0.019 A 
ATOM     33  C   UNL     1      -6.861  -6.519   0.812  0.00  0.00    +0.019 A 
ATOM     34  C   UNL     1      -5.567  -6.147   0.896  0.00  0.00    +0.091 A 
ATOM     35  N   UNL     1      -4.792  -7.250   0.675  0.00  0.00    -0.323 N 
ATOM     36  C   UNL     1      -5.609  -8.320   0.450  0.00  0.00    +0.091 A 
ENDBRANCH  26  35
ENDBRANCH  25  29
ENDBRANCH  21  25
ENDBRANCH   1  22
TORSDOF 5
