REMARK  Name = ZINC00846323
REMARK  10 active torsions:
REMARK  status: ('A' for Active; 'I' for Inactive)
REMARK    1  A    between atoms: C_1  and  O_2
REMARK    2  A    between atoms: O_2  and  C_3
REMARK    3  A    between atoms: C_5  and  C_13
REMARK    4  A    between atoms: C_7  and  O_11
REMARK    5  A    between atoms: C_8  and  O_9
REMARK    6  A    between atoms: O_9  and  C_10
REMARK    7  A    between atoms: O_11  and  C_12
REMARK    8  A    between atoms: C_20  and  N_31
REMARK    9  A    between atoms: C_21  and  C_29
REMARK   10  A    between atoms: C_22  and  C_24
REMARK                            x       y       z     vdW  Elec       q    Type
REMARK                         _______ _______ _______ _____ _____    ______ ____
ROOT
ATOM      1  C   UNL     1      -5.372  -0.465  -0.204  0.00  0.00    +0.074 A 
ATOM      2  C   UNL     1      -6.390  -0.807   0.622  0.00  0.00    +0.054 A 
ATOM      3  C   UNL     1      -7.485   0.033   0.338  0.00  0.00    +0.245 A 
ATOM      4  N   UNL     1      -7.139   0.847  -0.619  0.00  0.00    -0.135 NA
ATOM      5  N   UNL     1      -5.813   0.567  -0.983  0.00  0.00    -0.273 N 
ATOM      6  H   UNL     1      -5.301   1.024  -1.668  0.00  0.00    +0.189 HD
ATOM      7  O   UNL     1      -8.663  -0.067   1.011  0.00  0.00    -0.421 OA
ATOM      8  C   UNL     1      -8.674  -0.806   2.138  0.00  0.00    +0.201 C 
ATOM      9  C   UNL     1      -7.690  -1.652   2.508  0.00  0.00    +0.099 C 
ATOM     10  C   UNL     1      -6.448  -1.876   1.683  0.00  0.00    +0.108 C 
ENDROOT
BRANCH   1  13
ATOM     11  C   UNL     1      -2.213  -2.028  -1.513  0.00  0.00    +0.166 A 
ATOM     12  C   UNL     1      -3.467  -1.446  -1.474  0.00  0.00    +0.059 A 
ATOM     13  C   UNL     1      -4.031  -1.088  -0.249  0.00  0.00    +0.007 A 
ATOM     14  C   UNL     1      -3.327  -1.317   0.934  0.00  0.00    +0.059 A 
ATOM     15  C   UNL     1      -2.072  -1.899   0.889  0.00  0.00    +0.166 A 
ATOM     16  C   UNL     1      -1.515  -2.261  -0.333  0.00  0.00    +0.204 A 
BRANCH  11  18
ATOM     17  C   UNL     1      -2.434  -2.109  -3.880  0.00  0.00    +0.277 C 
ATOM     18  O   UNL     1      -1.663  -2.377  -2.707  0.00  0.00    -0.491 OA
ENDBRANCH  11  18
BRANCH  16  19
ATOM     19  O   UNL     1      -0.284  -2.839  -0.373  0.00  0.00    -0.488 OA
ATOM     20  C   UNL     1       0.840  -1.964  -0.483  0.00  0.00    +0.277 C 
ENDBRANCH  16  19
BRANCH  15  21
ATOM     21  O   UNL     1      -1.386  -2.123   2.042  0.00  0.00    -0.491 OA
ATOM     22  C   UNL     1      -2.066  -1.841   3.267  0.00  0.00    +0.277 C 
ENDBRANCH  15  21
ENDBRANCH   1  13
BRANCH  10  23
ATOM     23  C   UNL     1      -6.505  -3.235   1.035  0.00  0.00    +0.003 A 
ATOM     24  C   UNL     1      -5.625  -4.262   1.127  0.00  0.00    +0.012 A 
ATOM     25  C   UNL     1      -5.885  -5.431   0.437  0.00  0.00    +0.008 A 
ATOM     26  C   UNL     1      -7.012  -5.516  -0.312  0.00  0.00    +0.045 A 
ATOM     27  S   UNL     1      -7.751  -3.912  -0.049  0.00  0.00    -0.101 S 
ENDBRANCH  10  23
BRANCH   8  28
ATOM     28  N   UNL     1      -9.761  -0.688   2.968  0.00  0.00    -0.328 N 
ATOM     29  H   UNL     1     -10.487  -0.089   2.735  0.00  0.00    +0.145 HD
ATOM     30  H   UNL     1      -9.803  -1.204   3.788  0.00  0.00    +0.145 HD
ENDBRANCH   8  28
BRANCH   9  31
ATOM     31  C   UNL     1      -7.833  -2.370   3.739  0.00  0.00    +0.101 C 
ATOM     32  N   UNL     1      -7.946  -2.940   4.715  0.00  0.00    -0.191 NA
ENDBRANCH   9  31
TORSDOF 7
