REMARK  Name = ZINC29481150
REMARK  6 active torsions:
REMARK  status: ('A' for Active; 'I' for Inactive)
REMARK    1  A    between atoms: C_4  and  C_7
REMARK    2  A    between atoms: C_7  and  C_9
REMARK    3  A    between atoms: C_7  and  O_35
REMARK    4  A    between atoms: N_12  and  C_15
REMARK    5  A    between atoms: C_15  and  C_16
REMARK    6  A    between atoms: C_29  and  C_31
REMARK                            x       y       z     vdW  Elec       q    Type
REMARK                         _______ _______ _______ _____ _____    ______ ____
ROOT
ATOM      1  C   UNL     1       8.242  -1.139   4.556  0.00  0.00    +0.204 C 
ATOM      2  O   UNL     1       8.635  -1.520   3.474  0.00  0.00    -0.277 OA
ATOM      3  N   UNL     1       8.967  -1.395   5.664  0.00  0.00    -0.259 N 
ATOM      4  C   UNL     1       8.529  -0.956   6.921  0.00  0.00    +0.058 A 
ATOM      5  C   UNL     1       7.456  -1.569   7.548  0.00  0.00    +0.025 A 
ATOM      6  C   UNL     1       7.058  -1.144   8.802  0.00  0.00    +0.002 A 
ATOM      7  C   UNL     1       7.727  -0.111   9.434  0.00  0.00    +0.002 A 
ATOM      8  C   UNL     1       8.781   0.505   8.815  0.00  0.00    +0.025 A 
ATOM      9  C   UNL     1       9.179   0.099   7.553  0.00  0.00    +0.055 A 
ATOM     10  N   UNL     1      10.230   0.741   6.887  0.00  0.00    -0.284 N 
ATOM     11  C   UNL     1      11.227   0.024   6.322  0.00  0.00    +0.219 C 
ATOM     12  O   UNL     1      12.090   0.591   5.685  0.00  0.00    -0.275 OA
ATOM     13  C   UNL     1      11.275  -1.473   6.479  0.00  0.00    +0.128 C 
ATOM     14  C   UNL     1      10.229  -2.131   5.577  0.00  0.00    +0.194 C 
ATOM     15  H   UNL     1      10.249   1.839   6.821  0.00  0.00    +0.155 HD
ENDROOT
BRANCH  14  16
ATOM     16  C   UNL     1      10.006  -3.576   6.027  0.00  0.00    +0.409 C 
ATOM     17  F   UNL     1       9.055  -4.181   5.199  0.00  0.00    -0.169 F 
ATOM     18  F   UNL     1      11.212  -4.281   5.945  0.00  0.00    -0.169 F 
ATOM     19  F   UNL     1       9.548  -3.588   7.349  0.00  0.00    -0.169 F 
ENDBRANCH  14  16
BRANCH   1  20
ATOM     20  C   UNL     1       6.945  -0.380   4.663  0.00  0.00    +0.019 C 
BRANCH  20  24
ATOM     21  C   UNL     1       4.113  -0.711   1.477  0.00  0.00    +0.019 C 
ATOM     22  C   UNL     1       4.569   0.676   1.938  0.00  0.00    -0.012 C 
ATOM     23  C   UNL     1       5.147   0.573   3.352  0.00  0.00    -0.078 C 
ATOM     24  N   UNL     1       6.280  -0.361   3.353  0.00  0.00    +0.385 N 
ATOM     25  C   UNL     1       5.856  -1.711   2.959  0.00  0.00    -0.078 C 
ATOM     26  C   UNL     1       5.300  -1.677   1.534  0.00  0.00    -0.012 C 
ATOM     27  H   UNL     1       7.007  -0.008   2.608  0.00  0.00    -0.081 HD
BRANCH  21  28
ATOM     28  C   UNL     1       3.591  -0.626   0.041  0.00  0.00    +0.147 C 
BRANCH  28  32
ATOM     29  C   UNL     1       0.285   2.074  -0.116  0.00  0.00    +0.000 A 
ATOM     30  C   UNL     1       1.577   2.557  -0.206  0.00  0.00    +0.000 A 
ATOM     31  C   UNL     1       2.647   1.683  -0.155  0.00  0.00    +0.006 A 
ATOM     32  C   UNL     1       2.425   0.326  -0.014  0.00  0.00    -0.019 A 
ATOM     33  C   UNL     1       1.133  -0.157   0.076  0.00  0.00    +0.006 A 
ATOM     34  C   UNL     1       0.063   0.717   0.025  0.00  0.00    +0.000 A 
ENDBRANCH  28  32
BRANCH  28  35
ATOM     35  O   UNL     1       4.633  -0.155  -0.817  0.00  0.00    -0.387 OA
ATOM     36  H   UNL     1       5.570  -0.724  -0.908  0.00  0.00    +0.210 HD
ENDBRANCH  28  35
ENDBRANCH  21  28
ENDBRANCH  20  24
ENDBRANCH   1  20
TORSDOF 6
