REMARK  Name = ZINC15236721
REMARK  12 active torsions:
REMARK  status: ('A' for Active; 'I' for Inactive)
REMARK    1  A    between atoms: C_1  and  C_2
REMARK    2  A    between atoms: C_3  and  C_4
REMARK    3  A    between atoms: C_7  and  O_12
REMARK    4  A    between atoms: C_8  and  O_10
REMARK    5  A    between atoms: O_10  and  C_11
REMARK    6  A    between atoms: O_12  and  C_13
REMARK    7  A    between atoms: C_13  and  C_14
REMARK    8  A    between atoms: C_14  and  C_16
REMARK    9  A    between atoms: C_14  and  O_35
REMARK   10  A    between atoms: C_16  and  N_17
REMARK   11  A    between atoms: C_20  and  C_24
REMARK   12  A    between atoms: C_20  and  C_25
REMARK                            x       y       z     vdW  Elec       q    Type
REMARK                         _______ _______ _______ _____ _____    ______ ____
ROOT
ATOM      1  N   UNL     1       1.809   8.691   1.786  0.00  0.00    -0.221 N 
ATOM      2  C   UNL     1       2.272   7.994   0.729  0.00  0.00    +0.251 C 
ATOM      3  O   UNL     1       3.430   7.837   0.406  0.00  0.00    -0.272 OA
ATOM      4  C   UNL     1       1.044   7.447   0.029  0.00  0.00    +0.135 C 
ATOM      5  N   UNL     1      -0.074   7.946   0.849  0.00  0.00    -0.281 N 
ATOM      6  C   UNL     1       0.473   8.660   1.850  0.00  0.00    +0.310 C 
ATOM      7  O   UNL     1      -0.175   9.216   2.715  0.00  0.00    -0.252 OA
ATOM      8  C   UNL     1       0.952   7.989  -1.399  0.00  0.00    +0.047 C 
ATOM      9  H   UNL     1      -1.019   7.790   0.697  0.00  0.00    +0.152 HD
ENDROOT
BRANCH   4  10
ATOM     10  C   UNL     1       1.064   5.940   0.022  0.00  0.00    -0.015 A 
ATOM     11  C   UNL     1       2.286   5.270   0.007  0.00  0.00    +0.007 A 
ATOM     12  C   UNL     1       2.340   3.910  -0.000  0.00  0.00    +0.009 A 
ATOM     13  C   UNL     1       1.147   3.167   0.008  0.00  0.00    -0.018 A 
ATOM     14  C   UNL     1       1.163   1.762   0.000  0.00  0.00    +0.008 A 
ATOM     15  C   UNL     1      -0.013   1.076   0.008  0.00  0.00    +0.001 A 
ATOM     16  C   UNL     1      -1.235   1.746   0.017  0.00  0.00    +0.001 A 
ATOM     17  C   UNL     1      -1.288   3.106   0.031  0.00  0.00    +0.008 A 
ATOM     18  C   UNL     1      -0.096   3.849   0.023  0.00  0.00    -0.018 A 
ATOM     19  C   UNL     1      -0.111   5.254   0.030  0.00  0.00    +0.014 A 
ENDBRANCH   4  10
BRANCH   1  20
ATOM     20  C   UNL     1       2.663   9.395   2.745  0.00  0.00    +0.152 C 
BRANCH  20  21
ATOM     21  C   UNL     1       2.894  10.829   2.266  0.00  0.00    +0.170 C 
BRANCH  21  22
ATOM     22  O   UNL     1       1.653  11.539   2.272  0.00  0.00    -0.387 OA
ATOM     23  H   UNL     1       1.236  11.593   3.142  0.00  0.00    +0.210 HD
ENDBRANCH  21  22
BRANCH  21  24
ATOM     24  C   UNL     1       3.885  11.526   3.200  0.00  0.00    +0.262 C 
BRANCH  24  25
ATOM     25  O   UNL     1       4.190  12.825   2.688  0.00  0.00    -0.486 OA
BRANCH  25  29
ATOM     26  C   UNL     1       6.843  15.125   4.869  0.00  0.00    -0.022 A 
ATOM     27  C   UNL     1       6.498  13.846   5.308  0.00  0.00    +0.012 A 
ATOM     28  C   UNL     1       5.612  13.082   4.577  0.00  0.00    +0.050 A 
ATOM     29  C   UNL     1       5.062  13.582   3.405  0.00  0.00    +0.162 A 
ATOM     30  C   UNL     1       5.407  14.855   2.959  0.00  0.00    +0.162 A 
ATOM     31  C   UNL     1       6.290  15.629   3.690  0.00  0.00    +0.057 A 
BRANCH  26  34
ATOM     32  C   UNL     1       9.285  16.301   7.566  0.00  0.00    +0.035 C 
ATOM     33  C   UNL     1       8.317  15.465   6.769  0.00  0.00    -0.030 C 
ATOM     34  C   UNL     1       7.792  15.945   5.650  0.00  0.00    +0.003 C 
ENDBRANCH  26  34
BRANCH  30  35
ATOM     35  O   UNL     1       4.871  15.340   1.807  0.00  0.00    -0.491 OA
ATOM     36  C   UNL     1       5.269  16.654   1.409  0.00  0.00    +0.277 C 
ENDBRANCH  30  35
ENDBRANCH  25  29
ENDBRANCH  24  25
ENDBRANCH  21  24
ENDBRANCH  20  21
ENDBRANCH   1  20
TORSDOF 9
