REMARK  Name = ZINC39951410
REMARK  7 active torsions:
REMARK  status: ('A' for Active; 'I' for Inactive)
REMARK    1  A    between atoms: C_1  and  C_2
REMARK    2  A    between atoms: C_2  and  C_3
REMARK    3  A    between atoms: C_2  and  C_4
REMARK    4  A    between atoms: C_9  and  C_33
REMARK    5  A    between atoms: C_10  and  O_12
REMARK    6  A    between atoms: N_23  and  C_26
REMARK    7  A    between atoms: C_26  and  C_27
REMARK                            x       y       z     vdW  Elec       q    Type
REMARK                         _______ _______ _______ _____ _____    ______ ____
ROOT
ATOM      1  C   UNL     1      -1.457  -0.406   0.228  0.00  0.00    -0.014 C 
ATOM      2  C   UNL     1      -2.216   0.206  -0.909  0.00  0.00    +0.023 C 
ATOM      3  C   UNL     1      -3.660   0.447  -0.619  0.00  0.00    +0.084 C 
ATOM      4  N   UNL     1      -4.298  -0.542   0.215  0.00  0.00    -0.300 NA
ATOM      5  C   UNL     1      -3.920  -1.920   0.041  0.00  0.00    +0.091 C 
ATOM      6  C   UNL     1      -2.747  -2.419   0.859  0.00  0.00    -0.008 C 
ATOM      7  C   UNL     1      -1.454  -1.914   0.256  0.00  0.00    +0.125 C 
ATOM      8  C   UNL     1      -2.820  -1.894   2.297  0.00  0.00    -0.065 C 
ATOM      9  N   UNL     1      -2.970  -0.435   2.223  0.00  0.00    +0.401 N 
ATOM     10  C   UNL     1      -1.835   0.205   1.567  0.00  0.00    -0.065 C 
ATOM     11  C   UNL     1      -4.256  -0.111   1.621  0.00  0.00    +0.095 C 
ATOM     12  C   UNL     1      -4.560   1.350   1.735  0.00  0.00    -0.014 A 
ATOM     13  C   UNL     1      -3.907   2.460   1.244  0.00  0.00    +0.006 A 
ATOM     14  C   UNL     1      -4.462   3.700   1.538  0.00  0.00    +0.000 A 
ATOM     15  C   UNL     1      -5.615   3.813   2.287  0.00  0.00    +0.002 A 
ATOM     16  C   UNL     1      -6.278   2.701   2.784  0.00  0.00    +0.024 A 
ATOM     17  C   UNL     1      -5.731   1.450   2.495  0.00  0.00    +0.040 A 
ATOM     18  N   UNL     1      -6.178   0.192   2.857  0.00  0.00    -0.267 N 
ATOM     19  C   UNL     1      -5.376  -0.785   2.388  0.00  0.00    +0.228 C 
ATOM     20  O   UNL     1      -5.523  -1.978   2.549  0.00  0.00    -0.275 OA
ATOM     21  C   UNL     1      -2.749  -3.949   0.872  0.00  0.00    +0.013 C 
ATOM     22  H   UNL     1      -2.999  -0.092   3.171  0.00  0.00    -0.078 HD
ENDROOT
BRANCH   1  24
ATOM     23  C   UNL     1       0.448  -0.463  -1.388  0.00  0.00    +0.008 C 
ATOM     24  C   UNL     1       0.002  -0.004   0.002  0.00  0.00    -0.010 C 
ATOM     25  C   UNL     1       0.134   1.517   0.104  0.00  0.00    +0.008 C 
ENDBRANCH   1  24
BRANCH   7  26
ATOM     26  O   UNL     1      -0.364  -2.377   1.055  0.00  0.00    -0.391 OA
ATOM     27  H   UNL     1      -0.302  -3.340   1.116  0.00  0.00    +0.210 HD
ENDBRANCH   7  26
BRANCH  18  28
ATOM     28  C   UNL     1      -7.381  -0.051   3.658  0.00  0.00    +0.148 C 
BRANCH  28  29
ATOM     29  C   UNL     1      -8.571  -0.200   2.744  0.00  0.00    -0.030 A 
ATOM     30  C   UNL     1      -9.309   0.911   2.383  0.00  0.00    +0.005 A 
ATOM     31  C   UNL     1     -10.400   0.774   1.545  0.00  0.00    +0.000 A 
ATOM     32  C   UNL     1     -10.752  -0.474   1.068  0.00  0.00    +0.000 A 
ATOM     33  C   UNL     1     -10.013  -1.586   1.428  0.00  0.00    +0.000 A 
ATOM     34  C   UNL     1      -8.920  -1.448   2.263  0.00  0.00    +0.005 A 
ENDBRANCH  28  29
ENDBRANCH  18  28
TORSDOF 4
