REMARK  Name = ZINC15100093
REMARK  7 active torsions:
REMARK  status: ('A' for Active; 'I' for Inactive)
REMARK    1  A    between atoms: C_6  and  C_7
REMARK    2  A    between atoms: C_8  and  C_9
REMARK    3  A    between atoms: N_11  and  C_12
REMARK    4  A    between atoms: C_15  and  S_18
REMARK    5  A    between atoms: S_18  and  N_21
REMARK    6  A    between atoms: N_21  and  C_22
REMARK    7  A    between atoms: C_22  and  C_23
REMARK                            x       y       z     vdW  Elec       q    Type
REMARK                         _______ _______ _______ _____ _____    ______ ____
ROOT
ATOM      1  C   UNL     1       1.213  -0.681  -0.008  0.00  0.00    +0.034 A 
ATOM      2  C   UNL     1       0.013  -0.008   0.187  0.00  0.00    +0.025 A 
ATOM      3  C   UNL     1      -0.008   1.373   0.199  0.00  0.00    +0.030 A 
ATOM      4  C   UNL     1       1.163   2.086   0.018  0.00  0.00    +0.105 A 
ATOM      5  C   UNL     1       2.359   1.419  -0.176  0.00  0.00    +0.030 A 
ATOM      6  C   UNL     1       2.387   0.038  -0.190  0.00  0.00    +0.025 A 
ENDROOT
BRANCH   1   9
ATOM      7  C   UNL     1       0.186  -2.767  -0.509  0.00  0.00    +0.241 C 
ATOM      8  O   UNL     1      -0.743  -2.173  -1.025  0.00  0.00    -0.270 OA
ATOM      9  N   UNL     1       1.238  -2.079  -0.021  0.00  0.00    -0.282 N 
ATOM     10  H   UNL     1       2.012  -2.553   0.320  0.00  0.00    +0.155 HD
BRANCH   7  12
ATOM     11  C   UNL     1      -0.890  -4.916  -0.905  0.00  0.00    +0.013 C 
ATOM     12  C   UNL     1       0.162  -4.227  -0.418  0.00  0.00    +0.068 C 
BRANCH  11  18
ATOM     13  C   UNL     1       0.154  -7.070  -0.227  0.00  0.00    +0.009 A 
ATOM     14  C   UNL     1       0.121  -8.445  -0.140  0.00  0.00    +0.016 A 
ATOM     15  C   UNL     1      -0.961  -9.149  -0.642  0.00  0.00    +0.018 A 
ATOM     16  C   UNL     1      -2.020  -8.477  -1.229  0.00  0.00    +0.016 A 
ATOM     17  C   UNL     1      -2.004  -7.102  -1.319  0.00  0.00    +0.009 A 
ATOM     18  C   UNL     1      -0.915  -6.384  -0.814  0.00  0.00    -0.025 A 
ATOM     19 BR   UNL     1      -0.993 -11.036  -0.524  0.00  0.00    -0.050 Br
ENDBRANCH  11  18
ENDBRANCH   7  12
ENDBRANCH   1   9
BRANCH   4  20
ATOM     20  S   UNL     1       1.132   3.847   0.034  0.00  0.00    +0.059 S 
ATOM     21  O   UNL     1       2.268   4.281  -0.701  0.00  0.00    -0.153 OA
ATOM     22  O   UNL     1      -0.192   4.233  -0.311  0.00  0.00    -0.153 OA
BRANCH  20  23
ATOM     23  N   UNL     1       1.371   4.327   1.601  0.00  0.00    -0.181 NA
ATOM     24  H   UNL     1       0.666   4.792   2.079  0.00  0.00    +0.148 HD
BRANCH  23  25
ATOM     25  C   UNL     1       2.646   4.048   2.266  0.00  0.00    +0.219 C 
BRANCH  25  26
ATOM     26  C   UNL     1       2.756   4.896   3.534  0.00  0.00    +0.404 C 
ATOM     27  F   UNL     1       1.702   4.583   4.398  0.00  0.00    -0.169 F 
ATOM     28  F   UNL     1       3.974   4.630   4.169  0.00  0.00    -0.169 F 
ATOM     29  F   UNL     1       2.694   6.252   3.195  0.00  0.00    -0.169 F 
ENDBRANCH  25  26
ENDBRANCH  23  25
ENDBRANCH  20  23
ENDBRANCH   4  20
TORSDOF 7
