REMARK  Name = ZINC05741291
REMARK  2 active torsions:
REMARK  status: ('A' for Active; 'I' for Inactive)
REMARK    1  A    between atoms: C_10  and  C_11
REMARK    2  A    between atoms: C_24  and  N_27
REMARK                            x       y       z     vdW  Elec       q    Type
REMARK                         _______ _______ _______ _____ _____    ______ ____
ROOT
ATOM      1  C   UNL     1       2.019   1.695   1.494  0.00  0.00    +0.105 C 
ATOM      2  C   UNL     1       1.258   1.861   0.177  0.00  0.00    +0.029 C 
ATOM      3  C   UNL     1       1.582   0.632  -0.718  0.00  0.00    +0.033 C 
ATOM      4  C   UNL     1       0.634  -0.437  -0.212  0.00  0.00    -0.030 C 
ATOM      5  C   UNL     1      -0.376   0.106   0.421  0.00  0.00    -0.023 C 
ATOM      6  C   UNL     1      -0.244   1.612   0.434  0.00  0.00    +0.049 C 
ATOM      7  C   UNL     1      -0.676   2.170   1.758  0.00  0.00    -0.017 A 
ATOM      8  C   UNL     1      -2.032   2.159   2.058  0.00  0.00    +0.006 A 
ATOM      9  C   UNL     1      -2.490   2.656   3.260  0.00  0.00    +0.003 A 
ATOM     10  C   UNL     1      -1.597   3.172   4.182  0.00  0.00    +0.034 A 
ATOM     11  C   UNL     1      -0.248   3.187   3.893  0.00  0.00    +0.147 A 
ATOM     12  C   UNL     1       0.218   2.686   2.678  0.00  0.00    +0.062 A 
ATOM     13  N   UNL     1       1.591   2.728   2.438  0.00  0.00    -0.335 N 
ATOM     14  H   UNL     1       2.111   2.668   3.300  0.00  0.00    +0.147 HD
ENDROOT
BRANCH   1  24
ATOM     15  C   UNL     1       4.171  -2.940   1.189  0.00  0.00    +0.001 A 
ATOM     16  C   UNL     1       4.455  -1.689   0.643  0.00  0.00    +0.001 A 
ATOM     17  C   UNL     1       3.672  -0.610   0.919  0.00  0.00    +0.009 A 
ATOM     18  C   UNL     1       2.560  -0.756   1.766  0.00  0.00    -0.013 A 
ATOM     19  C   UNL     1       2.272  -2.028   2.320  0.00  0.00    -0.018 A 
ATOM     20  C   UNL     1       3.103  -3.119   2.013  0.00  0.00    +0.008 A 
ATOM     21  C   UNL     1       1.160  -2.175   3.167  0.00  0.00    +0.008 A 
ATOM     22  C   UNL     1       0.377  -1.096   3.443  0.00  0.00    +0.001 A 
ATOM     23  C   UNL     1       0.665   0.156   2.903  0.00  0.00    +0.006 A 
ATOM     24  C   UNL     1       1.729   0.334   2.074  0.00  0.00    -0.019 A 
ENDBRANCH   1  24
BRANCH  11  25
ATOM     25  N   UNL     1       0.709   3.739   4.878  0.00  0.00    +0.058 N 
ATOM     26  O   UNL     1       0.530   3.555   6.069  0.00  0.00    -0.126 OA
ATOM     27  O   UNL     1       1.675   4.376   4.498  0.00  0.00    -0.126 OA
ENDBRANCH  11  25
TORSDOF 2
