REMARK  Name = ZINC08774900
REMARK  10 active torsions:
REMARK  status: ('A' for Active; 'I' for Inactive)
REMARK    1  A    between atoms: C_1  and  C_2
REMARK    2  A    between atoms: C_5  and  C_8
REMARK    3  A    between atoms: C_8  and  N_9
REMARK    4  A    between atoms: N_14  and  C_15
REMARK    5  A    between atoms: C_15  and  C_16
REMARK    6  A    between atoms: C_16  and  C_17
REMARK    7  A    between atoms: C_20  and  S_23
REMARK    8  A    between atoms: S_23  and  N_26
REMARK    9  A    between atoms: N_27  and  C_34
REMARK   10  A    between atoms: N_30  and  C_33
REMARK                            x       y       z     vdW  Elec       q    Type
REMARK                         _______ _______ _______ _____ _____    ______ ____
ROOT
ATOM      1  N   UNL     1       2.098   4.535   0.006  0.00  0.00    -0.302 N 
ATOM      2  C   UNL     1       1.123   3.547   0.010  0.00  0.00    +0.153 A 
ATOM      3  C   UNL     1      -0.102   4.205   0.026  0.00  0.00    +0.170 A 
ATOM      4  N   UNL     1       0.146   5.516   0.030  0.00  0.00    -0.196 NA
ATOM      5  C   UNL     1       1.446   5.728   0.019  0.00  0.00    +0.198 A 
ATOM      6  N   UNL     1       2.050   6.965   0.019  0.00  0.00    -0.314 N 
ATOM      7  N   UNL     1      -1.264   3.451   0.033  0.00  0.00    -0.280 N 
ATOM      8  C   UNL     1      -1.197   2.107   0.019  0.00  0.00    +0.333 A 
ATOM      9  O   UNL     1      -2.227   1.461   0.020  0.00  0.00    -0.246 OA
ATOM     10  N   UNL     1      -0.018   1.461   0.010  0.00  0.00    -0.262 N 
ATOM     11  C   UNL     1       1.147   2.141   0.003  0.00  0.00    +0.282 A 
ATOM     12  O   UNL     1       2.209   1.543  -0.011  0.00  0.00    -0.265 OA
ATOM     13  C   UNL     1       0.002  -0.004   0.002  0.00  0.00    +0.157 C 
ATOM     14  C   UNL     1      -2.569   4.118   0.049  0.00  0.00    +0.155 C 
ATOM     15  H   UNL     1       3.018   7.032   0.010  0.00  0.00    +0.149 HD
ENDROOT
BRANCH   1  16
ATOM     16  C   UNL     1       3.549   4.332  -0.009  0.00  0.00    +0.160 C 
BRANCH  16  21
ATOM     17  C   UNL     1       5.404   4.095  -5.476  0.00  0.00    +0.044 C 
ATOM     18  C   UNL     1       4.921   4.157  -4.050  0.00  0.00    -0.050 A 
ATOM     19  C   UNL     1       4.865   5.371  -3.392  0.00  0.00    +0.004 A 
ATOM     20  C   UNL     1       4.421   5.428  -2.084  0.00  0.00    +0.005 A 
ATOM     21  C   UNL     1       4.033   4.271  -1.434  0.00  0.00    -0.028 A 
ATOM     22  C   UNL     1       4.094   3.056  -2.091  0.00  0.00    +0.005 A 
ATOM     23  C   UNL     1       4.534   2.999  -3.401  0.00  0.00    +0.004 A 
ENDBRANCH  16  21
ENDBRANCH   1  16
BRANCH   6  24
ATOM     24  C   UNL     1       1.232   8.180   0.034  0.00  0.00    +0.109 C 
BRANCH  24  25
ATOM     25  C   UNL     1       2.143   9.408   0.031  0.00  0.00    +0.054 C 
BRANCH  25  26
ATOM     26  C   UNL     1       1.301  10.658   0.045  0.00  0.00    -0.046 A 
ATOM     27  C   UNL     1       0.907  11.241  -1.145  0.00  0.00    +0.005 A 
ATOM     28  C   UNL     1       0.132  12.385  -1.131  0.00  0.00    +0.029 A 
ATOM     29  C   UNL     1      -0.243  12.951   0.073  0.00  0.00    +0.105 A 
ATOM     30  C   UNL     1       0.155  12.372   1.263  0.00  0.00    +0.029 A 
ATOM     31  C   UNL     1       0.927  11.225   1.249  0.00  0.00    +0.005 A 
BRANCH  29  32
ATOM     32  S   UNL     1      -1.229  14.412   0.090  0.00  0.00    +0.056 S 
ATOM     33  O   UNL     1      -1.924  14.447  -1.149  0.00  0.00    -0.153 OA
ATOM     34  O   UNL     1      -1.901  14.434   1.342  0.00  0.00    -0.153 OA
BRANCH  32  35
ATOM     35  N   UNL     1      -0.191  15.703   0.087  0.00  0.00    -0.204 NA
ATOM     36  H   UNL     1      -0.458  16.539  -0.326  0.00  0.00    +0.144 HD
ATOM     37  H   UNL     1       0.684  15.622   0.499  0.00  0.00    +0.144 HD
ENDBRANCH  32  35
ENDBRANCH  29  32
ENDBRANCH  25  26
ENDBRANCH  24  25
ENDBRANCH   6  24
TORSDOF 7
