REMARK  Name = ZINC49659723
REMARK  8 active torsions:
REMARK  status: ('A' for Active; 'I' for Inactive)
REMARK    1  A    between atoms: C_1  and  C_2
REMARK    2  A    between atoms: C_2  and  C_26
REMARK    3  A    between atoms: C_5  and  S_12
REMARK    4  A    between atoms: S_12  and  N_15
REMARK    5  A    between atoms: N_15  and  C_16
REMARK    6  A    between atoms: C_21  and  C_22
REMARK    7  A    between atoms: C_22  and  O_24
REMARK    8  A    between atoms: O_24  and  C_25
REMARK                            x       y       z     vdW  Elec       q    Type
REMARK                         _______ _______ _______ _____ _____    ______ ____
ROOT
ATOM      1  S   UNL     1       1.314  -0.818  -5.151  0.00  0.00    +0.092 S 
ATOM      2  O   UNL     1       1.981  -1.922  -5.746  0.00  0.00    -0.148 OA
ATOM      3  O   UNL     1      -0.065  -0.551  -5.372  0.00  0.00    -0.148 OA
ENDROOT
BRANCH   1   8
ATOM      4  C   UNL     1      -0.019   1.526   0.010  0.00  0.00    +0.025 C 
ATOM      5  C   UNL     1       0.002  -0.004   0.002  0.00  0.00    +0.068 C 
ATOM      6  C   UNL     1       0.787  -0.516  -1.183  0.00  0.00    -0.010 A 
ATOM      7  C   UNL     1       0.621  -0.386  -2.544  0.00  0.00    +0.035 A 
ATOM      8  C   UNL     1       1.522  -0.981  -3.409  0.00  0.00    +0.111 A 
ATOM      9  C   UNL     1       2.587  -1.704  -2.903  0.00  0.00    +0.031 A 
ATOM     10  C   UNL     1       2.756  -1.837  -1.541  0.00  0.00    +0.025 A 
ATOM     11  C   UNL     1       1.853  -1.240  -0.663  0.00  0.00    +0.038 A 
ATOM     12  N   UNL     1       1.808  -1.229   0.732  0.00  0.00    -0.285 N 
ATOM     13  C   UNL     1       0.761  -0.531   1.202  0.00  0.00    +0.227 C 
ATOM     14  O   UNL     1       0.477  -0.355   2.368  0.00  0.00    -0.275 OA
ATOM     15  C   UNL     1      -1.424  -0.558  -0.016  0.00  0.00    +0.025 C 
ATOM     16  H   UNL     1       2.458  -1.675   1.297  0.00  0.00    +0.155 HD
ENDBRANCH   1   8
BRANCH   1  17
ATOM     17  N   UNL     1       2.139   0.540  -5.618  0.00  0.00    -0.097 NA
BRANCH  17  18
ATOM     18  C   UNL     1       2.150   0.921  -6.953  0.00  0.00    +0.088 A 
ATOM     19  C   UNL     1       1.466   0.169  -7.900  0.00  0.00    +0.027 A 
ATOM     20  C   UNL     1       1.478   0.549  -9.226  0.00  0.00    +0.002 A 
ATOM     21  C   UNL     1       2.171   1.682  -9.625  0.00  0.00    +0.001 A 
ATOM     22  C   UNL     1       2.856   2.441  -8.701  0.00  0.00    +0.017 A 
ATOM     23  C   UNL     1       2.848   2.072  -7.353  0.00  0.00    +0.083 A 
BRANCH  23  24
ATOM     24  C   UNL     1       3.573   2.882  -6.359  0.00  0.00    +0.341 C 
ATOM     25  O   UNL     1       3.568   2.555  -5.189  0.00  0.00    -0.245 OA
BRANCH  24  26
ATOM     26  O   UNL     1       4.242   3.986  -6.747  0.00  0.00    -0.464 OA
ATOM     27  C   UNL     1       4.923   4.723  -5.731  0.00  0.00    +0.280 C 
ENDBRANCH  24  26
ENDBRANCH  23  24
ENDBRANCH  17  18
ENDBRANCH   1  17
TORSDOF 5
