REMARK  Name = ZINC08640372
REMARK  8 active torsions:
REMARK  status: ('A' for Active; 'I' for Inactive)
REMARK    1  A    between atoms: C_1  and  C_2
REMARK    2  A    between atoms: C_2  and  C_4
REMARK    3  A    between atoms: C_2  and  S_17
REMARK    4  A    between atoms: C_4  and  C_6
REMARK    5  A    between atoms: C_7  and  N_16
REMARK    6  A    between atoms: N_8  and  C_15
REMARK    7  A    between atoms: N_11  and  C_14
REMARK    8  A    between atoms: S_17  and  C_18
REMARK                            x       y       z     vdW  Elec       q    Type
REMARK                         _______ _______ _______ _____ _____    ______ ____
ROOT
ATOM      1  C   UNL     1      -2.258  -5.649   1.912  0.00  0.00    +0.028 C 
ATOM      2  C   UNL     1      -2.186  -6.336   0.547  0.00  0.00    +0.122 C 
ENDROOT
BRANCH   2   3
ATOM      3  C   UNL     1      -2.853  -7.685   0.628  0.00  0.00    +0.185 C 
ATOM      4  O   UNL     1      -2.189  -8.679   0.840  0.00  0.00    -0.291 OA
BRANCH   3   5
ATOM      5  C   UNL     1      -4.250  -7.793   0.457  0.00  0.00    +0.121 A 
ATOM      6  C   UNL     1      -4.880  -9.048   0.403  0.00  0.00    +0.116 A 
ATOM      7  N   UNL     1      -6.235  -9.101   0.242  0.00  0.00    -0.284 N 
ATOM      8  C   UNL     1      -6.968  -7.983   0.125  0.00  0.00    +0.333 A 
ATOM      9  O   UNL     1      -8.170  -8.084  -0.021  0.00  0.00    -0.246 OA
ATOM     10  N   UNL     1      -6.422  -6.757   0.164  0.00  0.00    -0.263 N 
ATOM     11  C   UNL     1      -5.092  -6.596   0.325  0.00  0.00    +0.269 A 
ATOM     12  O   UNL     1      -4.600  -5.484   0.359  0.00  0.00    -0.267 OA
ATOM     13  C   UNL     1      -7.281  -5.578   0.029  0.00  0.00    +0.157 C 
ATOM     14  C   UNL     1      -6.901 -10.405   0.191  0.00  0.00    +0.155 C 
BRANCH   6  15
ATOM     15  N   UNL     1      -4.151 -10.192   0.515  0.00  0.00    -0.344 N 
ATOM     16  H   UNL     1      -3.202 -10.146   0.710  0.00  0.00    +0.144 HD
ATOM     17  H   UNL     1      -4.581 -11.054   0.400  0.00  0.00    +0.144 HD
ENDBRANCH   6  15
ENDBRANCH   3   5
ENDBRANCH   2   3
BRANCH   2  18
ATOM     18  S   UNL     1      -0.453  -6.548   0.069  0.00  0.00    -0.077 S 
BRANCH  18  19
ATOM     19  C   UNL     1       0.027  -4.861  -0.095  0.00  0.00    +0.171 A 
ATOM     20  N   UNL     1       1.310  -4.579  -0.457  0.00  0.00    -0.301 N 
ATOM     21  H   UNL     1       1.919  -5.318  -0.613  0.00  0.00    +0.171 HD
ATOM     22  C   UNL     1       1.773  -3.316  -0.607  0.00  0.00    +0.261 A 
ATOM     23  O   UNL     1       2.925  -3.084  -0.931  0.00  0.00    -0.267 OA
ATOM     24  C   UNL     1       0.825  -2.269  -0.363  0.00  0.00    +0.075 A 
ATOM     25  C   UNL     1       1.067  -0.839  -0.457  0.00  0.00    -0.023 A 
ATOM     26  C   UNL     1       0.022  -0.027  -0.180  0.00  0.00    -0.004 A 
ATOM     27  S   UNL     1      -1.323  -1.117   0.213  0.00  0.00    -0.073 S 
ATOM     28  C   UNL     1      -0.483  -2.656   0.007  0.00  0.00    +0.117 A 
ATOM     29  N   UNL     1      -0.875  -3.917   0.139  0.00  0.00    -0.216 NA
ATOM     30  C   UNL     1       0.006   1.470  -0.203  0.00  0.00    +0.043 C 
ATOM     31  C   UNL     1       1.456   1.973  -0.230  0.00  0.00    +0.005 C 
ATOM     32  C   UNL     1       2.225   1.192  -1.300  0.00  0.00    +0.005 C 
ATOM     33  C   UNL     1       2.422  -0.254  -0.846  0.00  0.00    +0.037 C 
ENDBRANCH  18  19
ENDBRANCH   2  18
TORSDOF 5
