REMARK  Name = ZINC67074372
REMARK  8 active torsions:
REMARK  status: ('A' for Active; 'I' for Inactive)
REMARK    1  A    between atoms: C_1  and  C_2
REMARK    2  A    between atoms: C_12  and  C_16
REMARK    3  A    between atoms: N_18  and  C_19
REMARK    4  A    between atoms: C_19  and  C_20
REMARK    5  A    between atoms: C_20  and  C_21
REMARK    6  A    between atoms: N_25  and  C_26
REMARK    7  A    between atoms: C_26  and  C_27
REMARK    8  A    between atoms: C_26  and  C_28
REMARK                            x       y       z     vdW  Elec       q    Type
REMARK                         _______ _______ _______ _____ _____    ______ ____
ROOT
ATOM      1  C   UNL     1       0.554  -6.708   2.262  0.00  0.00    +0.246 C 
ATOM      2  O   UNL     1      -0.390  -6.811   1.503  0.00  0.00    -0.270 OA
ATOM      3  N   UNL     1       1.048  -7.802   2.875  0.00  0.00    -0.311 N 
ATOM      4  H   UNL     1       1.801  -7.720   3.481  0.00  0.00    +0.149 HD
ENDROOT
BRANCH   1  15
ATOM      5  C   UNL     1      -0.019   1.526   0.010  0.00  0.00    +0.008 C 
ATOM      6  C   UNL     1       0.002  -0.004   0.002  0.00  0.00    -0.009 C 
ATOM      7  C   UNL     1      -1.434  -0.535   0.014  0.00  0.00    +0.009 C 
ATOM      8  C   UNL     1      -1.422  -2.045  -0.245  0.00  0.00    +0.054 C 
ATOM      9  C   UNL     1      -0.427  -2.687   0.694  0.00  0.00    +0.020 A 
ATOM     10  C   UNL     1       0.531  -2.001   1.354  0.00  0.00    -0.019 A 
ATOM     11  C   UNL     1       1.271  -2.963   2.145  0.00  0.00    +0.004 A 
ATOM     12  C   UNL     1       2.357  -2.838   3.017  0.00  0.00    +0.010 A 
ATOM     13  C   UNL     1       2.821  -3.997   3.618  0.00  0.00    +0.001 A 
ATOM     14  C   UNL     1       2.247  -5.229   3.379  0.00  0.00    +0.015 A 
ATOM     15  C   UNL     1       1.159  -5.386   2.511  0.00  0.00    +0.061 A 
ATOM     16  C   UNL     1       0.672  -4.222   1.889  0.00  0.00    +0.059 A 
ATOM     17  N   UNL     1      -0.346  -4.018   1.011  0.00  0.00    -0.357 N 
ATOM     18  H   UNL     1      -0.927  -4.711   0.661  0.00  0.00    +0.166 HD
ATOM     19  C   UNL     1       0.742  -0.513   1.245  0.00  0.00    +0.040 C 
ENDBRANCH   1  15
BRANCH   3  20
ATOM     20  C   UNL     1       0.446  -9.115   2.627  0.00  0.00    +0.112 C 
BRANCH  20  21
ATOM     21  C   UNL     1       1.189 -10.177   3.440  0.00  0.00    +0.095 C 
BRANCH  21  22
ATOM     22  C   UNL     1       0.570 -11.528   3.185  0.00  0.00    +0.134 A 
ATOM     23  N   UNL     1      -0.430 -11.761   2.397  0.00  0.00    -0.158 NA
ATOM     24  N   UNL     1      -0.703 -13.136   2.434  0.00  0.00    -0.254 N 
ATOM     25  C   UNL     1       0.184 -13.698   3.282  0.00  0.00    +0.176 A 
ATOM     26  N   UNL     1       0.979 -12.713   3.746  0.00  0.00    -0.305 N 
ATOM     27  S   UNL     1       0.287 -15.358   3.687  0.00  0.00    -0.011 S 
ATOM     28  H   UNL     1      -1.400 -13.597   1.943  0.00  0.00    +0.191 HD
BRANCH  26  29
ATOM     29  C   UNL     1       2.087 -12.877   4.690  0.00  0.00    +0.085 C 
ATOM     30  C   UNL     1       1.558 -13.463   6.000  0.00  0.00    +0.030 C 
ATOM     31  C   UNL     1       3.130 -13.824   4.092  0.00  0.00    +0.030 C 
ENDBRANCH  26  29
ENDBRANCH  21  22
ENDBRANCH  20  21
ENDBRANCH   3  20
TORSDOF 5
