REMARK  Name = ZINC39942363
REMARK  9 active torsions:
REMARK  status: ('A' for Active; 'I' for Inactive)
REMARK    1  A    between atoms: C_1  and  C_2
REMARK    2  A    between atoms: C_2  and  C_4
REMARK    3  A    between atoms: C_2  and  S_16
REMARK    4  A    between atoms: C_4  and  C_6
REMARK    5  A    between atoms: C_9  and  N_12
REMARK    6  A    between atoms: C_13  and  C_15
REMARK    7  A    between atoms: S_16  and  C_17
REMARK    8  A    between atoms: C_21  and  C_26
REMARK    9  A    between atoms: N_22  and  C_23
REMARK                            x       y       z     vdW  Elec       q    Type
REMARK                         _______ _______ _______ _____ _____    ______ ____
ROOT
ATOM      1  C   UNL     1      -3.167  -1.189  -0.657  0.00  0.00    +0.237 C 
ATOM      2  N   UNL     1      -2.633  -1.823  -1.874  0.00  0.00    -0.237 N 
ATOM      3  N   UNL     1      -2.593  -0.828  -2.857  0.00  0.00    -0.169 NA
ATOM      4  C   UNL     1      -3.029   0.314  -2.394  0.00  0.00    +0.147 C 
ATOM      5  N   UNL     1      -3.411   0.208  -1.051  0.00  0.00    -0.282 N 
ATOM      6  H   UNL     1      -2.362  -2.749  -1.974  0.00  0.00    +0.171 HD
ENDROOT
BRANCH   4   7
ATOM      7  C   UNL     1      -3.106   1.496  -3.147  0.00  0.00    +0.022 C 
ATOM      8  C   UNL     1      -2.844   1.646  -4.509  0.00  0.00    +0.006 A 
ATOM      9  C   UNL     1      -2.447   0.734  -5.510  0.00  0.00    +0.010 A 
ATOM     10  C   UNL     1      -2.262   1.169  -6.783  0.00  0.00    +0.001 A 
ATOM     11  C   UNL     1      -2.457   2.507  -7.134  0.00  0.00    +0.002 A 
ATOM     12  C   UNL     1      -2.838   3.437  -6.224  0.00  0.00    +0.026 A 
ATOM     13  C   UNL     1      -3.051   3.057  -4.874  0.00  0.00    +0.043 A 
ATOM     14  N   UNL     1      -3.418   3.757  -3.818  0.00  0.00    -0.380 N 
ATOM     15  C   UNL     1      -3.496   2.871  -2.653  0.00  0.00    +0.152 C 
ATOM     16  H   UNL     1      -3.611   4.708  -3.814  0.00  0.00    +0.160 HD
ENDBRANCH   4   7
BRANCH   5  17
ATOM     17  C   UNL     1      -3.948   1.276  -0.203  0.00  0.00    +0.078 C 
ATOM     18  C   UNL     1      -4.239   0.937   1.260  0.00  0.00    +0.024 C 
ATOM     19  C   UNL     1      -5.394   1.138   0.277  0.00  0.00    +0.024 C 
ENDBRANCH   5  17
BRANCH   1  20
ATOM     20  S   UNL     1      -1.950  -1.266   0.685  0.00  0.00    -0.107 S 
BRANCH  20  22
ATOM     21  C   UNL     1      -0.505   0.819  -0.337  0.00  0.00    +0.027 C 
ATOM     22  C   UNL     1      -0.412  -0.687  -0.083  0.00  0.00    +0.118 C 
BRANCH  22  23
ATOM     23  C   UNL     1       0.747  -0.970   0.837  0.00  0.00    +0.176 C 
ATOM     24  O   UNL     1       0.562  -1.073   2.032  0.00  0.00    -0.291 OA
BRANCH  23  25
ATOM     25  C   UNL     1       2.101  -1.122   0.288  0.00  0.00    +0.019 A 
ATOM     26  C   UNL     1       2.318  -0.997  -1.090  0.00  0.00    +0.013 A 
ATOM     27  C   UNL     1       3.583  -1.139  -1.598  0.00  0.00    +0.024 A 
ATOM     28  C   UNL     1       4.652  -1.406  -0.747  0.00  0.00    +0.033 A 
ATOM     29  C   UNL     1       4.441  -1.531   0.624  0.00  0.00    +0.024 A 
ATOM     30  C   UNL     1       3.180  -1.385   1.141  0.00  0.00    +0.013 A 
BRANCH  28  31
ATOM     31  N   UNL     1       5.936  -1.550  -1.268  0.00  0.00    -0.286 N 
ATOM     32  C   UNL     1       6.328  -0.792  -2.311  0.00  0.00    +0.214 C 
ATOM     33  O   UNL     1       5.536  -0.052  -2.855  0.00  0.00    -0.276 OA
ATOM     34  C   UNL     1       7.750  -0.866  -2.803  0.00  0.00    +0.109 C 
ATOM     35  H   UNL     1       6.547  -2.194  -0.879  0.00  0.00    +0.155 HD
ENDBRANCH  28  31
ENDBRANCH  23  25
ENDBRANCH  22  23
ENDBRANCH  20  22
ENDBRANCH   1  20
TORSDOF 7
