REMARK  Name = ZINC03164079
REMARK  13 active torsions:
REMARK  status: ('A' for Active; 'I' for Inactive)
REMARK    1  A    between atoms: C_1  and  C_2
REMARK    2  A    between atoms: C_2  and  O_3
REMARK    3  A    between atoms: O_3  and  C_4
REMARK    4  A    between atoms: C_4  and  C_6
REMARK    5  A    between atoms: C_10  and  N_11
REMARK    6  A    between atoms: C_12  and  C_14
REMARK    7  A    between atoms: C_14  and  N_52
REMARK    8  A    between atoms: C_15  and  C_16
REMARK    9  A    between atoms: C_15  and  N_52
REMARK   10  A    between atoms: C_16  and  C_17
REMARK   11  A    between atoms: C_17  and  N_55
REMARK   12  A    between atoms: C_18  and  N_55
REMARK   13  A    between atoms: C_19  and  N_55
REMARK                            x       y       z     vdW  Elec       q    Type
REMARK                         _______ _______ _______ _____ _____    ______ ____
ROOT
ATOM      1  N   UNL     1      -1.191   1.867   0.018  0.00  0.00    -0.281 N 
ATOM      2  C   UNL     1      -0.014   1.209   0.009  0.00  0.00    +0.201 C 
ATOM      3  O   UNL     1       0.002  -0.004   0.002  0.00  0.00    -0.278 OA
ATOM      4  H   UNL     1      -1.204   2.836   0.023  0.00  0.00    +0.155 HD
ENDROOT
BRANCH   1   9
ATOM      5  C   UNL     1      -3.680   1.650   0.034  0.00  0.00    +0.091 A 
ATOM      6  C   UNL     1      -4.765   0.683   0.029  0.00  0.00    -0.021 A 
ATOM      7  C   UNL     1      -4.381  -0.611   0.021  0.00  0.00    -0.004 A 
ATOM      8  S   UNL     1      -2.612  -0.560   0.012  0.00  0.00    -0.077 S 
ATOM      9  C   UNL     1      -2.381   1.157   0.020  0.00  0.00    +0.086 A 
ATOM     10  C   UNL     1      -5.271  -1.817   0.019  0.00  0.00    +0.043 C 
ATOM     11  C   UNL     1      -6.689  -1.372   0.407  0.00  0.00    +0.005 C 
ATOM     12  C   UNL     1      -7.063  -0.140  -0.422  0.00  0.00    +0.005 C 
ATOM     13  C   UNL     1      -6.240   1.065   0.037  0.00  0.00    +0.037 C 
BRANCH   5  14
ATOM     14  C   UNL     1      -3.945   3.090   0.050  0.00  0.00    +0.342 C 
ATOM     15  O   UNL     1      -4.064   3.699  -0.997  0.00  0.00    -0.245 OA
BRANCH  14  16
ATOM     16  O   UNL     1      -4.058   3.742   1.225  0.00  0.00    -0.461 OA
BRANCH  16  18
ATOM     17  C   UNL     1      -4.416   5.731   2.585  0.00  0.00    +0.048 C 
ATOM     18  C   UNL     1      -4.322   5.169   1.165  0.00  0.00    +0.229 C 
ENDBRANCH  16  18
ENDBRANCH  14  16
ENDBRANCH   5  14
ENDBRANCH   1   9
BRANCH   2  19
ATOM     19  C   UNL     1       1.280   1.980   0.001  0.00  0.00    +0.015 C 
BRANCH  19  20
ATOM     20  N   UNL     1       2.409   1.030  -0.015  0.00  0.00    +0.385 N 
ATOM     21  H   UNL     1       2.346   0.444  -0.857  0.00  0.00    -0.085 HD
ATOM     22  H   UNL     1       2.362   0.435   0.820  0.00  0.00    -0.085 HD
BRANCH  20  23
ATOM     23  C   UNL     1       3.691   1.758  -0.024  0.00  0.00    -0.084 C 
BRANCH  23  24
ATOM     24  C   UNL     1       4.841   0.749  -0.040  0.00  0.00    -0.038 C 
BRANCH  24  25
ATOM     25  C   UNL     1       6.176   1.497  -0.049  0.00  0.00    -0.081 C 
BRANCH  25  28
ATOM     26  C   UNL     1       7.296  -0.232  -1.322  0.00  0.00    -0.097 C 
ATOM     27  C   UNL     1       8.569   1.194   0.165  0.00  0.00    -0.097 C 
ATOM     28  N   UNL     1       7.276   0.509  -0.043  0.00  0.00    +0.376 N 
ATOM     29  H   UNL     1       7.123  -0.156   0.725  0.00  0.00    -0.083 HD
ENDBRANCH  25  28
ENDBRANCH  24  25
ENDBRANCH  23  24
ENDBRANCH  20  23
ENDBRANCH  19  20
ENDBRANCH   2  19
TORSDOF 10
