REMARK  Name = ZINC20284754
REMARK  10 active torsions:
REMARK  status: ('A' for Active; 'I' for Inactive)
REMARK    1  A    between atoms: C_1  and  C_2
REMARK    2  A    between atoms: C_7  and  N_12
REMARK    3  A    between atoms: C_9  and  C_11
REMARK    4  A    between atoms: C_13  and  C_15
REMARK    5  A    between atoms: C_15  and  C_17
REMARK    6  A    between atoms: C_15  and  N_24
REMARK    7  A    between atoms: C_17  and  C_18
REMARK    8  A    between atoms: N_24  and  S_25
REMARK    9  A    between atoms: S_25  and  C_28
REMARK   10  A    between atoms: N_37  and  C_38
REMARK                            x       y       z     vdW  Elec       q    Type
REMARK                         _______ _______ _______ _____ _____    ______ ____
ROOT
ATOM      1  C   UNL     1       1.473   0.435   7.405  0.00  0.00    +0.166 C 
ENDROOT
BRANCH   1   3
ATOM      2  N   UNL     1       2.406  -1.497   8.636  0.00  0.00    -0.311 N 
ATOM      3  C   UNL     1       1.660  -0.375   8.662  0.00  0.00    +0.232 C 
ATOM      4  O   UNL     1       1.140  -0.016   9.697  0.00  0.00    -0.274 OA
ATOM      5  H   UNL     1       2.878  -1.822   7.697  0.00  0.00    +0.149 HD
BRANCH   2  11
ATOM      6  C   UNL     1       1.806  -4.506  11.600  0.00  0.00    +0.008 C 
ATOM      7  C   UNL     1       3.087  -4.558  10.764  0.00  0.00    -0.009 C 
ATOM      8  C   UNL     1       4.249  -3.981  11.575  0.00  0.00    +0.003 C 
ATOM      9  C   UNL     1       3.940  -2.529  11.944  0.00  0.00    +0.002 C 
ATOM     10  C   UNL     1       3.750  -1.706  10.668  0.00  0.00    +0.022 C 
ATOM     11  C   UNL     1       2.588  -2.284   9.858  0.00  0.00    +0.076 C 
ATOM     12  C   UNL     1       2.897  -3.736   9.488  0.00  0.00    +0.009 C 
ATOM     13  C   UNL     1       1.735  -4.314   8.677  0.00  0.00    +0.009 C 
ENDBRANCH   2  11
ENDBRANCH   1   3
BRANCH   1  14
ATOM     14  N   UNL     1       0.629   1.597   7.694  0.00  0.00    -0.178 NA
ATOM     15  H   UNL     1      -0.454   1.551   7.504  0.00  0.00    +0.149 HD
BRANCH  14  16
ATOM     16  S   UNL     1       1.324   3.053   8.067  0.00  0.00    +0.059 S 
ATOM     17  O   UNL     1       2.279   2.797   9.088  0.00  0.00    -0.153 OA
ATOM     18  O   UNL     1       0.260   3.980   8.235  0.00  0.00    -0.153 OA
BRANCH  16  19
ATOM     19  C   UNL     1       2.230   3.577   6.650  0.00  0.00    +0.109 A 
ATOM     20  C   UNL     1       3.579   3.284   6.548  0.00  0.00    +0.031 A 
ATOM     21  C   UNL     1       4.296   3.691   5.439  0.00  0.00    +0.031 A 
ATOM     22  C   UNL     1       3.661   4.395   4.428  0.00  0.00    +0.090 A 
ATOM     23  C   UNL     1       2.301   4.690   4.530  0.00  0.00    +0.159 A 
ATOM     24  C   UNL     1       1.590   4.277   5.646  0.00  0.00    +0.077 A 
ATOM     25  O   UNL     1       1.953   5.375   3.413  0.00  0.00    -0.407 OA
ATOM     26  C   UNL     1       3.034   5.521   2.630  0.00  0.00    +0.421 A 
ATOM     27  O   UNL     1       3.053   6.094   1.558  0.00  0.00    -0.223 OA
ATOM     28  N   UNL     1       4.095   4.929   3.215  0.00  0.00    -0.277 N 
ATOM     29  C   UNL     1       5.456   4.866   2.678  0.00  0.00    +0.156 C 
ENDBRANCH  16  19
ENDBRANCH  14  16
ENDBRANCH   1  14
BRANCH   1  30
ATOM     30  C   UNL     1       0.802  -0.430   6.336  0.00  0.00    +0.065 C 
BRANCH  30  31
ATOM     31  C   UNL     1       0.740   0.333   5.038  0.00  0.00    -0.045 A 
ATOM     32  C   UNL     1      -0.336   1.159   4.772  0.00  0.00    +0.004 A 
ATOM     33  C   UNL     1      -0.390   1.862   3.583  0.00  0.00    +0.000 A 
ATOM     34  C   UNL     1       0.627   1.733   2.656  0.00  0.00    +0.000 A 
ATOM     35  C   UNL     1       1.700   0.903   2.920  0.00  0.00    +0.000 A 
ATOM     36  C   UNL     1       1.757   0.203   4.111  0.00  0.00    +0.004 A 
ENDBRANCH  30  31
ENDBRANCH   1  30
TORSDOF 7
