REMARK  Name = ZINC19221902
REMARK  9 active torsions:
REMARK  status: ('A' for Active; 'I' for Inactive)
REMARK    1  A    between atoms: C_1  and  C_2
REMARK    2  A    between atoms: C_7  and  C_14
REMARK    3  A    between atoms: C_14  and  C_16
REMARK    4  A    between atoms: C_14  and  N_26
REMARK    5  A    between atoms: N_20  and  C_21
REMARK    6  A    between atoms: N_26  and  C_27
REMARK    7  A    between atoms: N_26  and  C_34
REMARK    8  A    between atoms: C_27  and  C_28
REMARK    9  A    between atoms: C_34  and  C_35
REMARK                            x       y       z     vdW  Elec       q    Type
REMARK                         _______ _______ _______ _____ _____    ______ ____
ROOT
ATOM      1  C   UNL     1       0.115  -6.584   1.208  0.00  0.00    +0.040 C 
ENDROOT
BRANCH   1   8
ATOM      2  C   UNL     1      -1.552   1.182   0.479  0.00  0.00    +0.044 C 
ATOM      3  C   UNL     1      -1.246  -0.291   0.383  0.00  0.00    -0.048 A 
ATOM      4  C   UNL     1      -1.171  -0.897  -0.863  0.00  0.00    +0.004 A 
ATOM      5  C   UNL     1      -0.895  -2.231  -0.972  0.00  0.00    +0.010 A 
ATOM      6  C   UNL     1      -0.686  -2.992   0.183  0.00  0.00    -0.001 A 
ATOM      7  C   UNL     1      -0.388  -4.423   0.102  0.00  0.00    +0.017 A 
ATOM      8  C   UNL     1      -0.194  -5.110   1.255  0.00  0.00    +0.011 A 
ATOM      9  C   UNL     1      -0.280  -4.449   2.499  0.00  0.00    +0.251 A 
ATOM     10  O   UNL     1      -0.102  -5.085   3.524  0.00  0.00    -0.268 OA
ATOM     11  N   UNL     1      -0.553  -3.135   2.583  0.00  0.00    -0.322 N 
ATOM     12  H   UNL     1      -0.605  -2.712   3.454  0.00  0.00    +0.169 HD
ATOM     13  C   UNL     1      -0.761  -2.381   1.448  0.00  0.00    +0.049 A 
ATOM     14  C   UNL     1      -1.038  -1.020   1.534  0.00  0.00    +0.029 A 
ENDBRANCH   1   8
BRANCH   1  15
ATOM     15  C   UNL     1      -1.025  -7.356   1.821  0.00  0.00    +0.143 A 
ATOM     16  N   UNL     1      -1.307  -7.455   3.098  0.00  0.00    -0.115 NA
ATOM     17  N   UNL     1      -2.352  -8.197   3.218  0.00  0.00    -0.023 NA
ATOM     18  N   UNL     1      -2.745  -8.575   2.052  0.00  0.00    -0.044 NA
ATOM     19  N   UNL     1      -1.956  -8.072   1.164  0.00  0.00    -0.227 N 
BRANCH  19  20
ATOM     20  C   UNL     1      -2.052  -8.251  -0.287  0.00  0.00    +0.111 C 
ATOM     21  C   UNL     1      -3.432  -7.777  -0.787  0.00  0.00    +0.027 C 
ATOM     22  C   UNL     1      -3.797  -8.784  -1.907  0.00  0.00    +0.002 C 
ATOM     23  C   UNL     1      -3.264 -10.126  -1.347  0.00  0.00    +0.002 C 
ATOM     24  C   UNL     1      -1.945  -9.744  -0.643  0.00  0.00    +0.027 C 
ENDBRANCH  19  20
ENDBRANCH   1  15
BRANCH   1  25
ATOM     25  N   UNL     1       1.347  -6.851   1.961  0.00  0.00    +0.397 N 
ATOM     26  H   UNL     1       1.272  -6.449   2.884  0.00  0.00    -0.079 HD
BRANCH  25  27
ATOM     27  C   UNL     1       1.548  -8.302   2.075  0.00  0.00    -0.039 C 
BRANCH  27  28
ATOM     28  C   UNL     1       2.743  -8.577   2.950  0.00  0.00    -0.046 A 
ATOM     29  C   UNL     1       4.010  -8.677   2.397  0.00  0.00    +0.005 A 
ATOM     30  C   UNL     1       5.081  -8.931   3.241  0.00  0.00    +0.020 A 
ATOM     31  C   UNL     1       4.850  -9.076   4.596  0.00  0.00    +0.111 A 
ATOM     32  N   UNL     1       3.631  -8.974   5.088  0.00  0.00    -0.263 NA
ATOM     33  C   UNL     1       2.591  -8.727   4.316  0.00  0.00    +0.112 A 
ENDBRANCH  27  28
ENDBRANCH  25  27
BRANCH  25  34
ATOM     34  C   UNL     1       2.490  -6.253   1.258  0.00  0.00    -0.001 C 
BRANCH  34  35
ATOM     35  C   UNL     1       2.532  -4.772   1.537  0.00  0.00    +0.089 A 
ATOM     36  C   UNL     1       3.058  -4.193   2.631  0.00  0.00    +0.042 A 
ATOM     37  C   UNL     1       2.883  -2.798   2.479  0.00  0.00    +0.041 A 
ATOM     38  C   UNL     1       2.262  -2.609   1.301  0.00  0.00    +0.195 A 
ATOM     39  O   UNL     1       2.057  -3.808   0.732  0.00  0.00    -0.470 OA
ENDBRANCH  34  35
ENDBRANCH  25  34
ENDBRANCH   1  25
TORSDOF 8
