REMARK  Name = ZINC62744851
REMARK  7 active torsions:
REMARK  status: ('A' for Active; 'I' for Inactive)
REMARK    1  A    between atoms: C_1  and  C_2
REMARK    2  A    between atoms: C_2  and  C_4
REMARK    3  A    between atoms: C_2  and  N_12
REMARK    4  A    between atoms: C_9  and  O_10
REMARK    5  A    between atoms: N_12  and  C_13
REMARK    6  A    between atoms: C_13  and  C_15
REMARK    7  A    between atoms: C_13  and  C_16
REMARK                            x       y       z     vdW  Elec       q    Type
REMARK                         _______ _______ _______ _____ _____    ______ ____
ROOT
ATOM      1  N   UNL     1       0.690  -0.478  -1.207  0.00  0.00    +0.388 N 
ATOM      2  H   UNL     1       1.608  -0.063  -1.256  0.00  0.00    -0.084 HD
ATOM      3  H   UNL     1       0.776  -1.482  -1.172  0.00  0.00    -0.084 HD
ENDROOT
BRANCH   1   5
ATOM      4  C   UNL     1      -0.019   1.526   0.010  0.00  0.00    -0.009 C 
ATOM      5  C   UNL     1       0.002  -0.004   0.002  0.00  0.00    -0.040 C 
BRANCH   5   6
ATOM      6  C   UNL     1       0.731  -0.503   1.223  0.00  0.00    -0.020 A 
ATOM      7  C   UNL     1       2.077  -0.808   1.148  0.00  0.00    +0.008 A 
ATOM      8  C   UNL     1       2.747  -1.265   2.267  0.00  0.00    +0.039 A 
ATOM      9  C   UNL     1       2.071  -1.420   3.466  0.00  0.00    +0.127 A 
ATOM     10  C   UNL     1       0.724  -1.116   3.545  0.00  0.00    +0.084 A 
ATOM     11  C   UNL     1       0.052  -0.652   2.424  0.00  0.00    +0.121 A 
ATOM     12  F   UNL     1       2.728  -1.868   4.558  0.00  0.00    -0.205 F 
BRANCH  11  13
ATOM     13  O   UNL     1      -1.270  -0.347   2.500  0.00  0.00    -0.506 OA
ATOM     14  H   UNL     1      -1.857  -1.091   2.304  0.00  0.00    +0.292 HD
ENDBRANCH  11  13
ENDBRANCH   5   6
ENDBRANCH   1   5
BRANCH   1  15
ATOM     15  C   UNL     1      -0.086  -0.093  -2.394  0.00  0.00    -0.042 C 
ATOM     16  C   UNL     1      -1.431  -0.821  -2.382  0.00  0.00    -0.009 C 
BRANCH  15  17
ATOM     17  C   UNL     1       0.679  -0.470  -3.637  0.00  0.00    -0.043 A 
ATOM     18  C   UNL     1       1.603  -1.498  -3.595  0.00  0.00    +0.005 A 
ATOM     19  C   UNL     1       2.304  -1.844  -4.734  0.00  0.00    +0.020 A 
ATOM     20  C   UNL     1       2.081  -1.162  -5.918  0.00  0.00    +0.042 A 
ATOM     21  C   UNL     1       1.157  -0.135  -5.960  0.00  0.00    +0.040 A 
ATOM     22  C   UNL     1       0.451   0.208  -4.821  0.00  0.00    +0.044 A 
ATOM     23 CL   UNL     1      -0.714   1.494  -4.874  0.00  0.00    -0.083 Cl
ATOM     24 CL   UNL     1       2.962  -1.597  -7.349  0.00  0.00    -0.083 Cl
ENDBRANCH  15  17
ENDBRANCH   1  15
TORSDOF 5
