REMARK  Name = ZINC50037041
REMARK  4 active torsions:
REMARK  status: ('A' for Active; 'I' for Inactive)
REMARK    1  A    between atoms: C_1  and  C_2
REMARK    2  A    between atoms: C_7  and  N_8
REMARK    3  A    between atoms: C_9  and  C_13
REMARK    4  A    between atoms: C_18  and  N_19
REMARK                            x       y       z     vdW  Elec       q    Type
REMARK                         _______ _______ _______ _____ _____    ______ ____
ROOT
ATOM      1  N   UNL     1      -0.540  -0.167   2.871  0.00  0.00    -0.192 N 
ATOM      2  C   UNL     1       0.390  -0.732   3.695  0.00  0.00    +0.189 A 
ATOM      3  N   UNL     1       1.087   0.256   4.219  0.00  0.00    -0.108 NA
ATOM      4  N   UNL     1       0.661   1.387   3.784  0.00  0.00    -0.022 NA
ATOM      5  N   UNL     1      -0.316   1.218   2.961  0.00  0.00    -0.039 NA
ENDROOT
BRANCH   2   6
ATOM      6  C   UNL     1       0.579  -2.175   3.951  0.00  0.00    +0.045 A 
ATOM      7  C   UNL     1       0.662  -3.071   2.884  0.00  0.00    +0.054 A 
ATOM      8  C   UNL     1       0.839  -4.418   3.128  0.00  0.00    +0.159 A 
ATOM      9  C   UNL     1       0.934  -4.885   4.433  0.00  0.00    +0.160 A 
ATOM     10  C   UNL     1       0.853  -4.006   5.497  0.00  0.00    +0.064 A 
ATOM     11  C   UNL     1       0.681  -2.649   5.266  0.00  0.00    +0.038 A 
ATOM     12  F   UNL     1       1.107  -6.205   4.663  0.00  0.00    -0.202 F 
ATOM     13  F   UNL     1       0.919  -5.284   2.095  0.00  0.00    -0.202 F 
BRANCH  11  14
ATOM     14  N   UNL     1       0.605  -1.761   6.338  0.00  0.00    -0.357 N 
ATOM     15  H   UNL     1       0.481  -0.813   6.174  0.00  0.00    +0.142 HD
ATOM     16  H   UNL     1       0.676  -2.091   7.247  0.00  0.00    +0.142 HD
ENDBRANCH  11  14
ENDBRANCH   2   6
BRANCH   1  23
ATOM     17  C   UNL     1       0.002  -0.586   0.109  0.00  0.00    +0.046 C 
ATOM     18  C   UNL     1      -1.281  -1.050   0.747  0.00  0.00    -0.025 A 
ATOM     19  C   UNL     1      -2.233  -1.705  -0.010  0.00  0.00    +0.005 A 
ATOM     20  C   UNL     1      -3.411  -2.131   0.575  0.00  0.00    +0.000 A 
ATOM     21  C   UNL     1      -3.641  -1.903   1.919  0.00  0.00    +0.002 A 
ATOM     22  C   UNL     1      -2.694  -1.249   2.682  0.00  0.00    +0.028 A 
ATOM     23  C   UNL     1      -1.506  -0.826   2.099  0.00  0.00    +0.072 A 
ENDBRANCH   1  23
TORSDOF 3
