REMARK  Name = ZINC39646893
REMARK  6 active torsions:
REMARK  status: ('A' for Active; 'I' for Inactive)
REMARK    1  A    between atoms: C_5  and  N_7
REMARK    2  A    between atoms: C_8  and  S_22
REMARK    3  A    between atoms: C_13  and  C_19
REMARK    4  A    between atoms: S_22  and  C_23
REMARK    5  A    between atoms: C_23  and  C_24
REMARK    6  A    between atoms: C_24  and  C_26
REMARK                            x       y       z     vdW  Elec       q    Type
REMARK                         _______ _______ _______ _____ _____    ______ ____
ROOT
ATOM      1  N   UNL     1       1.236  -2.080  -0.021  0.00  0.00    -0.236 N 
ATOM      2  C   UNL     1       1.254  -2.806   1.249  0.00  0.00    +0.227 C 
ATOM      3  N   UNL     1       2.017  -4.052   1.112  0.00  0.00    -0.316 N 
ATOM      4  C   UNL     1       1.825  -4.835  -0.021  0.00  0.00    +0.042 A 
ATOM      5  C   UNL     1       1.999  -6.208   0.007  0.00  0.00    +0.038 A 
ATOM      6  C   UNL     1       1.806  -6.950  -1.159  0.00  0.00    +0.065 A 
ATOM      7  C   UNL     1       1.438  -6.310  -2.347  0.00  0.00    +0.016 A 
ATOM      8  C   UNL     1       1.260  -4.945  -2.376  0.00  0.00    +0.016 A 
ATOM      9  C   UNL     1       1.446  -4.197  -1.215  0.00  0.00    +0.058 A 
ATOM     10  C   UNL     1       1.235  -2.735  -1.199  0.00  0.00    +0.255 C 
ATOM     11  O   UNL     1       1.067  -2.128  -2.239  0.00  0.00    -0.269 OA
ATOM     12  H   UNL     1       2.644  -4.325   1.800  0.00  0.00    +0.149 HD
ENDROOT
BRANCH   1  17
ATOM     13  C   UNL     1      -0.017   1.377   0.010  0.00  0.00    +0.002 A 
ATOM     14  C   UNL     1       1.170   2.087   0.002  0.00  0.00    +0.003 A 
ATOM     15  C   UNL     1       2.380   1.418  -0.013  0.00  0.00    +0.040 A 
ATOM     16  C   UNL     1       2.406   0.035  -0.021  0.00  0.00    +0.145 A 
ATOM     17  C   UNL     1       1.214  -0.681  -0.013  0.00  0.00    +0.074 A 
ATOM     18  C   UNL     1       0.002  -0.004   0.002  0.00  0.00    +0.026 A 
ATOM     19  F   UNL     1       3.588  -0.619  -0.036  0.00  0.00    -0.204 F 
ENDBRANCH   1  17
BRANCH   6  20
ATOM     20  C   UNL     1       1.990  -8.416  -1.137  0.00  0.00    +0.387 C 
ATOM     21  O   UNL     1       2.311  -8.977  -0.100  0.00  0.00    -0.241 OA
ATOM     22  O   UNL     1       1.821  -9.069  -2.158  0.00  0.00    -0.241 OA
ENDBRANCH   6  20
BRANCH   2  23
ATOM     23  S   UNL     1      -0.448  -3.199   1.740  0.00  0.00    -0.111 S 
BRANCH  23  24
ATOM     24  C   UNL     1      -1.073  -4.219   0.376  0.00  0.00    +0.149 C 
BRANCH  24  25
ATOM     25  C   UNL     1      -2.498  -4.620   0.661  0.00  0.00    +0.171 C 
ATOM     26  O   UNL     1      -3.035  -4.255   1.679  0.00  0.00    -0.294 OA
BRANCH  25  27
ATOM     27  C   UNL     1      -3.251  -5.476  -0.324  0.00  0.00    +0.195 C 
ATOM     28  C   UNL     1      -2.884  -6.932  -0.141  0.00  0.00    +0.008 C 
ATOM     29  C   UNL     1      -4.016  -7.556   0.182  0.00  0.00    +0.017 C 
ATOM     30  C   UNL     1      -5.112  -6.588   0.223  0.00  0.00    +0.106 C 
ATOM     31  N   UNL     1      -4.694  -5.399  -0.065  0.00  0.00    -0.277 NA
ENDBRANCH  25  27
ENDBRANCH  24  25
ENDBRANCH  23  24
ENDBRANCH   2  23
TORSDOF 6
