REMARK  Name = ZINC58913831
REMARK  9 active torsions:
REMARK  status: ('A' for Active; 'I' for Inactive)
REMARK    1  A    between atoms: C_1  and  C_2
REMARK    2  A    between atoms: C_5  and  N_8
REMARK    3  A    between atoms: C_9  and  C_31
REMARK    4  A    between atoms: C_11  and  C_14
REMARK    5  A    between atoms: C_12  and  C_13
REMARK    6  A    between atoms: N_15  and  N_16
REMARK    7  A    between atoms: C_17  and  C_19
REMARK    8  A    between atoms: N_21  and  C_22
REMARK    9  A    between atoms: C_25  and  N_28
REMARK                            x       y       z     vdW  Elec       q    Type
REMARK                         _______ _______ _______ _____ _____    ______ ____
ROOT
ATOM      1  N   UNL     1       3.486  -8.393   1.521  0.00  0.00    -0.199 N 
ATOM      2  C   UNL     1       4.698  -8.230   2.086  0.00  0.00    +0.318 C 
ATOM      3  O   UNL     1       5.128  -7.113   2.291  0.00  0.00    -0.263 OA
ATOM      4  H   UNL     1       3.142  -9.285   1.358  0.00  0.00    +0.178 HD
ENDROOT
BRANCH   2   5
ATOM      5  C   UNL     1       5.512  -9.422   2.461  0.00  0.00    +0.305 C 
ATOM      6  O   UNL     1       5.082 -10.539   2.256  0.00  0.00    -0.265 OA
ATOM      7  N   UNL     1       6.724  -9.259   3.026  0.00  0.00    -0.278 N 
ATOM      8  H   UNL     1       7.096  -8.369   3.128  0.00  0.00    +0.155 HD
BRANCH   7   9
ATOM      9  C   UNL     1       7.445 -10.373   3.465  0.00  0.00    +0.034 A 
ATOM     10  C   UNL     1       8.232 -10.287   4.607  0.00  0.00    +0.025 A 
ATOM     11  C   UNL     1       8.943 -11.389   5.038  0.00  0.00    +0.034 A 
ATOM     12  C   UNL     1       8.873 -12.578   4.334  0.00  0.00    +0.126 A 
ATOM     13  C   UNL     1       8.092 -12.666   3.197  0.00  0.00    +0.034 A 
ATOM     14  C   UNL     1       7.373 -11.570   2.764  0.00  0.00    +0.025 A 
BRANCH  12  15
ATOM     15  N   UNL     1       9.638 -13.757   4.799  0.00  0.00    +0.056 N 
ATOM     16  O   UNL     1      10.322 -13.681   5.793  0.00  0.00    -0.126 OA
ATOM     17  O   UNL     1       9.578 -14.796   4.185  0.00  0.00    -0.126 OA
ENDBRANCH  12  15
ENDBRANCH   7   9
ENDBRANCH   2   5
BRANCH   1  19
ATOM     18  C   UNL     1       1.552  -7.430   0.624  0.00  0.00    +0.140 C 
ATOM     19  N   UNL     1       2.721  -7.273   1.169  0.00  0.00    -0.187 NA
BRANCH  18  23
ATOM     20  N   UNL     1       0.074  -4.171  -0.052  0.00  0.00    -0.317 N 
ATOM     21  C   UNL     1      -0.933  -4.965  -0.523  0.00  0.00    +0.022 A 
ATOM     22  C   UNL     1      -0.582  -6.254  -0.365  0.00  0.00    +0.032 A 
ATOM     23  C   UNL     1       0.748  -6.252   0.254  0.00  0.00    +0.016 A 
ATOM     24  C   UNL     1       1.094  -4.940   0.414  0.00  0.00    +0.030 A 
ATOM     25  C   UNL     1       2.383  -4.432   1.008  0.00  0.00    +0.064 C 
ATOM     26  C   UNL     1      -2.227  -4.476  -1.123  0.00  0.00    +0.064 C 
BRANCH  20  31
ATOM     27  C   UNL     1       0.016   1.504  -0.060  0.00  0.00    +0.044 C 
ATOM     28  C   UNL     1       0.031  -0.003  -0.058  0.00  0.00    -0.050 A 
ATOM     29  C   UNL     1       0.032  -0.694  -1.255  0.00  0.00    +0.005 A 
ATOM     30  C   UNL     1       0.046  -2.075  -1.256  0.00  0.00    +0.026 A 
ATOM     31  C   UNL     1       0.060  -2.769  -0.054  0.00  0.00    +0.047 A 
ATOM     32  C   UNL     1       0.060  -2.072   1.147  0.00  0.00    +0.026 A 
ATOM     33  C   UNL     1       0.050  -0.691   1.141  0.00  0.00    +0.005 A 
ENDBRANCH  20  31
ENDBRANCH  18  23
ENDBRANCH   1  19
TORSDOF 6
