REMARK  Name = ZINC13703202
REMARK  7 active torsions:
REMARK  status: ('A' for Active; 'I' for Inactive)
REMARK    1  A    between atoms: C_1  and  C_2
REMARK    2  A    between atoms: C_2  and  N_3
REMARK    3  A    between atoms: C_4  and  C_25
REMARK    4  A    between atoms: C_6  and  C_8
REMARK    5  A    between atoms: N_10  and  C_11
REMARK    6  A    between atoms: C_12  and  C_22
REMARK    7  A    between atoms: C_17  and  C_21
REMARK                            x       y       z     vdW  Elec       q    Type
REMARK                         _______ _______ _______ _____ _____    ______ ____
ROOT
ATOM      1  C   UNL     1      -1.865  -1.129   1.201  0.00  0.00    +0.085 A 
ATOM      2  C   UNL     1      -1.257  -0.754   0.010  0.00  0.00    +0.068 A 
ATOM      3  C   UNL     1      -1.919  -1.129  -1.228  0.00  0.00    -0.023 A 
ATOM      4  C   UNL     1      -3.069  -1.821  -1.079  0.00  0.00    -0.004 A 
ATOM      5  S   UNL     1      -3.285  -1.969   0.672  0.00  0.00    -0.077 S 
ATOM      6  C   UNL     1      -3.960  -2.339  -2.166  0.00  0.00    +0.046 C 
ATOM      7  C   UNL     1      -3.567  -1.651  -3.482  0.00  0.00    -0.009 C 
ATOM      8  C   UNL     1      -2.045  -1.717  -3.638  0.00  0.00    +0.008 C 
ATOM      9  C   UNL     1      -1.376  -0.799  -2.613  0.00  0.00    +0.037 C 
ATOM     10  C   UNL     1      -4.237  -2.367  -4.655  0.00  0.00    +0.008 C 
ENDROOT
BRANCH   2  11
ATOM     11  C   UNL     1       0.002  -0.004   0.002  0.00  0.00    +0.244 C 
ATOM     12  O   UNL     1       1.064  -0.598  -0.011  0.00  0.00    -0.270 OA
ATOM     13  N   UNL     1      -0.016   1.344   0.009  0.00  0.00    -0.325 N 
ATOM     14  H   UNL     1       0.817   1.840   0.004  0.00  0.00    +0.145 HD
ATOM     15  H   UNL     1      -0.863   1.817   0.016  0.00  0.00    +0.145 HD
ENDBRANCH   2  11
BRANCH   1  18
ATOM     16  C   UNL     1      -2.168  -1.334   3.539  0.00  0.00    +0.269 C 
ATOM     17  O   UNL     1      -3.200  -1.946   3.342  0.00  0.00    -0.268 OA
ATOM     18  N   UNL     1      -1.439  -0.889   2.497  0.00  0.00    -0.274 N 
ATOM     19  H   UNL     1      -0.615  -0.401   2.655  0.00  0.00    +0.156 HD
BRANCH  16  23
ATOM     20  N   UNL     1      -0.535  -0.396   6.562  0.00  0.00    -0.268 N 
ATOM     21  C   UNL     1      -1.589  -1.029   7.121  0.00  0.00    +0.037 A 
ATOM     22  C   UNL     1      -2.367  -1.481   6.110  0.00  0.00    +0.057 A 
ATOM     23  C   UNL     1      -1.714  -1.079   4.921  0.00  0.00    +0.148 A 
ATOM     24  N   UNL     1      -0.619  -0.439   5.281  0.00  0.00    -0.166 NA
ATOM     25  C   UNL     1      -1.850  -1.200   8.595  0.00  0.00    +0.065 C 
BRANCH  20  27
ATOM     26  C   UNL     1       1.667  -0.777   7.556  0.00  0.00    +0.029 C 
ATOM     27  C   UNL     1       0.552   0.241   7.310  0.00  0.00    +0.140 C 
ENDBRANCH  20  27
ENDBRANCH  16  23
ENDBRANCH   1  18
TORSDOF 4
