REMARK  Name = ZINC38670601
REMARK  9 active torsions:
REMARK  status: ('A' for Active; 'I' for Inactive)
REMARK    1  A    between atoms: C_1  and  C_2
REMARK    2  A    between atoms: C_3  and  S_8
REMARK    3  A    between atoms: C_4  and  C_7
REMARK    4  A    between atoms: S_8  and  N_11
REMARK    5  A    between atoms: N_11  and  C_12
REMARK    6  A    between atoms: C_12  and  C_13
REMARK    7  A    between atoms: C_13  and  C_15
REMARK    8  A    between atoms: C_13  and  N_26
REMARK    9  A    between atoms: N_24  and  C_25
REMARK                            x       y       z     vdW  Elec       q    Type
REMARK                         _______ _______ _______ _____ _____    ______ ____
ROOT
ATOM      1  C   UNL     1       3.718  -0.790  -4.257  0.00  0.00    -0.022 C 
ENDROOT
BRANCH   1   2
ATOM      2  C   UNL     1       4.643  -1.977  -4.353  0.00  0.00    -0.059 A 
ATOM      3  C   UNL     1       5.503  -2.266  -3.309  0.00  0.00    +0.004 A 
ATOM      4  C   UNL     1       6.351  -3.352  -3.397  0.00  0.00    +0.023 A 
ATOM      5  C   UNL     1       6.339  -4.154  -4.533  0.00  0.00    +0.033 A 
ATOM      6  C   UNL     1       5.474  -3.865  -5.577  0.00  0.00    -0.026 A 
ATOM      7  C   UNL     1       4.624  -2.776  -5.479  0.00  0.00    +0.007 A 
ATOM      8  C   UNL     1       5.426  -4.717  -6.818  0.00  0.00    +0.038 C 
ATOM      9  C   UNL     1       6.717  -5.521  -6.965  0.00  0.00    +0.024 C 
ATOM     10  C   UNL     1       6.996  -6.258  -5.649  0.00  0.00    +0.105 C 
ATOM     11  N   UNL     1       7.210  -5.247  -4.605  0.00  0.00    -0.333 N 
ATOM     12  C   UNL     1       8.317  -5.380  -3.654  0.00  0.00    +0.129 C 
ENDBRANCH   1   2
BRANCH   1  13
ATOM     13  N   UNL     1       4.430   0.337  -3.642  0.00  0.00    +0.385 N 
ATOM     14  C   UNL     1       5.598   0.722  -4.475  0.00  0.00    -0.078 C 
ATOM     15  C   UNL     1       5.875   2.184  -4.043  0.00  0.00    -0.020 C 
ATOM     16  C   UNL     1       4.455   2.758  -3.834  0.00  0.00    -0.020 C 
ATOM     17  C   UNL     1       3.556   1.530  -3.598  0.00  0.00    -0.078 C 
ATOM     18  H   UNL     1       4.731   0.092  -2.710  0.00  0.00    -0.081 HD
ENDBRANCH   1  13
BRANCH   1  19
ATOM     19  C   UNL     1       2.505  -1.157  -3.400  0.00  0.00    +0.095 C 
BRANCH  19  20
ATOM     20  N   UNL     1       1.731  -2.204  -4.071  0.00  0.00    -0.191 NA
ATOM     21  H   UNL     1       1.891  -2.401  -5.007  0.00  0.00    +0.148 HD
BRANCH  20  22
ATOM     22  S   UNL     1       0.584  -3.053  -3.231  0.00  0.00    +0.063 S 
ATOM     23  O   UNL     1       1.198  -3.479  -2.022  0.00  0.00    -0.153 OA
ATOM     24  O   UNL     1      -0.002  -3.964  -4.150  0.00  0.00    -0.153 OA
BRANCH  22  27
ATOM     25  C   UNL     1      -2.175  -2.181  -4.883  0.00  0.00    +0.071 C 
ATOM     26  C   UNL     1      -1.821  -1.599  -3.539  0.00  0.00    +0.107 A 
ATOM     27  C   UNL     1      -0.680  -1.912  -2.778  0.00  0.00    +0.169 A 
ATOM     28  C   UNL     1      -0.722  -1.188  -1.643  0.00  0.00    +0.161 A 
ATOM     29  O   UNL     1      -1.837  -0.442  -1.668  0.00  0.00    -0.358 OA
ATOM     30  N   UNL     1      -2.516  -0.714  -2.881  0.00  0.00    -0.081 NA
ATOM     31  C   UNL     1       0.303  -1.212  -0.538  0.00  0.00    +0.091 C 
ENDBRANCH  22  27
ENDBRANCH  20  22
ENDBRANCH  19  20
ENDBRANCH   1  19
TORSDOF 6
