REMARK  Name = ZINC12684262
REMARK  8 active torsions:
REMARK  status: ('A' for Active; 'I' for Inactive)
REMARK    1  A    between atoms: C_1  and  C_2
REMARK    2  A    between atoms: C_11  and  N_29
REMARK    3  A    between atoms: C_13  and  C_15
REMARK    4  A    between atoms: C_15  and  C_16
REMARK    5  A    between atoms: C_16  and  N_17
REMARK    6  A    between atoms: N_17  and  C_18
REMARK    7  A    between atoms: C_18  and  C_20
REMARK    8  A    between atoms: C_18  and  C_21
REMARK                            x       y       z     vdW  Elec       q    Type
REMARK                         _______ _______ _______ _____ _____    ______ ____
ROOT
ATOM      1  C   UNL     1      -4.992   3.540  -2.260  0.00  0.00    +0.008 C 
ATOM      2  C   UNL     1      -3.560   3.039  -2.065  0.00  0.00    -0.009 C 
ATOM      3  C   UNL     1      -2.876   3.854  -0.963  0.00  0.00    +0.008 C 
ATOM      4  C   UNL     1      -1.381   3.532  -0.930  0.00  0.00    +0.037 C 
ATOM      5  C   UNL     1      -1.205   2.019  -0.837  0.00  0.00    -0.025 A 
ATOM      6  C   UNL     1      -2.217   1.186  -1.155  0.00  0.00    -0.004 A 
ATOM      7  S   UNL     1      -1.571  -0.445  -0.903  0.00  0.00    -0.073 S 
ATOM      8  C   UNL     1       0.060  -0.007  -0.362  0.00  0.00    +0.114 A 
ATOM      9  C   UNL     1       0.048   1.403  -0.395  0.00  0.00    +0.051 A 
ATOM     10  C   UNL     1       1.259   2.033   0.001  0.00  0.00    +0.128 A 
ATOM     11  N   UNL     1       2.287   1.282   0.363  0.00  0.00    -0.217 NA
ATOM     12  C   UNL     1       2.227  -0.037   0.370  0.00  0.00    +0.134 A 
ATOM     13  N   UNL     1       1.131  -0.678   0.013  0.00  0.00    -0.225 NA
ATOM     14  C   UNL     1      -3.589   1.564  -1.626  0.00  0.00    +0.046 C 
ENDROOT
BRANCH  10  15
ATOM     15  N   UNL     1       1.362   3.413   0.008  0.00  0.00    -0.343 N 
ATOM     16  H   UNL     1       2.303   3.893   0.316  0.00  0.00    +0.144 HD
ATOM     17  H   UNL     1       0.503   4.029  -0.295  0.00  0.00    +0.144 HD
ENDBRANCH  10  15
BRANCH  12  18
ATOM     18  C   UNL     1       3.438  -0.828   0.793  0.00  0.00    +0.091 C 
BRANCH  18  19
ATOM     19  C   UNL     1       4.309  -1.122  -0.430  0.00  0.00    +0.089 C 
BRANCH  19  20
ATOM     20  N   UNL     1       5.489  -1.893  -0.017  0.00  0.00    -0.309 NA
ATOM     21  H   UNL     1       6.069  -1.311   0.715  0.00  0.00    +0.123 HD
BRANCH  20  22
ATOM     22  C   UNL     1       6.351  -2.195  -1.168  0.00  0.00    +0.084 C 
ATOM     23  C   UNL     1       5.848  -3.462  -1.863  0.00  0.00    +0.029 C 
BRANCH  22  24
ATOM     24  C   UNL     1       7.765  -2.409  -0.695  0.00  0.00    +0.005 A 
ATOM     25  C   UNL     1       8.005  -2.819   0.604  0.00  0.00    +0.011 A 
ATOM     26  C   UNL     1       9.301  -3.015   1.039  0.00  0.00    +0.039 A 
ATOM     27  C   UNL     1      10.362  -2.801   0.175  0.00  0.00    +0.126 A 
ATOM     28  C   UNL     1      10.124  -2.391  -1.125  0.00  0.00    +0.077 A 
ATOM     29  C   UNL     1       8.824  -2.200  -1.562  0.00  0.00    +0.131 A 
ATOM     30  F   UNL     1       8.589  -1.805  -2.832  0.00  0.00    -0.205 F 
ATOM     31  F   UNL     1      11.630  -2.993   0.601  0.00  0.00    -0.205 F 
ENDBRANCH  22  24
ENDBRANCH  20  22
ENDBRANCH  19  20
ENDBRANCH  18  19
ENDBRANCH  12  18
TORSDOF 6
