REMARK  Name = ZINC12139910
REMARK  7 active torsions:
REMARK  status: ('A' for Active; 'I' for Inactive)
REMARK    1  A    between atoms: C_1  and  C_2
REMARK    2  A    between atoms: C_2  and  C_10
REMARK    3  A    between atoms: C_3  and  C_4
REMARK    4  A    between atoms: N_14  and  C_18
REMARK    5  A    between atoms: C_18  and  C_19
REMARK    6  A    between atoms: N_21  and  C_22
REMARK    7  A    between atoms: C_25  and  C_28
REMARK                            x       y       z     vdW  Elec       q    Type
REMARK                         _______ _______ _______ _____ _____    ______ ____
ROOT
ATOM      1  C   UNL     1       0.286   2.855   0.756  0.00  0.00    +0.023 C 
ATOM      2  C   UNL     1       0.953   1.677   0.591  0.00  0.00    +0.079 C 
ATOM      3  C   UNL     1       0.435   0.296   0.591  0.00  0.00    +0.261 C 
ATOM      4  O   UNL     1      -0.747   0.056   0.758  0.00  0.00    -0.269 OA
ATOM      5  N   UNL     1       1.319  -0.669   0.401  0.00  0.00    -0.219 N 
ATOM      6  C   UNL     1       2.627  -0.400   0.217  0.00  0.00    +0.286 C 
ATOM      7  O   UNL     1       3.541  -1.181   0.033  0.00  0.00    -0.262 OA
ATOM      8  S   UNL     1       2.693   1.382   0.309  0.00  0.00    -0.026 S 
ENDROOT
BRANCH   1  10
ATOM      9  C   UNL     1       2.390   4.087   0.099  0.00  0.00    +0.044 C 
ATOM     10  C   UNL     1       0.963   4.078   0.582  0.00  0.00    -0.049 C 
ATOM     11  C   UNL     1       0.332   5.246   0.849  0.00  0.00    +0.011 C 
BRANCH  11  12
ATOM     12  C   UNL     1       1.085   6.508   0.839  0.00  0.00    -0.025 A 
ATOM     13  C   UNL     1       2.411   6.539   1.286  0.00  0.00    +0.008 A 
ATOM     14  C   UNL     1       3.112   7.726   1.269  0.00  0.00    +0.001 A 
ATOM     15  C   UNL     1       2.505   8.887   0.822  0.00  0.00    +0.000 A 
ATOM     16  C   UNL     1       1.192   8.866   0.384  0.00  0.00    +0.001 A 
ATOM     17  C   UNL     1       0.479   7.686   0.389  0.00  0.00    +0.008 A 
ENDBRANCH  11  12
ENDBRANCH   1  10
BRANCH   5  18
ATOM     18  C   UNL     1       0.866  -2.063   0.390  0.00  0.00    +0.213 C 
BRANCH  18  19
ATOM     19  C   UNL     1       0.497  -2.460  -1.016  0.00  0.00    +0.235 C 
ATOM     20  O   UNL     1       0.601  -1.659  -1.920  0.00  0.00    -0.274 OA
ATOM     21  N   UNL     1       0.051  -3.707  -1.268  0.00  0.00    -0.284 N 
ATOM     22  H   UNL     1      -0.101  -4.325  -0.536  0.00  0.00    +0.155 HD
BRANCH  21  23
ATOM     23  C   UNL     1      -0.193  -4.107  -2.581  0.00  0.00    +0.033 A 
ATOM     24  C   UNL     1      -0.770  -3.218  -3.482  0.00  0.00    +0.024 A 
ATOM     25  C   UNL     1      -1.007  -3.609  -4.781  0.00  0.00    +0.017 A 
ATOM     26  C   UNL     1      -0.677  -4.904  -5.191  0.00  0.00    +0.063 A 
ATOM     27  C   UNL     1      -0.102  -5.796  -4.281  0.00  0.00    +0.017 A 
ATOM     28  C   UNL     1       0.138  -5.397  -2.986  0.00  0.00    +0.024 A 
BRANCH  26  29
ATOM     29  C   UNL     1      -0.935  -5.328  -6.580  0.00  0.00    +0.387 C 
ATOM     30  O   UNL     1      -0.648  -6.454  -6.934  0.00  0.00    -0.241 OA
ATOM     31  O   UNL     1      -1.489  -4.466  -7.455  0.00  0.00    -0.241 OA
ENDBRANCH  26  29
ENDBRANCH  21  23
ENDBRANCH  18  19
ENDBRANCH   5  18
TORSDOF 6
