REMARK  Name = ZINC36378548
REMARK  7 active torsions:
REMARK  status: ('A' for Active; 'I' for Inactive)
REMARK    1  A    between atoms: C_1  and  C_2
REMARK    2  A    between atoms: C_5  and  C_28
REMARK    3  A    between atoms: C_10  and  C_27
REMARK    4  A    between atoms: C_13  and  N_26
REMARK    5  A    between atoms: C_14  and  C_17
REMARK    6  A    between atoms: C_17  and  C_19
REMARK    7  A    between atoms: C_28  and  C_30
REMARK                            x       y       z     vdW  Elec       q    Type
REMARK                         _______ _______ _______ _____ _____    ______ ____
ROOT
ATOM      1  C   UNL     1      -0.029   1.638  -0.552  0.00  0.00    +0.047 C 
ATOM      2  C   UNL     1      -0.044   0.132  -0.593  0.00  0.00    -0.006 A 
ATOM      3  C   UNL     1      -0.077  -0.520  -1.808  0.00  0.00    +0.008 A 
ATOM      4  C   UNL     1      -0.091  -1.906  -1.870  0.00  0.00    +0.014 A 
ATOM      5  C   UNL     1      -0.073  -2.660  -0.701  0.00  0.00    +0.049 A 
ATOM      6  C   UNL     1      -0.039  -2.001   0.557  0.00  0.00    +0.118 A 
ATOM      7  C   UNL     1      -0.019  -0.593   0.597  0.00  0.00    +0.157 A 
ATOM      8  O   UNL     1       0.018   0.059   1.780  0.00  0.00    -0.451 OA
ATOM      9  C   UNL     1       0.041  -0.652   2.926  0.00  0.00    +0.161 A 
ATOM     10  C   UNL     1       0.078  -0.018   4.147  0.00  0.00    +0.042 A 
ATOM     11  C   UNL     1       0.102  -0.752   5.338  0.00  0.00    +0.207 A 
ATOM     12  O   UNL     1       0.134  -0.163   6.407  0.00  0.00    -0.286 OA
ATOM     13  C   UNL     1       0.088  -2.225   5.320  0.00  0.00    +0.085 A 
ATOM     14  C   UNL     1       0.051  -2.902   4.105  0.00  0.00    +0.073 A 
ATOM     15  C   UNL     1       0.026  -2.121   2.858  0.00  0.00    +0.120 A 
ATOM     16  N   UNL     1      -0.022  -2.721   1.685  0.00  0.00    -0.239 NA
ATOM     17  C   UNL     1       0.092   1.488   4.202  0.00  0.00    +0.052 C 
ENDROOT
BRANCH  13  18
ATOM     18  N   UNL     1       0.113  -2.929   6.499  0.00  0.00    -0.354 N 
ATOM     19  H   UNL     1       0.064  -2.458   7.345  0.00  0.00    +0.142 HD
ATOM     20  H   UNL     1       0.179  -3.896   6.485  0.00  0.00    +0.142 HD
ENDBRANCH  13  18
BRANCH  14  21
ATOM     21  C   UNL     1       0.038  -4.363   4.067  0.00  0.00    +0.196 C 
ATOM     22  O   UNL     1      -0.916  -4.973   4.504  0.00  0.00    -0.289 OA
BRANCH  21  23
ATOM     23  C   UNL     1       1.209  -5.113   3.486  0.00  0.00    +0.189 C 
ATOM     24  C   UNL     1       2.375  -5.088   4.478  0.00  0.00    +0.040 C 
ATOM     25  C   UNL     1       3.539  -5.902   3.906  0.00  0.00    +0.005 C 
ATOM     26  C   UNL     1       3.057  -7.326   3.612  0.00  0.00    +0.028 C 
ATOM     27  C   UNL     1       1.865  -7.264   2.654  0.00  0.00    +0.161 C 
ATOM     28  O   UNL     1       0.830  -6.467   3.232  0.00  0.00    -0.369 OA
ENDBRANCH  21  23
ENDBRANCH  14  21
BRANCH   5  29
ATOM     29  C   UNL     1      -0.089  -4.127  -0.768  0.00  0.00    +0.194 C 
ATOM     30  O   UNL     1       0.029  -4.782   0.247  0.00  0.00    -0.289 OA
BRANCH  29  31
ATOM     31  C   UNL     1      -0.251  -4.820  -2.096  0.00  0.00    +0.189 C 
ATOM     32  C   UNL     1      -1.709  -4.716  -2.552  0.00  0.00    +0.040 C 
ATOM     33  C   UNL     1      -1.878  -5.473  -3.873  0.00  0.00    +0.005 C 
ATOM     34  C   UNL     1      -1.433  -6.925  -3.676  0.00  0.00    +0.028 C 
ATOM     35  C   UNL     1       0.015  -6.944  -3.177  0.00  0.00    +0.161 C 
ATOM     36  O   UNL     1       0.108  -6.197  -1.963  0.00  0.00    -0.369 OA
ENDBRANCH  29  31
ENDBRANCH   5  29
TORSDOF 5
