REMARK  Name = ZINC21329066
REMARK  7 active torsions:
REMARK  status: ('A' for Active; 'I' for Inactive)
REMARK    1  A    between atoms: C_1  and  C_2
REMARK    2  A    between atoms: C_2  and  N_3
REMARK    3  A    between atoms: C_13  and  S_14
REMARK    4  A    between atoms: S_14  and  C_15
REMARK    5  A    between atoms: C_15  and  C_16
REMARK    6  A    between atoms: C_25  and  O_28
REMARK    7  A    between atoms: C_26  and  C_27
REMARK                            x       y       z     vdW  Elec       q    Type
REMARK                         _______ _______ _______ _____ _____    ______ ____
ROOT
ATOM      1  C   UNL     1      -1.321   2.216   0.020  0.00  0.00    +0.113 C 
ENDROOT
BRANCH   1   2
ATOM      2  C   UNL     1      -0.018   1.460   0.010  0.00  0.00    -0.020 A 
ATOM      3  C   UNL     1       1.171   2.118   0.002  0.00  0.00    +0.097 A 
ATOM      4  C   UNL     1       2.377   1.388  -0.014  0.00  0.00    +0.338 A 
ATOM      5  O   UNL     1       3.435   1.990  -0.021  0.00  0.00    -0.245 OA
ATOM      6  O   UNL     1       2.388   0.046  -0.021  0.00  0.00    -0.422 OA
ATOM      7  C   UNL     1       1.243  -0.669  -0.013  0.00  0.00    +0.146 A 
ATOM      8  C   UNL     1       0.002  -0.004   0.002  0.00  0.00    +0.022 A 
ATOM      9  C   UNL     1      -1.188  -0.741   0.009  0.00  0.00    +0.015 A 
ATOM     10  C   UNL     1      -1.140  -2.105   0.001  0.00  0.00    +0.046 A 
ATOM     11  C   UNL     1       0.085  -2.769  -0.014  0.00  0.00    +0.123 A 
ATOM     12  C   UNL     1       1.272  -2.055  -0.021  0.00  0.00    +0.034 A 
ATOM     13  C   UNL     1       2.591  -2.783  -0.038  0.00  0.00    +0.051 C 
BRANCH  11  14
ATOM     14  O   UNL     1       0.115  -4.126  -0.021  0.00  0.00    -0.506 OA
ATOM     15  H   UNL     1       1.079  -4.654  -0.033  0.00  0.00    +0.292 HD
ENDBRANCH  11  14
ENDBRANCH   1   2
BRANCH   1  16
ATOM     16  S   UNL     1      -1.835   2.510   1.731  0.00  0.00    -0.083 S 
BRANCH  16  27
ATOM     17  N   UNL     1      -4.063   3.795   2.536  0.00  0.00    -0.288 N 
ATOM     18  C   UNL     1      -5.222   4.474   2.369  0.00  0.00    +0.262 A 
ATOM     19  O   UNL     1      -5.876   4.851   3.324  0.00  0.00    -0.267 OA
ATOM     20  C   UNL     1      -5.663   4.734   0.992  0.00  0.00    +0.065 A 
ATOM     21  C   UNL     1      -6.845   5.420   0.714  0.00  0.00    +0.015 A 
ATOM     22  C   UNL     1      -7.209   5.635  -0.586  0.00  0.00    +0.001 A 
ATOM     23  C   UNL     1      -6.416   5.178  -1.631  0.00  0.00    +0.002 A 
ATOM     24  C   UNL     1      -5.253   4.503  -1.387  0.00  0.00    +0.028 A 
ATOM     25  C   UNL     1      -4.854   4.266  -0.068  0.00  0.00    +0.079 A 
ATOM     26  N   UNL     1      -3.714   3.605   0.217  0.00  0.00    -0.223 NA
ATOM     27  C   UNL     1      -3.339   3.384   1.453  0.00  0.00    +0.172 A 
BRANCH  17  29
ATOM     28  C   UNL     1      -2.688   4.650   4.368  0.00  0.00    +0.027 C 
ATOM     29  C   UNL     1      -3.579   3.503   3.888  0.00  0.00    +0.124 C 
ENDBRANCH  17  29
ENDBRANCH  16  27
ENDBRANCH   1  16
TORSDOF 5
