REMARK  Name = ZINC14140260
REMARK  11 active torsions:
REMARK  status: ('A' for Active; 'I' for Inactive)
REMARK    1  A    between atoms: C_1  and  C_2
REMARK    2  A    between atoms: C_2  and  C_3
REMARK    3  A    between atoms: C_3  and  C_4
REMARK    4  A    between atoms: C_4  and  N_5
REMARK    5  A    between atoms: C_6  and  N_36
REMARK    6  A    between atoms: C_7  and  N_14
REMARK    7  A    between atoms: N_14  and  C_15
REMARK    8  A    between atoms: C_15  and  C_16
REMARK    9  A    between atoms: C_22  and  C_24
REMARK   10  A    between atoms: C_24  and  N_25
REMARK   11  A    between atoms: C_33  and  C_35
REMARK                            x       y       z     vdW  Elec       q    Type
REMARK                         _______ _______ _______ _____ _____    ______ ____
ROOT
ATOM      1  N   UNL     1      -5.428  -3.375   2.286  0.00  0.00    -0.259 N 
ATOM      2  C   UNL     1      -4.957  -2.886   3.452  0.00  0.00    +0.234 C 
ATOM      3  O   UNL     1      -3.778  -2.626   3.569  0.00  0.00    -0.274 OA
ENDROOT
BRANCH   1   6
ATOM      4  N   UNL     1      -3.921  -2.818  -1.019  0.00  0.00    -0.280 N 
ATOM      5  C   UNL     1      -4.772  -2.692   0.054  0.00  0.00    +0.127 A 
ATOM      6  C   UNL     1      -4.572  -3.481   1.169  0.00  0.00    +0.140 A 
ATOM      7  C   UNL     1      -3.500  -4.393   1.173  0.00  0.00    +0.277 A 
ATOM      8  O   UNL     1      -3.301  -5.102   2.144  0.00  0.00    -0.266 OA
ATOM      9  N   UNL     1      -2.696  -4.477   0.095  0.00  0.00    -0.273 N 
ATOM     10  H   UNL     1      -1.956  -5.105   0.096  0.00  0.00    +0.173 HD
ATOM     11  C   UNL     1      -2.909  -3.704  -0.985  0.00  0.00    +0.331 A 
ATOM     12  O   UNL     1      -2.170  -3.804  -1.946  0.00  0.00    -0.246 OA
BRANCH   5  13
ATOM     13  N   UNL     1      -5.809  -1.791   0.017  0.00  0.00    -0.343 N 
ATOM     14  H   UNL     1      -5.910  -1.199  -0.744  0.00  0.00    +0.144 HD
ATOM     15  H   UNL     1      -6.440  -1.747   0.753  0.00  0.00    +0.144 HD
ENDBRANCH   5  13
BRANCH   4  16
ATOM     16  C   UNL     1      -4.122  -1.987  -2.208  0.00  0.00    +0.128 C 
BRANCH  16  17
ATOM     17  C   UNL     1      -5.056  -2.707  -3.182  0.00  0.00    +0.021 C 
BRANCH  17  19
ATOM     18  C   UNL     1      -6.200  -2.560  -5.399  0.00  0.00    +0.004 C 
ATOM     19  C   UNL     1      -5.265  -1.839  -4.425  0.00  0.00    -0.002 C 
ENDBRANCH  17  19
ENDBRANCH  16  17
ENDBRANCH   4  16
ENDBRANCH   1   6
BRANCH   1  20
ATOM     20  C   UNL     1      -6.827  -3.796   2.179  0.00  0.00    +0.149 C 
BRANCH  20  21
ATOM     21  C   UNL     1      -6.923  -5.282   2.409  0.00  0.00    -0.030 A 
ATOM     22  C   UNL     1      -6.728  -6.158   1.357  0.00  0.00    +0.005 A 
ATOM     23  C   UNL     1      -6.816  -7.521   1.567  0.00  0.00    +0.000 A 
ATOM     24  C   UNL     1      -7.099  -8.009   2.829  0.00  0.00    +0.000 A 
ATOM     25  C   UNL     1      -7.293  -7.134   3.881  0.00  0.00    +0.000 A 
ATOM     26  C   UNL     1      -7.201  -5.771   3.672  0.00  0.00    +0.005 A 
ENDBRANCH  20  21
ENDBRANCH   1  20
BRANCH   2  27
ATOM     27  C   UNL     1      -5.897  -2.662   4.609  0.00  0.00    +0.181 C 
BRANCH  27  28
ATOM     28  N   UNL     1      -5.177  -1.996   5.703  0.00  0.00    -0.284 NA
ATOM     29  C   UNL     1      -4.766  -0.640   5.314  0.00  0.00    +0.107 C 
ATOM     30  C   UNL     1      -3.709  -0.116   6.294  0.00  0.00    +0.137 C 
ATOM     31  N   UNL     1      -4.212  -0.315   7.659  0.00  0.00    -0.348 N 
ATOM     32  C   UNL     1      -3.769   0.263   8.805  0.00  0.00    +0.086 A 
ATOM     33  C   UNL     1      -4.519  -0.202   9.827  0.00  0.00    +0.019 A 
ATOM     34  C   UNL     1      -5.461  -1.103   9.287  0.00  0.00    +0.024 A 
ATOM     35  C   UNL     1      -5.251  -1.155   7.963  0.00  0.00    +0.036 A 
ATOM     36  C   UNL     1      -5.988  -1.974   6.933  0.00  0.00    +0.101 C 
ATOM     37  C   UNL     1      -6.184  -3.401   7.449  0.00  0.00    +0.031 C 
ENDBRANCH  27  28
ENDBRANCH   2  27
TORSDOF 9
