REMARK  Name = ZINC00627047
REMARK  10 active torsions:
REMARK  status: ('A' for Active; 'I' for Inactive)
REMARK    1  A    between atoms: C_1  and  C_2
REMARK    2  A    between atoms: C_3  and  C_26
REMARK    3  A    between atoms: C_4  and  C_16
REMARK    4  A    between atoms: C_10  and  C_14
REMARK    5  A    between atoms: C_10  and  C_15
REMARK    6  A    between atoms: C_18  and  O_24
REMARK    7  A    between atoms: C_19  and  O_23
REMARK    8  A    between atoms: O_24  and  C_25
REMARK    9  A    between atoms: C_26  and  O_28
REMARK   10  A    between atoms: O_28  and  C_29
REMARK                            x       y       z     vdW  Elec       q    Type
REMARK                         _______ _______ _______ _____ _____    ______ ____
ROOT
ATOM      1  C   UNL     1       7.626   2.771  -2.337  0.00  0.00    +0.061 C 
ATOM      2  C   UNL     1       6.785   2.377  -1.150  0.00  0.00    +0.016 C 
ATOM      3  C   UNL     1       5.716   1.580  -1.324  0.00  0.00    +0.065 C 
ATOM      4  C   UNL     1       4.851   1.175  -0.168  0.00  0.00    +0.092 C 
ATOM      5  C   UNL     1       5.561   1.396   1.144  0.00  0.00    +0.024 C 
ATOM      6  C   UNL     1       6.641   2.201   1.216  0.00  0.00    +0.016 C 
ATOM      7  N   UNL     1       7.113   2.833   0.096  0.00  0.00    -0.321 N 
ATOM      8  C   UNL     1       7.360   2.424   2.524  0.00  0.00    +0.058 C 
ATOM      9  C   UNL     1       6.365   2.317   3.682  0.00  0.00    -0.023 C 
ATOM     10  C   UNL     1       5.710   0.933   3.633  0.00  0.00    +0.086 C 
ATOM     11  C   UNL     1       5.064   0.744   2.287  0.00  0.00    +0.162 C 
ATOM     12  O   UNL     1       4.098   0.015   2.186  0.00  0.00    -0.292 OA
ATOM     13  C   UNL     1       5.293   3.399   3.539  0.00  0.00    +0.011 C 
ATOM     14  C   UNL     1       7.099   2.492   5.013  0.00  0.00    +0.011 C 
ATOM     15  H   UNL     1       7.762   3.714   0.206  0.00  0.00    +0.152 HD
ENDROOT
BRANCH   4  16
ATOM     16  C   UNL     1       3.583   1.990  -0.188  0.00  0.00    -0.030 A 
ATOM     17  C   UNL     1       2.358   1.358  -0.299  0.00  0.00    +0.054 A 
ATOM     18  C   UNL     1       1.192   2.106  -0.318  0.00  0.00    +0.163 A 
ATOM     19  C   UNL     1       1.257   3.493  -0.231  0.00  0.00    +0.173 A 
ATOM     20  C   UNL     1       2.488   4.120  -0.115  0.00  0.00    +0.063 A 
ATOM     21  C   UNL     1       3.648   3.367  -0.096  0.00  0.00    +0.023 A 
ATOM     22 BR   UNL     1       2.581   6.005   0.010  0.00  0.00    -0.046 Br
BRANCH  19  23
ATOM     23  O   UNL     1       0.115   4.232  -0.254  0.00  0.00    -0.503 OA
ATOM     24  H   UNL     1       0.168   5.328  -0.185  0.00  0.00    +0.292 HD
ENDBRANCH  19  23
BRANCH  18  25
ATOM     25  O   UNL     1      -0.013   1.486  -0.427  0.00  0.00    -0.491 OA
ATOM     26  C   UNL     1      -0.003   0.059  -0.519  0.00  0.00    +0.277 C 
ENDBRANCH  18  25
ENDBRANCH   4  16
BRANCH   3  27
ATOM     27  C   UNL     1       5.402   1.115  -2.622  0.00  0.00    +0.337 C 
ATOM     28  O   UNL     1       6.030   1.520  -3.582  0.00  0.00    -0.245 OA
BRANCH  27  29
ATOM     29  O   UNL     1       4.406   0.221  -2.796  0.00  0.00    -0.465 OA
ATOM     30  C   UNL     1       4.143  -0.206  -4.134  0.00  0.00    +0.280 C 
ENDBRANCH  27  29
ENDBRANCH   3  27
TORSDOF 5
