REMARK  Name = ZINC08927632
REMARK  6 active torsions:
REMARK  status: ('A' for Active; 'I' for Inactive)
REMARK    1  A    between atoms: C_1  and  C_2
REMARK    2  A    between atoms: C_2  and  N_45
REMARK    3  A    between atoms: C_10  and  O_24
REMARK    4  A    between atoms: C_12  and  C_15
REMARK    5  A    between atoms: C_19  and  C_22
REMARK    6  A    between atoms: C_20  and  O_21
REMARK                            x       y       z     vdW  Elec       q    Type
REMARK                         _______ _______ _______ _____ _____    ______ ____
ROOT
ATOM      1  C   UNL     1      -4.699   8.841   0.464  0.00  0.00    -0.074 C 
ATOM      2  C   UNL     1      -4.436   7.353   0.219  0.00  0.00    +0.018 C 
ATOM      3  C   UNL     1      -4.384   6.649   1.570  0.00  0.00    -0.027 A 
ATOM      4  C   UNL     1      -4.200   7.372   2.702  0.00  0.00    -0.021 A 
ATOM      5  S   UNL     1      -4.209   6.177   4.010  0.00  0.00    -0.080 S 
ATOM      6  C   UNL     1      -4.452   4.763   3.078  0.00  0.00    +0.080 A 
ATOM      7  C   UNL     1      -4.521   5.217   1.754  0.00  0.00    +0.067 A 
ATOM      8  C   UNL     1      -4.717   4.196   0.693  0.00  0.00    +0.220 C 
ATOM      9  N   UNL     1      -4.615   2.942   1.032  0.00  0.00    -0.223 NA
ATOM     10  C   UNL     1      -4.225   2.464   2.353  0.00  0.00    +0.227 C 
ATOM     11  N   UNL     1      -4.573   3.434   3.407  0.00  0.00    -0.313 N 
ATOM     12  C   UNL     1      -4.029   8.855   2.792  0.00  0.00    -0.035 C 
ATOM     13  H   UNL     1      -4.872   3.150   4.285  0.00  0.00    +0.149 HD
ATOM     14  N   UNL     1      -3.712   9.360   1.434  0.00  0.00    +0.383 N 
ATOM     15  H   UNL     1      -2.776   9.034   1.166  0.00  0.00    -0.081 HD
ENDROOT
BRANCH  10  16
ATOM     16  C   UNL     1      -2.736   2.232   2.371  0.00  0.00    +0.037 A 
ATOM     17  C   UNL     1      -2.014   2.464   3.526  0.00  0.00    +0.026 A 
ATOM     18  C   UNL     1      -0.647   2.252   3.543  0.00  0.00    +0.019 A 
ATOM     19  C   UNL     1      -0.000   1.806   2.405  0.00  0.00    +0.022 A 
ATOM     20  C   UNL     1      -0.718   1.572   1.248  0.00  0.00    -0.008 A 
ATOM     21  C   UNL     1      -2.088   1.790   1.227  0.00  0.00    +0.127 A 
ATOM     22  C   UNL     1      -0.013   1.086   0.008  0.00  0.00    +0.047 C 
ATOM     23 BR   UNL     1       0.338   2.571   5.125  0.00  0.00    -0.050 Br
BRANCH  21  24
ATOM     24  O   UNL     1      -2.795   1.566   0.088  0.00  0.00    -0.506 OA
ATOM     25  H   UNL     1      -3.137   0.665   0.008  0.00  0.00    +0.292 HD
ENDBRANCH  21  24
ENDBRANCH  10  16
BRANCH  14  27
ATOM     26  C   UNL     1      -5.134  11.361   1.720  0.00  0.00    -0.017 C 
ATOM     27  C   UNL     1      -3.726  10.838   1.428  0.00  0.00    -0.082 C 
ENDBRANCH  14  27
BRANCH   8  28
ATOM     28  O   UNL     1      -4.992   4.556  -0.582  0.00  0.00    -0.492 OA
ATOM     29  H   UNL     1      -5.101   3.809  -1.187  0.00  0.00    +0.294 HD
ENDBRANCH   8  28
TORSDOF 4
