REMARK  Name = ZINC67479914
REMARK  6 active torsions:
REMARK  status: ('A' for Active; 'I' for Inactive)
REMARK    1  A    between atoms: C_1  and  C_2
REMARK    2  A    between atoms: C_3  and  C_7
REMARK    3  A    between atoms: C_7  and  N_8
REMARK    4  A    between atoms: C_14  and  C_17
REMARK    5  A    between atoms: C_17  and  C_19
REMARK    6  A    between atoms: C_17  and  O_26
REMARK                            x       y       z     vdW  Elec       q    Type
REMARK                         _______ _______ _______ _____ _____    ______ ____
ROOT
ATOM      1  N   UNL     1       0.569   0.673  -5.128  0.00  0.00    -0.295 N 
ATOM      2  C   UNL     1       1.602   0.401  -4.305  0.00  0.00    +0.302 C 
ATOM      3  O   UNL     1       1.393   0.096  -3.147  0.00  0.00    -0.253 OA
ATOM      4  N   UNL     1       2.867   0.469  -4.766  0.00  0.00    -0.286 N 
ATOM      5  C   UNL     1       3.995   0.064  -3.917  0.00  0.00    +0.109 C 
ATOM      6  C   UNL     1       4.833  -0.974  -4.672  0.00  0.00    +0.025 C 
ATOM      7  C   UNL     1       5.242  -0.402  -6.031  0.00  0.00    +0.025 C 
ATOM      8  C   UNL     1       3.989  -0.100  -6.857  0.00  0.00    +0.025 C 
ATOM      9  C   UNL     1       3.142   0.942  -6.129  0.00  0.00    +0.109 C 
ATOM     10  H   UNL     1       0.738   0.988  -6.029  0.00  0.00    +0.151 HD
ENDROOT
BRANCH   1  11
ATOM     11  C   UNL     1      -0.807   0.492  -4.660  0.00  0.00    +0.150 C 
BRANCH  11  14
ATOM     12  C   UNL     1      -1.977  -1.379  -6.852  0.00  0.00    +0.066 C 
ATOM     13  C   UNL     1      -2.303   0.088  -6.739  0.00  0.00    +0.050 A 
ATOM     14  C   UNL     1      -1.765   0.862  -5.762  0.00  0.00    +0.029 A 
ATOM     15  S   UNL     1      -2.507   2.440  -6.147  0.00  0.00    -0.079 S 
ATOM     16  C   UNL     1      -3.406   1.953  -7.484  0.00  0.00    +0.156 A 
ATOM     17  N   UNL     1      -3.120   0.679  -7.588  0.00  0.00    -0.252 NA
ENDBRANCH  11  14
ENDBRANCH   1  11
BRANCH   7  18
ATOM     18  C   UNL     1       6.107  -1.423  -6.774  0.00  0.00    +0.148 C 
BRANCH  18  19
ATOM     19  C   UNL     1       6.510  -0.861  -8.112  0.00  0.00    -0.019 A 
ATOM     20  C   UNL     1       7.624  -0.048  -8.214  0.00  0.00    +0.007 A 
ATOM     21  C   UNL     1       7.994   0.468  -9.441  0.00  0.00    +0.020 A 
ATOM     22  C   UNL     1       7.249   0.171 -10.569  0.00  0.00    +0.041 A 
ATOM     23  C   UNL     1       6.135  -0.642 -10.467  0.00  0.00    +0.020 A 
ATOM     24  C   UNL     1       5.769  -1.162  -9.240  0.00  0.00    +0.007 A 
ATOM     25 CL   UNL     1       7.713   0.819 -12.111  0.00  0.00    -0.084 Cl
ENDBRANCH  18  19
BRANCH  18  26
ATOM     26  O   UNL     1       7.277  -1.705  -6.003  0.00  0.00    -0.387 OA
ATOM     27  H   UNL     1       7.832  -0.931  -5.833  0.00  0.00    +0.210 HD
ENDBRANCH  18  26
ENDBRANCH   7  18
TORSDOF 5
