REMARK  Name = ZINC09779732
REMARK  6 active torsions:
REMARK  status: ('A' for Active; 'I' for Inactive)
REMARK    1  A    between atoms: C_3  and  N_24
REMARK    2  A    between atoms: C_6  and  C_7
REMARK    3  A    between atoms: N_9  and  N_10
REMARK    4  A    between atoms: C_11  and  C_13
REMARK    5  A    between atoms: C_13  and  O_14
REMARK    6  A    between atoms: O_14  and  C_15
REMARK                            x       y       z     vdW  Elec       q    Type
REMARK                         _______ _______ _______ _____ _____    ______ ____
ROOT
ATOM      1  N   UNL     1       2.366   1.217  -0.014  0.00  0.00    -0.231 N 
ATOM      2  C   UNL     1       3.524   1.907  -0.021  0.00  0.00    +0.267 C 
ATOM      3  O   UNL     1       3.508   3.119  -0.015  0.00  0.00    -0.271 OA
ATOM      4  H   UNL     1       2.379   0.247  -0.019  0.00  0.00    +0.173 HD
ENDROOT
BRANCH   1   7
ATOM      5  C   UNL     1      -0.014   1.211   0.009  0.00  0.00    +0.260 C 
ATOM      6  O   UNL     1       0.002  -0.004   0.002  0.00  0.00    -0.269 OA
ATOM      7  N   UNL     1       1.143   1.901   0.001  0.00  0.00    -0.230 N 
ATOM      8  H   UNL     1       1.130   2.871   0.007  0.00  0.00    +0.173 HD
BRANCH   5  14
ATOM      9  C   UNL     1      -1.327   3.329   0.032  0.00  0.00    +0.015 A 
ATOM     10  C   UNL     1      -2.534   3.996   0.036  0.00  0.00    +0.033 A 
ATOM     11  C   UNL     1      -3.721   3.285   0.038  0.00  0.00    +0.126 A 
ATOM     12  C   UNL     1      -3.706   1.901   0.030  0.00  0.00    +0.033 A 
ATOM     13  C   UNL     1      -2.506   1.222   0.021  0.00  0.00    +0.015 A 
ATOM     14  C   UNL     1      -1.305   1.933   0.019  0.00  0.00    +0.038 A 
BRANCH  11  15
ATOM     15  N   UNL     1      -5.013   4.008   0.048  0.00  0.00    +0.056 N 
ATOM     16  O   UNL     1      -6.060   3.384   0.050  0.00  0.00    -0.126 OA
ATOM     17  O   UNL     1      -5.030   5.225   0.056  0.00  0.00    -0.126 OA
ENDBRANCH  11  15
ENDBRANCH   5  14
ENDBRANCH   1   7
BRANCH   2  18
ATOM     18  C   UNL     1       4.839   1.171  -0.038  0.00  0.00    +0.326 C 
BRANCH  18  19
ATOM     19  O   UNL     1       5.913   2.115  -0.043  0.00  0.00    -0.480 OA
BRANCH  19  20
ATOM     20  C   UNL     1       7.176   1.612  -0.058  0.00  0.00    +0.153 A 
ATOM     21  C   UNL     1       7.835   1.354   1.136  0.00  0.00    +0.085 A 
ATOM     22  C   UNL     1       9.118   0.838   1.119  0.00  0.00    +0.043 A 
ATOM     23  C   UNL     1       9.748   0.589  -0.088  0.00  0.00    +0.044 A 
ATOM     24  C   UNL     1       9.095   0.851  -1.279  0.00  0.00    +0.039 A 
ATOM     25  C   UNL     1       7.810   1.362  -1.266  0.00  0.00    +0.062 A 
ATOM     26 BR   UNL     1       6.918   1.720  -2.895  0.00  0.00    -0.046 Br
ATOM     27 CL   UNL     1      11.361  -0.052  -0.107  0.00  0.00    -0.083 Cl
ATOM     28 CL   UNL     1       7.048   1.673   2.650  0.00  0.00    -0.080 Cl
ENDBRANCH  19  20
ENDBRANCH  18  19
ENDBRANCH   2  18
TORSDOF 6
