REMARK  Name = ZINC08888797
REMARK  11 active torsions:
REMARK  status: ('A' for Active; 'I' for Inactive)
REMARK    1  A    between atoms: C_1  and  C_2
REMARK    2  A    between atoms: C_5  and  C_9
REMARK    3  A    between atoms: C_7  and  C_8
REMARK    4  A    between atoms: C_9  and  C_11
REMARK    5  A    between atoms: C_9  and  N_12
REMARK    6  A    between atoms: C_13  and  C_15
REMARK    7  A    between atoms: C_15  and  O_16
REMARK    8  A    between atoms: O_16  and  C_17
REMARK    9  A    between atoms: C_17  and  C_19
REMARK   10  A    between atoms: C_19  and  C_20
REMARK   11  A    between atoms: C_20  and  C_21
REMARK                            x       y       z     vdW  Elec       q    Type
REMARK                         _______ _______ _______ _____ _____    ______ ____
ROOT
ATOM      1  C   UNL     1      -2.439   9.223  -5.721  0.00  0.00    +0.308 C 
ATOM      2  O   UNL     1      -2.581   8.860  -6.864  0.00  0.00    -0.251 OA
ENDROOT
BRANCH   1   3
ATOM      3  O   UNL     1      -2.551  10.524  -5.412  0.00  0.00    -0.455 OA
BRANCH   3   4
ATOM      4  C   UNL     1      -2.844  11.438  -6.501  0.00  0.00    +0.327 C 
BRANCH   4   6
ATOM      5  N   UNL     1      -3.198  13.867  -6.804  0.00  0.00    -0.306 N 
ATOM      6  C   UNL     1      -2.933  12.845  -5.968  0.00  0.00    +0.251 C 
ATOM      7  O   UNL     1      -2.765  13.056  -4.785  0.00  0.00    -0.272 OA
ATOM      8  H   UNL     1      -3.332  13.698  -7.750  0.00  0.00    +0.149 HD
BRANCH   5   9
ATOM      9  C   UNL     1      -3.284  15.235  -6.285  0.00  0.00    +0.100 C 
ATOM     10  C   UNL     1      -4.697  15.492  -5.758  0.00  0.00    +0.033 C 
BRANCH   9  15
ATOM     11  C   UNL     1      -2.097  18.981 -10.521  0.00  0.00    +0.044 C 
ATOM     12  C   UNL     1      -2.406  18.004  -9.417  0.00  0.00    -0.048 A 
ATOM     13  C   UNL     1      -3.169  16.882  -9.680  0.00  0.00    +0.004 A 
ATOM     14  C   UNL     1      -3.450  15.984  -8.668  0.00  0.00    +0.006 A 
ATOM     15  C   UNL     1      -2.974  16.212  -7.390  0.00  0.00    -0.027 A 
ATOM     16  C   UNL     1      -2.211  17.333  -7.127  0.00  0.00    +0.009 A 
ATOM     17  C   UNL     1      -1.926  18.230  -8.140  0.00  0.00    -0.047 A 
ATOM     18  C   UNL     1      -1.094  19.453  -7.853  0.00  0.00    +0.044 C 
ENDBRANCH   9  15
ENDBRANCH   5   9
ENDBRANCH   4   6
ENDBRANCH   3   4
ENDBRANCH   1   3
BRANCH   1  19
ATOM     19  C   UNL     1      -2.136   8.216  -4.642  0.00  0.00    +0.128 C 
BRANCH  19  20
ATOM     20  C   UNL     1      -2.062   6.816  -5.257  0.00  0.00    +0.085 C 
BRANCH  20  21
ATOM     21  C   UNL     1      -1.759   5.809  -4.178  0.00  0.00    +0.111 A 
ATOM     22  N   UNL     1      -1.651   4.504  -4.524  0.00  0.00    -0.310 N 
ATOM     23  H   UNL     1      -1.773   4.261  -5.456  0.00  0.00    +0.170 HD
ATOM     24  C   UNL     1      -1.382   3.522  -3.632  0.00  0.00    +0.260 A 
ATOM     25  O   UNL     1      -1.288   2.352  -3.962  0.00  0.00    -0.267 OA
ATOM     26  C   UNL     1      -1.213   3.947  -2.271  0.00  0.00    +0.075 A 
ATOM     27  C   UNL     1      -0.921   3.104  -1.126  0.00  0.00    -0.023 A 
ATOM     28  C   UNL     1      -0.803   3.725   0.071  0.00  0.00    -0.004 A 
ATOM     29  S   UNL     1      -1.074   5.446  -0.270  0.00  0.00    -0.073 S 
ATOM     30  C   UNL     1      -1.343   5.329  -2.010  0.00  0.00    +0.116 A 
ATOM     31  N   UNL     1      -1.610   6.237  -2.944  0.00  0.00    -0.227 NA
ATOM     32  C   UNL     1      -0.510   3.093   1.397  0.00  0.00    +0.043 C 
ATOM     33  C   UNL     1      -0.726   1.578   1.270  0.00  0.00    +0.005 C 
ATOM     34  C   UNL     1      -0.013   1.086   0.008  0.00  0.00    +0.005 C 
ATOM     35  C   UNL     1      -0.749   1.591  -1.233  0.00  0.00    +0.037 C 
ENDBRANCH  20  21
ENDBRANCH  19  20
ENDBRANCH   1  19
TORSDOF 8
