REMARK  Name = ZINC02680188
REMARK  13 active torsions:
REMARK  status: ('A' for Active; 'I' for Inactive)
REMARK    1  A    between atoms: C_1  and  C_2
REMARK    2  A    between atoms: C_3  and  C_32
REMARK    3  A    between atoms: C_4  and  N_11
REMARK    4  A    between atoms: C_6  and  C_7
REMARK    5  A    between atoms: C_7  and  O_9
REMARK    6  A    between atoms: O_9  and  C_10
REMARK    7  A    between atoms: C_12  and  C_14
REMARK    8  A    between atoms: C_14  and  S_15
REMARK    9  A    between atoms: S_15  and  C_16
REMARK   10  A    between atoms: N_28  and  C_29
REMARK   11  A    between atoms: C_29  and  C_30
REMARK   12  A    between atoms: C_32  and  O_34
REMARK   13  A    between atoms: O_34  and  C_35
REMARK                            x       y       z     vdW  Elec       q    Type
REMARK                         _______ _______ _______ _____ _____    ______ ____
ROOT
ATOM      1  N   UNL     1       0.033  -3.047  -2.112  0.00  0.00    -0.279 N 
ATOM      2  C   UNL     1       0.052  -4.365  -1.832  0.00  0.00    +0.228 C 
ATOM      3  O   UNL     1       0.063  -4.740  -0.679  0.00  0.00    -0.275 OA
ATOM      4  H   UNL     1       0.024  -2.747  -3.034  0.00  0.00    +0.155 HD
ENDROOT
BRANCH   1   8
ATOM      5  C   UNL     1      -0.018   1.503   0.010  0.00  0.00    +0.046 C 
ATOM      6  C   UNL     1       0.002  -0.004   0.002  0.00  0.00    -0.014 A 
ATOM      7  C   UNL     1       0.006  -0.730  -1.181  0.00  0.00    +0.091 A 
ATOM      8  C   UNL     1       0.025  -2.123  -1.085  0.00  0.00    +0.087 A 
ATOM      9  S   UNL     1       0.037  -2.413   0.569  0.00  0.00    -0.066 S 
ATOM     10  C   UNL     1       0.024  -0.733   1.162  0.00  0.00    +0.102 A 
BRANCH  10  11
ATOM     11  C   UNL     1       0.031  -0.252   2.543  0.00  0.00    +0.346 C 
ATOM     12  O   UNL     1       0.018   0.943   2.770  0.00  0.00    -0.244 OA
BRANCH  11  13
ATOM     13  O   UNL     1       0.053  -1.133   3.564  0.00  0.00    -0.464 OA
ATOM     14  C   UNL     1       0.060  -0.593   4.887  0.00  0.00    +0.280 C 
ENDBRANCH  11  13
ENDBRANCH  10  11
BRANCH   7  15
ATOM     15  C   UNL     1      -0.010  -0.058  -2.485  0.00  0.00    +0.342 C 
ATOM     16  O   UNL     1       1.036   0.236  -3.031  0.00  0.00    -0.245 OA
BRANCH  15  17
ATOM     17  O   UNL     1      -1.185   0.235  -3.078  0.00  0.00    -0.464 OA
ATOM     18  C   UNL     1      -1.126   0.890  -4.347  0.00  0.00    +0.280 C 
ENDBRANCH  15  17
ENDBRANCH   7  15
ENDBRANCH   1   8
BRANCH   2  19
ATOM     19  C   UNL     1       0.060  -5.373  -2.952  0.00  0.00    +0.173 C 
BRANCH  19  20
ATOM     20  S   UNL     1       0.086  -7.049  -2.257  0.00  0.00    -0.078 S 
BRANCH  20  21
ATOM     21  C   UNL     1       0.094  -8.097  -3.673  0.00  0.00    +0.173 A 
ATOM     22  N   UNL     1       0.086  -7.562  -4.878  0.00  0.00    -0.216 NA
ATOM     23  C   UNL     1       0.091  -8.330  -5.961  0.00  0.00    +0.117 A 
ATOM     24  C   UNL     1       0.104  -9.730  -5.883  0.00  0.00    +0.076 A 
ATOM     25  C   UNL     1       0.109 -10.449  -7.168  0.00  0.00    -0.023 A 
ATOM     26  C   UNL     1       0.102  -9.700  -8.282  0.00  0.00    -0.004 A 
ATOM     27  S   UNL     1       0.085  -8.018  -7.707  0.00  0.00    -0.073 S 
ATOM     28  C   UNL     1       0.112 -10.541  -9.531  0.00  0.00    +0.043 C 
ATOM     29  C   UNL     1       0.562 -11.939  -9.054  0.00  0.00    +0.010 C 
ATOM     30  C   UNL     1       0.117 -11.924  -7.578  0.00  0.00    +0.037 C 
ATOM     31  C   UNL     1       0.113 -10.285  -4.564  0.00  0.00    +0.263 A 
ATOM     32  O   UNL     1       0.125 -11.493  -4.401  0.00  0.00    -0.267 OA
ATOM     33  N   UNL     1       0.113  -9.452  -3.507  0.00  0.00    -0.283 N 
BRANCH  33  34
ATOM     34  C   UNL     1       0.127 -10.009  -2.152  0.00  0.00    +0.154 C 
BRANCH  34  35
ATOM     35  C   UNL     1      -1.288 -10.220  -1.681  0.00  0.00    -0.013 C 
ATOM     36  C   UNL     1      -1.671 -11.401  -1.263  0.00  0.00    +0.005 C 
ENDBRANCH  34  35
ENDBRANCH  33  34
ENDBRANCH  20  21
ENDBRANCH  19  20
ENDBRANCH   2  19
TORSDOF 10
