REMARK  Name = ZINC39327575
REMARK  8 active torsions:
REMARK  status: ('A' for Active; 'I' for Inactive)
REMARK    1  A    between atoms: C_1  and  C_2
REMARK    2  A    between atoms: C_4  and  C_16
REMARK    3  A    between atoms: C_6  and  C_14
REMARK    4  A    between atoms: C_7  and  N_13
REMARK    5  A    between atoms: C_19  and  O_24
REMARK    6  A    between atoms: C_20  and  O_22
REMARK    7  A    between atoms: O_22  and  C_23
REMARK    8  A    between atoms: O_24  and  C_25
REMARK                            x       y       z     vdW  Elec       q    Type
REMARK                         _______ _______ _______ _____ _____    ______ ____
ROOT
ATOM      1  C   UNL     1       0.223   1.012   0.051  0.00  0.00    +0.067 C 
ATOM      2  C   UNL     1      -0.017  -0.471  -0.074  0.00  0.00    +0.066 C 
ATOM      3  C   UNL     1      -1.198  -1.040  -0.099  0.00  0.00    +0.030 C 
ATOM      4  C   UNL     1      -2.603  -0.508  -0.156  0.00  0.00    +0.098 C 
ATOM      5  C   UNL     1      -3.335  -1.395  -1.146  0.00  0.00    +0.097 C 
ATOM      6  C   UNL     1      -2.775  -2.520  -1.638  0.00  0.00    +0.195 C 
ATOM      7  O   UNL     1      -1.544  -2.991  -1.366  0.00  0.00    -0.448 OA
ATOM      8  C   UNL     1      -0.915  -2.541  -0.163  0.00  0.00    +0.343 C 
ATOM      9  N   UNL     1       0.548  -2.572  -0.257  0.00  0.00    -0.138 NA
ATOM     10  N   UNL     1       0.960  -1.408  -0.184  0.00  0.00    -0.155 NA
ENDROOT
BRANCH   4  11
ATOM     11  C   UNL     1      -3.249  -0.596   1.203  0.00  0.00    -0.031 A 
ATOM     12  C   UNL     1      -3.388  -1.825   1.822  0.00  0.00    +0.008 A 
ATOM     13  C   UNL     1      -3.979  -1.911   3.068  0.00  0.00    +0.050 A 
ATOM     14  C   UNL     1      -4.435  -0.765   3.700  0.00  0.00    +0.162 A 
ATOM     15  C   UNL     1      -4.295   0.471   3.077  0.00  0.00    +0.162 A 
ATOM     16  C   UNL     1      -3.697   0.551   1.830  0.00  0.00    +0.054 A 
BRANCH  15  17
ATOM     17  O   UNL     1      -4.741   1.599   3.693  0.00  0.00    -0.491 OA
ATOM     18  C   UNL     1      -4.564   2.833   2.994  0.00  0.00    +0.277 C 
ENDBRANCH  15  17
BRANCH  14  19
ATOM     19  O   UNL     1      -5.018  -0.849   4.926  0.00  0.00    -0.485 OA
BRANCH  19  20
ATOM     20  C   UNL     1      -5.019  -2.130   5.558  0.00  0.00    +0.174 C 
ATOM     21  C   UNL     1      -6.252  -2.941   5.107  0.00  0.00    +0.044 C 
ATOM     22  C   UNL     1      -6.684  -3.713   6.378  0.00  0.00    +0.004 C 
ATOM     23  C   UNL     1      -6.434  -2.682   7.507  0.00  0.00    +0.004 C 
ATOM     24  C   UNL     1      -5.135  -1.966   7.084  0.00  0.00    +0.044 C 
ENDBRANCH  19  20
ENDBRANCH  14  19
ENDBRANCH   4  11
BRANCH   6  25
ATOM     25  N   UNL     1      -3.540  -3.261  -2.503  0.00  0.00    -0.329 N 
ATOM     26  H   UNL     1      -4.435  -2.966  -2.733  0.00  0.00    +0.145 HD
ATOM     27  H   UNL     1      -3.185  -4.079  -2.886  0.00  0.00    +0.145 HD
ENDBRANCH   6  25
BRANCH   5  28
ATOM     28  C   UNL     1      -4.653  -1.029  -1.569  0.00  0.00    +0.101 C 
ATOM     29  N   UNL     1      -5.699  -0.739  -1.905  0.00  0.00    -0.191 NA
ENDBRANCH   5  28
TORSDOF 6
