REMARK  Name = ZINC44714122
REMARK  12 active torsions:
REMARK  status: ('A' for Active; 'I' for Inactive)
REMARK    1  A    between atoms: C_1  and  C_2
REMARK    2  A    between atoms: C_2  and  C_3
REMARK    3  A    between atoms: C_3  and  C_4
REMARK    4  A    between atoms: C_4  and  C_5
REMARK    5  A    between atoms: C_5  and  C_7
REMARK    6  A    between atoms: C_5  and  C_8
REMARK    7  A    between atoms: C_12  and  C_21
REMARK    8  A    between atoms: N_23  and  C_24
REMARK    9  A    between atoms: C_24  and  C_26
REMARK   10  A    between atoms: C_24  and  C_27
REMARK   11  A    between atoms: C_28  and  C_34
REMARK   12  A    between atoms: C_32  and  C_33
REMARK                            x       y       z     vdW  Elec       q    Type
REMARK                         _______ _______ _______ _____ _____    ______ ____
ROOT
ATOM      1  C   UNL     1      -2.990  -4.337   0.307  0.00  0.00    +0.218 C 
ATOM      2  O   UNL     1      -1.997  -4.999   0.522  0.00  0.00    -0.275 OA
ATOM      3  N   UNL     1      -4.179  -4.945   0.126  0.00  0.00    -0.300 N 
ATOM      4  C   UNL     1      -5.469  -4.323  -0.253  0.00  0.00    +0.121 C 
ATOM      5  C   UNL     1      -6.114  -5.327  -1.234  0.00  0.00    +0.100 C 
ATOM      6  C   UNL     1      -5.470  -6.680  -0.890  0.00  0.00    -0.004 C 
ATOM      7  C   UNL     1      -4.490  -6.389   0.256  0.00  0.00    +0.115 C 
ATOM      8  C   UNL     1      -4.713  -7.227  -2.097  0.00  0.00    -0.010 C 
ATOM      9  C   UNL     1      -4.129  -8.599  -1.749  0.00  0.00    -0.082 C 
ATOM     10  N   UNL     1      -5.214  -9.513  -1.372  0.00  0.00    +0.379 N 
ATOM     11  C   UNL     1      -5.878  -9.027  -0.156  0.00  0.00    -0.082 C 
ATOM     12  C   UNL     1      -6.535  -7.673  -0.436  0.00  0.00    -0.010 C 
ATOM     13  H   UNL     1      -5.886  -9.563  -2.123  0.00  0.00    -0.086 HD
ATOM     14  H   UNL     1      -4.835 -10.432  -1.202  0.00  0.00    -0.086 HD
ENDROOT
BRANCH   5  15
ATOM     15  C   UNL     1      -7.605  -5.384  -1.022  0.00  0.00    +0.219 C 
ATOM     16  O   UNL     1      -8.071  -5.159   0.074  0.00  0.00    -0.275 OA
ATOM     17  N   UNL     1      -8.421  -5.685  -2.052  0.00  0.00    -0.308 N 
ATOM     18  H   UNL     1      -8.048  -5.865  -2.930  0.00  0.00    +0.149 HD
BRANCH  17  19
ATOM     19  C   UNL     1      -9.870  -5.741  -1.847  0.00  0.00    +0.104 C 
ATOM     20  C   UNL     1     -10.459  -4.335  -1.983  0.00  0.00    +0.033 C 
BRANCH  19  21
ATOM     21  C   UNL     1     -10.490  -6.647  -2.879  0.00  0.00    +0.015 A 
ATOM     22  C   UNL     1     -11.430  -7.592  -2.647  0.00  0.00    +0.038 A 
ATOM     23  N   UNL     1     -11.719  -8.182  -3.826  0.00  0.00    -0.281 N 
ATOM     24  H   UNL     1     -12.360  -8.897  -3.964  0.00  0.00    +0.189 HD
ATOM     25  N   UNL     1     -10.931  -7.580  -4.815  0.00  0.00    -0.179 NA
ATOM     26  C   UNL     1     -10.199  -6.655  -4.247  0.00  0.00    +0.065 A 
ATOM     27  C   UNL     1      -9.210  -5.758  -4.946  0.00  0.00    +0.068 C 
ATOM     28  C   UNL     1     -12.043  -7.927  -1.312  0.00  0.00    +0.065 C 
ENDBRANCH  19  21
ENDBRANCH  17  19
ENDBRANCH   5  15
BRANCH   1  29
ATOM     29  C   UNL     1      -2.894  -2.834   0.240  0.00  0.00    +0.072 C 
ATOM     30  C   UNL     1      -2.587  -2.406  -1.196  0.00  0.00    +0.017 C 
BRANCH  29  31
ATOM     31  C   UNL     1      -1.776  -2.353   1.167  0.00  0.00    +0.012 C 
BRANCH  31  32
ATOM     32  C   UNL     1      -1.760  -0.824   1.196  0.00  0.00    +0.000 C 
BRANCH  32  34
ATOM     33  C   UNL     1      -0.626   1.187   2.151  0.00  0.00    +0.004 C 
ATOM     34  C   UNL     1      -0.642  -0.343   2.123  0.00  0.00    -0.003 C 
ENDBRANCH  32  34
ENDBRANCH  31  32
ENDBRANCH  29  31
ENDBRANCH   1  29
TORSDOF 7
