REMARK  Name = ZINC64516708
REMARK  13 active torsions:
REMARK  status: ('A' for Active; 'I' for Inactive)
REMARK    1  A    between atoms: C_1  and  C_2
REMARK    2  A    between atoms: C_2  and  O_3
REMARK    3  A    between atoms: O_3  and  C_4
REMARK    4  A    between atoms: C_4  and  C_6
REMARK    5  A    between atoms: C_7  and  C_36
REMARK    6  A    between atoms: N_8  and  C_35
REMARK    7  A    between atoms: C_9  and  C_34
REMARK    8  A    between atoms: C_10  and  S_11
REMARK    9  A    between atoms: S_11  and  N_14
REMARK   10  A    between atoms: C_17  and  C_20
REMARK   11  A    between atoms: N_22  and  C_23
REMARK   12  A    between atoms: C_23  and  C_24
REMARK   13  A    between atoms: C_24  and  C_25
REMARK                            x       y       z     vdW  Elec       q    Type
REMARK                         _______ _______ _______ _____ _____    ______ ____
ROOT
ATOM      1  N   UNL     1      -3.677  -1.084   3.366  0.00  0.00    -0.176 NA
ATOM      2  C   UNL     1      -2.791   0.078   3.219  0.00  0.00    +0.110 C 
ATOM      3  C   UNL     1      -2.663   0.776   4.577  0.00  0.00    +0.030 C 
ATOM      4  C   UNL     1      -4.059   1.112   5.107  0.00  0.00    +0.077 C 
ATOM      5  C   UNL     1      -4.858  -0.178   5.300  0.00  0.00    +0.030 C 
ATOM      6  C   UNL     1      -5.013  -0.886   3.945  0.00  0.00    +0.110 C 
ENDROOT
BRANCH   4   7
ATOM      7  C   UNL     1      -3.936   1.829   6.427  0.00  0.00    +0.216 C 
ATOM      8  O   UNL     1      -2.840   2.049   6.897  0.00  0.00    -0.276 OA
ATOM      9  N   UNL     1      -5.044   2.226   7.084  0.00  0.00    -0.315 N 
ATOM     10  H   UNL     1      -5.920   2.050   6.707  0.00  0.00    +0.149 HD
BRANCH   9  11
ATOM     11  C   UNL     1      -4.924   2.922   8.367  0.00  0.00    +0.108 C 
BRANCH  11  12
ATOM     12  C   UNL     1      -6.320   3.259   8.896  0.00  0.00    +0.065 C 
BRANCH  12  13
ATOM     13  C   UNL     1      -6.195   3.987  10.236  0.00  0.00    +0.175 C 
ATOM     14  N   UNL     1      -5.602   5.315  10.036  0.00  0.00    -0.363 N 
ATOM     15  C   UNL     1      -6.470   6.196  10.441  0.00  0.00    +0.060 A 
ATOM     16  C   UNL     1      -6.454   7.664  10.493  0.00  0.00    +0.027 A 
ATOM     17  C   UNL     1      -7.526   8.324  10.977  0.00  0.00    +0.002 A 
ATOM     18  C   UNL     1      -8.676   7.664  11.443  0.00  0.00    +0.002 A 
ATOM     19  C   UNL     1      -8.795   6.321  11.440  0.00  0.00    +0.027 A 
ATOM     20  C   UNL     1      -7.688   5.497  10.935  0.00  0.00    +0.060 A 
ATOM     21  N   UNL     1      -7.526   4.211  10.814  0.00  0.00    -0.363 N 
ATOM     22  H   UNL     1      -4.724   5.502   9.668  0.00  0.00    +0.162 HD
ATOM     23  H   UNL     1      -8.167   3.526  11.061  0.00  0.00    +0.162 HD
ENDBRANCH  12  13
ENDBRANCH  11  12
ENDBRANCH   9  11
ENDBRANCH   4   7
BRANCH   1  24
ATOM     24  S   UNL     1      -3.182  -2.589   2.883  0.00  0.00    +0.063 S 
ATOM     25  O   UNL     1      -3.953  -3.527   3.622  0.00  0.00    -0.153 OA
ATOM     26  O   UNL     1      -1.762  -2.578   2.912  0.00  0.00    -0.153 OA
BRANCH  24  31
ATOM     27  C   UNL     1      -2.849  -2.418   0.016  0.00  0.00    +0.106 A 
ATOM     28  C   UNL     1      -3.619  -2.745  -1.079  0.00  0.00    +0.031 A 
ATOM     29  N   UNL     1      -4.787  -3.248  -0.636  0.00  0.00    -0.349 N 
ATOM     30  C   UNL     1      -4.811  -3.264   0.728  0.00  0.00    +0.043 A 
ATOM     31  C   UNL     1      -3.649  -2.773   1.194  0.00  0.00    +0.140 A 
ATOM     32  C   UNL     1      -5.954  -3.758   1.577  0.00  0.00    +0.065 C 
ATOM     33  C   UNL     1      -5.877  -3.714  -1.497  0.00  0.00    +0.149 C 
ATOM     34  C   UNL     1      -3.224  -2.569  -2.522  0.00  0.00    +0.064 C 
BRANCH  27  35
ATOM     35  C   UNL     1      -1.497  -1.837   0.006  0.00  0.00    +0.343 C 
ATOM     36  O   UNL     1      -0.523  -2.564  -0.007  0.00  0.00    -0.245 OA
BRANCH  35  37
ATOM     37  O   UNL     1      -1.339  -0.499   0.012  0.00  0.00    -0.461 OA
BRANCH  37  39
ATOM     38  C   UNL     1      -0.019   1.526   0.010  0.00  0.00    +0.048 C 
ATOM     39  C   UNL     1       0.002  -0.004   0.002  0.00  0.00    +0.229 C 
ENDBRANCH  37  39
ENDBRANCH  35  37
ENDBRANCH  27  35
ENDBRANCH  24  31
ENDBRANCH   1  24
TORSDOF 9
