REMARK  Name = ZINC39674227
REMARK  7 active torsions:
REMARK  status: ('A' for Active; 'I' for Inactive)
REMARK    1  A    between atoms: C_1  and  C_2
REMARK    2  A    between atoms: C_4  and  C_9
REMARK    3  A    between atoms: C_5  and  C_8
REMARK    4  A    between atoms: C_9  and  C_11
REMARK    5  A    between atoms: C_9  and  N_12
REMARK    6  A    between atoms: C_13  and  C_15
REMARK    7  A    between atoms: C_26  and  C_28
REMARK                            x       y       z     vdW  Elec       q    Type
REMARK                         _______ _______ _______ _____ _____    ______ ____
ROOT
ATOM      1  C   UNL     1       0.310   3.078  -4.242  0.00  0.00    +0.100 C 
ATOM      2  C   UNL     1      -1.094   3.595  -3.858  0.00  0.00    +0.121 C 
ATOM      3  N   UNL     1      -1.470   4.511  -4.960  0.00  0.00    -0.296 N 
ATOM      4  C   UNL     1      -0.972   3.840  -6.184  0.00  0.00    +0.115 C 
ATOM      5  C   UNL     1       0.387   3.240  -5.770  0.00  0.00    -0.004 C 
ATOM      6  C   UNL     1       0.588   1.882  -6.436  0.00  0.00    -0.010 C 
ATOM      7  C   UNL     1       0.719   2.075  -7.949  0.00  0.00    -0.082 C 
ATOM      8  N   UNL     1       1.858   2.957  -8.235  0.00  0.00    +0.379 N 
ATOM      9  C   UNL     1       1.614   4.289  -7.670  0.00  0.00    -0.082 C 
ATOM     10  C   UNL     1       1.520   4.189  -6.144  0.00  0.00    -0.010 C 
ATOM     11  C   UNL     1      -2.118   5.690  -4.869  0.00  0.00    +0.249 C 
ATOM     12  O   UNL     1      -2.391   6.151  -3.778  0.00  0.00    -0.270 OA
ATOM     13  H   UNL     1       2.694   2.567  -7.826  0.00  0.00    -0.086 HD
ATOM     14  H   UNL     1       1.980   3.034  -9.233  0.00  0.00    -0.086 HD
ENDROOT
BRANCH  11  15
ATOM     15  C   UNL     1      -2.497   6.420  -6.095  0.00  0.00    +0.072 A 
ATOM     16  C   UNL     1      -2.881   5.717  -7.240  0.00  0.00    +0.019 A 
ATOM     17  C   UNL     1      -3.233   6.403  -8.381  0.00  0.00    +0.039 A 
ATOM     18  C   UNL     1      -3.208   7.790  -8.397  0.00  0.00    +0.126 A 
ATOM     19  C   UNL     1      -2.828   8.495  -7.266  0.00  0.00    +0.077 A 
ATOM     20  C   UNL     1      -2.478   7.818  -6.113  0.00  0.00    +0.138 A 
ATOM     21  F   UNL     1      -2.113   8.506  -5.009  0.00  0.00    -0.205 F 
ATOM     22  F   UNL     1      -3.554   8.456  -9.520  0.00  0.00    -0.205 F 
ENDBRANCH  11  15
BRANCH   1  24
ATOM     23  N   UNL     1       1.671   1.136  -3.538  0.00  0.00    -0.309 N 
ATOM     24  C   UNL     1       0.458   1.627  -3.861  0.00  0.00    +0.219 C 
ATOM     25  O   UNL     1      -0.514   0.902  -3.844  0.00  0.00    -0.275 OA
ATOM     26  H   UNL     1       2.448   1.715  -3.551  0.00  0.00    +0.149 HD
BRANCH  23  27
ATOM     27  C   UNL     1       1.815  -0.274  -3.167  0.00  0.00    +0.100 C 
ATOM     28  C   UNL     1       1.544  -0.438  -1.670  0.00  0.00    +0.033 C 
BRANCH  27  31
ATOM     29  C   UNL     1       4.684   1.298  -3.432  0.00  0.00    +0.039 C 
ATOM     30  C   UNL     1       4.525  -0.154  -2.974  0.00  0.00    +0.154 C 
ATOM     31  C   UNL     1       3.215  -0.735  -3.477  0.00  0.00    -0.001 C 
ATOM     32  C   UNL     1       3.593  -1.750  -4.258  0.00  0.00    +0.063 C 
ATOM     33  N   UNL     1       4.940  -1.854  -4.291  0.00  0.00    -0.159 NA
ATOM     34  N   UNL     1       5.538  -1.014  -3.608  0.00  0.00    -0.180 NA
ATOM     35  C   UNL     1       2.646  -2.655  -5.003  0.00  0.00    +0.067 C 
ENDBRANCH  27  31
ENDBRANCH  23  27
ENDBRANCH   1  24
TORSDOF 4
