REMARK  Name = ZINC20502020
REMARK  7 active torsions:
REMARK  status: ('A' for Active; 'I' for Inactive)
REMARK    1  A    between atoms: C_1  and  C_2
REMARK    2  A    between atoms: C_4  and  C_16
REMARK    3  A    between atoms: C_5  and  C_15
REMARK    4  A    between atoms: N_6  and  C_7
REMARK    5  A    between atoms: C_11  and  O_13
REMARK    6  A    between atoms: O_13  and  C_14
REMARK    7  A    between atoms: C_28  and  C_29
REMARK                            x       y       z     vdW  Elec       q    Type
REMARK                         _______ _______ _______ _____ _____    ______ ____
ROOT
ATOM      1  C   UNL     1       0.435  -3.865  -0.985  0.00  0.00    +0.026 C 
ATOM      2  C   UNL     1       0.290  -3.749  -2.353  0.00  0.00    +0.084 A 
ATOM      3  C   UNL     1       0.371  -2.431  -3.042  0.00  0.00    +0.139 A 
ATOM      4  N   UNL     1       1.145  -1.456  -2.641  0.00  0.00    -0.383 N 
ATOM      5  N   UNL     1      -0.468  -2.340  -4.171  0.00  0.00    -0.214 N 
ATOM      6  C   UNL     1      -0.822  -3.517  -4.802  0.00  0.00    +0.199 A 
ATOM      7  N   UNL     1      -0.573  -4.734  -4.401  0.00  0.00    -0.182 NA
ATOM      8  C   UNL     1       0.051  -4.929  -3.216  0.00  0.00    +0.283 A 
ATOM      9  O   UNL     1       0.402  -6.044  -2.866  0.00  0.00    -0.265 OA
ATOM     10  S   UNL     1      -1.685  -2.958  -6.246  0.00  0.00    -0.031 S 
ATOM     11  C   UNL     1      -1.647  -1.206  -5.896  0.00  0.00    +0.101 A 
ATOM     12  N   UNL     1      -0.959  -1.165  -4.703  0.00  0.00    -0.283 N 
ATOM     13  C   UNL     1      -2.165  -0.174  -6.623  0.00  0.00    +0.102 C 
ATOM     14  H   UNL     1       1.764  -1.599  -1.909  0.00  0.00    +0.157 HD
ATOM     15  H   UNL     1      -0.822  -0.322  -4.243  0.00  0.00    +0.188 HD
ATOM     16  H   UNL     1       1.098  -0.591  -3.075  0.00  0.00    +0.157 HD
ENDROOT
BRANCH  13  17
ATOM     17  C   UNL     1      -2.024   1.146  -6.167  0.00  0.00    +0.242 C 
ATOM     18  O   UNL     1      -1.530   1.365  -5.075  0.00  0.00    -0.271 OA
ATOM     19  N   UNL     1      -2.435   2.173  -6.938  0.00  0.00    -0.294 N 
ATOM     20  C   UNL     1      -2.195   3.567  -6.534  0.00  0.00    +0.136 C 
ATOM     21  C   UNL     1      -1.551   4.308  -7.711  0.00  0.00    +0.179 C 
ATOM     22  O   UNL     1      -2.349   4.115  -8.882  0.00  0.00    -0.377 OA
ATOM     23  C   UNL     1      -2.447   2.753  -9.305  0.00  0.00    +0.179 C 
ATOM     24  C   UNL     1      -3.132   1.932  -8.212  0.00  0.00    +0.136 C 
ENDBRANCH  13  17
BRANCH   1  28
ATOM     25  C   UNL     1      -0.226   0.851   0.701  0.00  0.00    +0.064 C 
ATOM     26  C   UNL     1       0.179  -0.594   0.567  0.00  0.00    +0.022 A 
ATOM     27  C   UNL     1      -0.111  -1.390  -0.476  0.00  0.00    +0.031 A 
ATOM     28  C   UNL     1       0.481  -2.701  -0.175  0.00  0.00    -0.003 A 
ATOM     29  C   UNL     1       1.091  -2.568   1.061  0.00  0.00    +0.028 A 
ATOM     30  N   UNL     1       0.904  -1.302   1.485  0.00  0.00    -0.317 N 
ATOM     31  C   UNL     1       1.839  -3.648   1.800  0.00  0.00    +0.064 C 
BRANCH  30  32
ATOM     32  C   UNL     1       1.383  -0.786   2.697  0.00  0.00    +0.050 A 
ATOM     33  C   UNL     1       2.750  -0.670   2.911  0.00  0.00    +0.026 A 
ATOM     34  C   UNL     1       3.222  -0.160   4.105  0.00  0.00    +0.006 A 
ATOM     35  C   UNL     1       2.336   0.235   5.089  0.00  0.00    +0.046 A 
ATOM     36  C   UNL     1       0.969   0.122   4.880  0.00  0.00    +0.122 A 
ATOM     37  C   UNL     1       0.491  -0.384   3.681  0.00  0.00    +0.071 A 
BRANCH  36  38
ATOM     38  O   UNL     1       0.098   0.511   5.848  0.00  0.00    -0.495 OA
ATOM     39  C   UNL     1       0.660   1.028   7.056  0.00  0.00    +0.277 C 
ENDBRANCH  36  38
ENDBRANCH  30  32
ENDBRANCH   1  28
TORSDOF 4
