REMARK  Name = ZINC39969150
REMARK  11 active torsions:
REMARK  status: ('A' for Active; 'I' for Inactive)
REMARK    1  A    between atoms: C_1  and  O_2
REMARK    2  A    between atoms: O_2  and  C_3
REMARK    3  A    between atoms: C_8  and  C_13
REMARK    4  A    between atoms: C_13  and  C_34
REMARK    5  A    between atoms: C_14  and  C_15
REMARK    6  A    between atoms: C_17  and  O_32
REMARK    7  A    between atoms: C_18  and  O_22
REMARK    8  A    between atoms: O_22  and  C_23
REMARK    9  A    between atoms: C_23  and  C_24
REMARK   10  A    between atoms: C_29  and  C_30
REMARK   11  A    between atoms: O_32  and  C_33
REMARK                            x       y       z     vdW  Elec       q    Type
REMARK                         _______ _______ _______ _____ _____    ______ ____
ROOT
ATOM      1  C   UNL     1       3.272  -6.324   4.869  0.00  0.00    -0.019 A 
ATOM      2  C   UNL     1       3.705  -7.581   5.305  0.00  0.00    +0.057 A 
ATOM      3  C   UNL     1       4.957  -8.039   4.947  0.00  0.00    +0.163 A 
ATOM      4  C   UNL     1       5.788  -7.250   4.154  0.00  0.00    +0.176 A 
ATOM      5  C   UNL     1       5.360  -6.002   3.720  0.00  0.00    +0.064 A 
ATOM      6  C   UNL     1       4.108  -5.540   4.068  0.00  0.00    +0.027 A 
ATOM      7 BR   UNL     1       6.493  -4.936   2.645  0.00  0.00    -0.046 Br
ENDROOT
BRANCH   1   9
ATOM      8  C   UNL     1       1.760  -4.526   5.540  0.00  0.00    +0.072 C 
ATOM      9  C   UNL     1       1.939  -5.831   5.248  0.00  0.00    +0.026 C 
BRANCH   8  15
ATOM     10  C   UNL     1       2.768   0.979   5.320  0.00  0.00    +0.122 A 
ATOM     11  C   UNL     1       2.708   0.853   6.771  0.00  0.00    +0.048 A 
ATOM     12  C   UNL     1       2.733  -0.346   7.382  0.00  0.00    +0.031 A 
ATOM     13  C   UNL     1       2.821  -1.574   6.579  0.00  0.00    +0.061 A 
ATOM     14  N   UNL     1       2.862  -2.834   6.906  0.00  0.00    -0.359 N 
ATOM     15  C   UNL     1       2.951  -3.611   5.664  0.00  0.00    +0.216 C 
ATOM     16  N   UNL     1       2.958  -2.638   4.566  0.00  0.00    -0.359 N 
ATOM     17  C   UNL     1       2.882  -1.448   5.097  0.00  0.00    +0.064 A 
ATOM     18  C   UNL     1       2.845  -0.106   4.511  0.00  0.00    +0.073 A 
ATOM     19  H   UNL     1       2.838  -3.193   7.807  0.00  0.00    +0.162 HD
ATOM     20  H   UNL     1       3.009  -2.841   3.619  0.00  0.00    +0.162 HD
BRANCH  10  22
ATOM     21  C   UNL     1       2.658   3.327   5.657  0.00  0.00    +0.277 C 
ATOM     22  O   UNL     1       2.740   2.215   4.763  0.00  0.00    -0.495 OA
ENDBRANCH  10  22
ENDBRANCH   8  15
BRANCH   8  23
ATOM     23  C   UNL     1       0.438  -4.009   5.731  0.00  0.00    +0.099 C 
ATOM     24  N   UNL     1      -0.611  -3.600   5.883  0.00  0.00    -0.191 NA
ENDBRANCH   8  23
ENDBRANCH   1   9
BRANCH   3  25
ATOM     25  O   UNL     1       5.381  -9.261   5.369  0.00  0.00    -0.491 OA
ATOM     26  C   UNL     1       4.478 -10.016   6.179  0.00  0.00    +0.277 C 
ENDBRANCH   3  25
BRANCH   4  27
ATOM     27  O   UNL     1       7.021  -7.702   3.803  0.00  0.00    -0.483 OA
BRANCH  27  28
ATOM     28  C   UNL     1       7.116  -8.451   2.590  0.00  0.00    +0.266 C 
BRANCH  28  29
ATOM     29  C   UNL     1       8.548  -8.866   2.367  0.00  0.00    +0.007 A 
ATOM     30  C   UNL     1       9.520  -8.514   3.280  0.00  0.00    +0.008 A 
ATOM     31  C   UNL     1      10.835  -8.894   3.078  0.00  0.00    +0.000 A 
ATOM     32  C   UNL     1      11.184  -9.628   1.958  0.00  0.00    +0.001 A 
ATOM     33  C   UNL     1      10.222  -9.987   1.037  0.00  0.00    +0.019 A 
ATOM     34  C   UNL     1       8.892  -9.612   1.239  0.00  0.00    +0.058 A 
BRANCH  34  35
ATOM     35  C   UNL     1       7.888  -9.986   0.289  0.00  0.00    +0.100 C 
ATOM     36  N   UNL     1       7.090 -10.283  -0.464  0.00  0.00    -0.191 NA
ENDBRANCH  34  35
ENDBRANCH  28  29
ENDBRANCH  27  28
ENDBRANCH   4  27
TORSDOF 9
