REMARK  Name = ZINC17950433
REMARK  10 active torsions:
REMARK  status: ('A' for Active; 'I' for Inactive)
REMARK    1  A    between atoms: C_1  and  C_2
REMARK    2  A    between atoms: C_2  and  C_3
REMARK    3  A    between atoms: C_3  and  C_4
REMARK    4  A    between atoms: C_4  and  O_5
REMARK    5  A    between atoms: O_5  and  C_6
REMARK    6  A    between atoms: C_9  and  N_12
REMARK    7  A    between atoms: C_16  and  S_20
REMARK    8  A    between atoms: S_20  and  C_21
REMARK    9  A    between atoms: N_23  and  N_24
REMARK   10  A    between atoms: C_25  and  C_26
REMARK                            x       y       z     vdW  Elec       q    Type
REMARK                         _______ _______ _______ _____ _____    ______ ____
ROOT
ATOM      1  N   UNL     1       1.838  -7.963  -3.103  0.00  0.00    -0.209 N 
ATOM      2  C   UNL     1       1.425  -8.839  -2.178  0.00  0.00    +0.228 C 
ATOM      3  O   UNL     1       0.921  -8.552  -1.114  0.00  0.00    -0.275 OA
ATOM      4  C   UNL     1       1.688 -10.245  -2.672  0.00  0.00    +0.120 C 
ATOM      5  C   UNL     1       2.330 -10.027  -4.058  0.00  0.00    +0.149 C 
ATOM      6  C   UNL     1       2.358  -8.521  -4.203  0.00  0.00    +0.240 C 
ATOM      7  O   UNL     1       2.786  -7.916  -5.162  0.00  0.00    -0.274 OA
ENDROOT
BRANCH   1  11
ATOM      8  C   UNL     1       1.512  -3.834  -2.603  0.00  0.00    +0.121 A 
ATOM      9  C   UNL     1       0.752  -4.478  -3.568  0.00  0.00    +0.047 A 
ATOM     10  C   UNL     1       0.859  -5.844  -3.734  0.00  0.00    +0.027 A 
ATOM     11  C   UNL     1       1.728  -6.574  -2.935  0.00  0.00    +0.044 A 
ATOM     12  C   UNL     1       2.489  -5.929  -1.969  0.00  0.00    +0.027 A 
ATOM     13  C   UNL     1       2.385  -4.562  -1.808  0.00  0.00    +0.047 A 
BRANCH   8  14
ATOM     14  O   UNL     1       1.406  -2.488  -2.441  0.00  0.00    -0.492 OA
BRANCH  14  15
ATOM     15  C   UNL     1       0.488  -1.802  -3.294  0.00  0.00    +0.229 C 
BRANCH  15  16
ATOM     16  C   UNL     1       0.507  -0.308  -2.966  0.00  0.00    +0.041 C 
BRANCH  16  18
ATOM     17  C   UNL     1      -0.458   1.921  -3.552  0.00  0.00    +0.004 C 
ATOM     18  C   UNL     1      -0.476   0.427  -3.880  0.00  0.00    -0.000 C 
ENDBRANCH  16  18
ENDBRANCH  15  16
ENDBRANCH  14  15
ENDBRANCH   8  14
ENDBRANCH   1  11
BRANCH   5  19
ATOM     19  S   UNL     1       1.310 -10.773  -5.359  0.00  0.00    -0.078 S 
BRANCH  19  20
ATOM     20  C   UNL     1       2.263 -10.556  -6.825  0.00  0.00    +0.146 C 
ATOM     21  N   UNL     1       3.423  -9.962  -6.766  0.00  0.00    -0.380 N 
ATOM     22  N   UNL     1       1.784 -11.014  -8.032  0.00  0.00    -0.217 N 
ATOM     23  H   UNL     1       3.948  -9.843  -7.573  0.00  0.00    +0.158 HD
ATOM     24  H   UNL     1       0.921 -11.455  -8.075  0.00  0.00    +0.176 HD
ATOM     25  H   UNL     1       3.761  -9.640  -5.916  0.00  0.00    +0.158 HD
BRANCH  22  26
ATOM     26  N   UNL     1       2.542 -10.841  -9.197  0.00  0.00    -0.188 NA
ATOM     27  C   UNL     1       2.090 -11.272 -10.335  0.00  0.00    +0.138 C 
BRANCH  27  28
ATOM     28  C   UNL     1       2.888 -11.090 -11.561  0.00  0.00    -0.002 A 
ATOM     29  C   UNL     1       4.133 -10.460 -11.500  0.00  0.00    +0.013 A 
ATOM     30  C   UNL     1       4.877 -10.291 -12.649  0.00  0.00    +0.050 A 
ATOM     31  C   UNL     1       4.394 -10.746 -13.867  0.00  0.00    +0.166 A 
ATOM     32  C   UNL     1       3.152 -11.376 -13.936  0.00  0.00    +0.167 A 
ATOM     33  C   UNL     1       2.403 -11.554 -12.787  0.00  0.00    +0.059 A 
ATOM     34  O   UNL     1       2.910 -11.725 -15.233  0.00  0.00    -0.453 OA
ATOM     35  C   UNL     1       3.827 -10.939 -16.019  0.00  0.00    +0.466 C 
ATOM     36  O   UNL     1       4.928 -10.701 -15.123  0.00  0.00    -0.453 OA
ENDBRANCH  27  28
ENDBRANCH  22  26
ENDBRANCH  19  20
ENDBRANCH   5  19
TORSDOF 9
