REMARK  Name = ZINC32990891
REMARK  12 active torsions:
REMARK  status: ('A' for Active; 'I' for Inactive)
REMARK    1  A    between atoms: C_1  and  C_2
REMARK    2  A    between atoms: C_2  and  C_3
REMARK    3  A    between atoms: C_3  and  C_4
REMARK    4  A    between atoms: C_4  and  N_5
REMARK    5  A    between atoms: C_6  and  N_35
REMARK    6  A    between atoms: C_7  and  N_14
REMARK    7  A    between atoms: N_14  and  C_15
REMARK    8  A    between atoms: C_15  and  C_16
REMARK    9  A    between atoms: C_16  and  C_17
REMARK   10  A    between atoms: C_16  and  C_18
REMARK   11  A    between atoms: C_19  and  C_21
REMARK   12  A    between atoms: C_22  and  C_34
REMARK                            x       y       z     vdW  Elec       q    Type
REMARK                         _______ _______ _______ _____ _____    ______ ____
ROOT
ATOM      1  N   UNL     1       1.182   3.627   0.079  0.00  0.00    -0.260 N 
ATOM      2  C   UNL     1       0.123   4.461   0.063  0.00  0.00    +0.258 C 
ATOM      3  O   UNL     1      -0.997   4.026   0.260  0.00  0.00    -0.269 OA
ENDROOT
BRANCH   2   4
ATOM      4  C   UNL     1       0.320   5.891  -0.191  0.00  0.00    +0.080 A 
ATOM      5  C   UNL     1      -0.597   6.900  -0.135  0.00  0.00    -0.017 A 
ATOM      6  C   UNL     1      -0.206   8.212  -0.415  0.00  0.00    +0.076 A 
ATOM      7  C   UNL     1       1.157   8.390  -0.745  0.00  0.00    +0.116 A 
ATOM      8  S   UNL     1       1.820   6.746  -0.643  0.00  0.00    -0.064 S 
ATOM      9  N   UNL     1       1.651   9.584  -1.032  0.00  0.00    -0.226 NA
ATOM     10  C   UNL     1       0.912  10.667  -1.028  0.00  0.00    +0.114 A 
ATOM     11  N   UNL     1      -0.410  10.623  -0.724  0.00  0.00    -0.296 N 
ATOM     12  C   UNL     1      -1.013   9.450  -0.418  0.00  0.00    +0.263 A 
ATOM     13  O   UNL     1      -2.200   9.416  -0.149  0.00  0.00    -0.267 OA
ATOM     14  C   UNL     1      -1.006  11.970  -0.784  0.00  0.00    +0.127 C 
ATOM     15  C   UNL     1      -0.014  12.828  -1.595  0.00  0.00    +0.029 C 
ATOM     16  C   UNL     1       1.321  12.096  -1.337  0.00  0.00    +0.076 C 
ATOM     17  C   UNL     1      -2.028   6.600   0.229  0.00  0.00    +0.046 C 
ENDBRANCH   2   4
BRANCH   1  20
ATOM     18  N   UNL     1       1.271   0.204   1.410  0.00  0.00    -0.280 N 
ATOM     19  C   UNL     1       1.481   1.559   1.307  0.00  0.00    +0.127 A 
ATOM     20  C   UNL     1       0.983   2.237   0.213  0.00  0.00    +0.140 A 
ATOM     21  C   UNL     1       0.273   1.517  -0.767  0.00  0.00    +0.277 A 
ATOM     22  O   UNL     1      -0.178   2.091  -1.744  0.00  0.00    -0.266 OA
ATOM     23  N   UNL     1       0.095   0.190  -0.617  0.00  0.00    -0.273 N 
ATOM     24  H   UNL     1      -0.459  -0.379  -1.378  0.00  0.00    +0.173 HD
ATOM     25  C   UNL     1       0.587  -0.454   0.456  0.00  0.00    +0.331 A 
ATOM     26  O   UNL     1       0.412  -1.652   0.565  0.00  0.00    -0.246 OA
BRANCH  19  27
ATOM     27  N   UNL     1       2.174   2.232   2.285  0.00  0.00    -0.343 N 
ATOM     28  H   UNL     1       2.339   3.316   2.196  0.00  0.00    +0.144 HD
ATOM     29  H   UNL     1       2.564   1.686   3.157  0.00  0.00    +0.144 HD
ENDBRANCH  19  27
BRANCH  18  30
ATOM     30  C   UNL     1       1.794  -0.528   2.566  0.00  0.00    +0.128 C 
BRANCH  30  31
ATOM     31  C   UNL     1       0.746  -0.538   3.680  0.00  0.00    +0.021 C 
BRANCH  31  33
ATOM     32  C   UNL     1       0.243  -1.313   6.002  0.00  0.00    +0.004 C 
ATOM     33  C   UNL     1       1.292  -1.303   4.888  0.00  0.00    -0.002 C 
ENDBRANCH  31  33
ENDBRANCH  30  31
ENDBRANCH  18  30
ENDBRANCH   1  20
BRANCH   1  34
ATOM     34  C   UNL     1       2.539   4.165  -0.044  0.00  0.00    +0.117 C 
BRANCH  34  35
ATOM     35  C   UNL     1       2.908   4.285  -1.524  0.00  0.00    +0.001 C 
ATOM     36  C   UNL     1       4.263   4.983  -1.656  0.00  0.00    +0.009 C 
ATOM     37  C   UNL     1       2.990   2.889  -2.144  0.00  0.00    +0.009 C 
ENDBRANCH  34  35
ENDBRANCH   1  34
TORSDOF 8
