REMARK  Name = ZINC09797647
REMARK  5 active torsions:
REMARK  status: ('A' for Active; 'I' for Inactive)
REMARK    1  A    between atoms: N_12  and  C_16
REMARK    2  A    between atoms: C_16  and  C_17
REMARK    3  A    between atoms: N_19  and  C_20
REMARK    4  A    between atoms: C_23  and  S_26
REMARK    5  A    between atoms: S_26  and  N_29
REMARK                            x       y       z     vdW  Elec       q    Type
REMARK                         _______ _______ _______ _____ _____    ______ ____
ROOT
ATOM      1  C   UNL     1      -3.915   5.659  -0.625  0.00  0.00    +0.235 C 
ATOM      2  O   UNL     1      -5.020   6.088  -0.882  0.00  0.00    -0.274 OA
ATOM      3  N   UNL     1      -3.003   5.516  -1.606  0.00  0.00    -0.284 N 
ATOM      4  H   UNL     1      -2.099   5.237  -1.391  0.00  0.00    +0.155 HD
ENDROOT
BRANCH   3   5
ATOM      5  C   UNL     1      -3.359   5.770  -2.935  0.00  0.00    +0.034 A 
ATOM      6  C   UNL     1      -2.804   5.015  -3.961  0.00  0.00    +0.025 A 
ATOM      7  C   UNL     1      -3.162   5.265  -5.271  0.00  0.00    +0.030 A 
ATOM      8  C   UNL     1      -4.063   6.272  -5.563  0.00  0.00    +0.106 A 
ATOM      9  C   UNL     1      -4.614   7.029  -4.545  0.00  0.00    +0.030 A 
ATOM     10  C   UNL     1      -4.264   6.780  -3.232  0.00  0.00    +0.025 A 
BRANCH   8  11
ATOM     11  S   UNL     1      -4.511   6.593  -7.237  0.00  0.00    +0.061 S 
ATOM     12  O   UNL     1      -4.275   5.391  -7.958  0.00  0.00    -0.153 OA
ATOM     13  O   UNL     1      -5.784   7.224  -7.203  0.00  0.00    -0.153 OA
BRANCH  11  14
ATOM     14  N   UNL     1      -3.442   7.714  -7.824  0.00  0.00    -0.177 NA
ATOM     15  C   UNL     1      -3.766   9.117  -7.690  0.00  0.00    +0.109 C 
ATOM     16  C   UNL     1      -4.574   9.589  -8.917  0.00  0.00    +0.017 C 
ATOM     17  C   UNL     1      -3.708   9.651 -10.104  0.00  0.00    +0.001 C 
ATOM     18  C   UNL     1      -3.125   8.306 -10.528  0.00  0.00    +0.001 C 
ATOM     19  C   UNL     1      -1.867   8.036  -9.741  0.00  0.00    +0.017 C 
ATOM     20  C   UNL     1      -2.201   7.240  -8.467  0.00  0.00    +0.109 C 
ENDBRANCH  11  14
ENDBRANCH   8  11
ENDBRANCH   3   5
BRANCH   1  21
ATOM     21  C   UNL     1      -3.562   5.286   0.792  0.00  0.00    +0.214 C 
BRANCH  21  33
ATOM     22  C   UNL     1      -7.462   3.094   6.396  0.00  0.00    +0.000 A 
ATOM     23  C   UNL     1      -6.256   3.770   6.367  0.00  0.00    +0.000 A 
ATOM     24  C   UNL     1      -5.910   4.514   5.256  0.00  0.00    +0.006 A 
ATOM     25  C   UNL     1      -6.766   4.588   4.169  0.00  0.00    -0.012 A 
ATOM     26  C   UNL     1      -7.973   3.910   4.199  0.00  0.00    -0.042 A 
ATOM     27  C   UNL     1      -8.317   3.165   5.314  0.00  0.00    +0.004 A 
ATOM     28  C   UNL     1      -8.724   4.141   2.904  0.00  0.00    +0.038 C 
ATOM     29  C   UNL     1      -8.045   5.369   2.256  0.00  0.00    +0.045 C 
ATOM     30  C   UNL     1      -6.635   5.314   2.858  0.00  0.00    +0.138 C 
ATOM     31  C   UNL     1      -5.673   4.619   1.931  0.00  0.00    +0.251 C 
ATOM     32  O   UNL     1      -5.743   3.482   1.514  0.00  0.00    -0.272 OA
ATOM     33  N   UNL     1      -4.714   5.532   1.663  0.00  0.00    -0.215 N 
ATOM     34  C   UNL     1      -4.952   6.693   2.288  0.00  0.00    +0.310 C 
ATOM     35  O   UNL     1      -4.233   7.669   2.198  0.00  0.00    -0.252 OA
ATOM     36  N   UNL     1      -6.076   6.655   3.032  0.00  0.00    -0.281 N 
ATOM     37  H   UNL     1      -6.442   7.373   3.571  0.00  0.00    +0.152 HD
ENDBRANCH  21  33
ENDBRANCH   1  21
TORSDOF 5
