REMARK  Name = ZINC67359090
REMARK  5 active torsions:
REMARK  status: ('A' for Active; 'I' for Inactive)
REMARK    1  A    between atoms: C_6  and  C_7
REMARK    2  A    between atoms: C_7  and  C_8
REMARK    3  A    between atoms: C_8  and  C_10
REMARK    4  A    between atoms: C_8  and  N_16
REMARK    5  A    between atoms: N_19  and  C_20
REMARK                            x       y       z     vdW  Elec       q    Type
REMARK                         _______ _______ _______ _____ _____    ______ ____
ROOT
ATOM      1  C   UNL     1      -1.745  -1.028  -1.429  0.00  0.00    +0.082 C 
ENDROOT
BRANCH   1   2
ATOM      2  C   UNL     1      -3.120  -1.700  -1.421  0.00  0.00    +0.010 C 
ATOM      3  C   UNL     1      -3.032  -3.031  -0.672  0.00  0.00    +0.005 C 
ATOM      4  C   UNL     1      -4.407  -3.704  -0.664  0.00  0.00    +0.000 C 
ATOM      5  C   UNL     1      -4.859  -3.957  -2.103  0.00  0.00    +0.000 C 
ATOM      6  C   UNL     1      -4.947  -2.625  -2.852  0.00  0.00    +0.000 C 
ATOM      7  C   UNL     1      -3.572  -1.953  -2.860  0.00  0.00    +0.005 C 
ENDBRANCH   1   2
BRANCH   1   8
ATOM      8  N   UNL     1      -0.778  -1.902  -2.098  0.00  0.00    -0.296 N 
ATOM      9  C   UNL     1      -0.658  -1.871  -3.440  0.00  0.00    +0.300 C 
ATOM     10  O   UNL     1      -1.352  -1.118  -4.095  0.00  0.00    -0.253 OA
ATOM     11  N   UNL     1       0.231  -2.675  -4.056  0.00  0.00    -0.295 N 
ATOM     12  H   UNL     1      -0.225  -2.503  -1.575  0.00  0.00    +0.151 HD
ATOM     13  H   UNL     1       0.785  -3.276  -3.533  0.00  0.00    +0.151 HD
BRANCH  11  14
ATOM     14  C   UNL     1       0.362  -2.641  -5.515  0.00  0.00    +0.097 C 
ATOM     15  C   UNL     1      -0.665  -3.593  -6.150  0.00  0.00    +0.046 C 
ATOM     16  C   UNL     1      -0.330  -3.809  -7.645  0.00  0.00    +0.168 C 
ATOM     17  S   UNL     1       1.492  -3.564  -7.690  0.00  0.00    -0.029 S 
ATOM     18  O   UNL     1       1.788  -2.439  -8.506  0.00  0.00    -0.174 OA
ATOM     19  O   UNL     1       2.120  -4.810  -7.962  0.00  0.00    -0.174 OA
ATOM     20  C   UNL     1       1.784  -3.119  -5.926  0.00  0.00    +0.188 C 
ENDBRANCH  11  14
ENDBRANCH   1   8
BRANCH   1  21
ATOM     21  C   UNL     1      -1.293  -0.775   0.011  0.00  0.00    +0.057 C 
BRANCH  21  27
ATOM     22  C   UNL     1      -0.017   1.378   0.010  0.00  0.00    +0.005 A 
ATOM     23  C   UNL     1       1.171   2.086   0.002  0.00  0.00    +0.020 A 
ATOM     24  C   UNL     1       2.378   1.410  -0.013  0.00  0.00    +0.041 A 
ATOM     25  C   UNL     1       2.396   0.027  -0.021  0.00  0.00    +0.020 A 
ATOM     26  C   UNL     1       1.208  -0.679  -0.013  0.00  0.00    +0.005 A 
ATOM     27  C   UNL     1       0.002  -0.004   0.002  0.00  0.00    -0.046 A 
ATOM     28 CL   UNL     1       3.870   2.298  -0.023  0.00  0.00    -0.084 Cl
ENDBRANCH  21  27
ENDBRANCH   1  21
TORSDOF 5
