REMARK  Name = ZINC39453030
REMARK  6 active torsions:
REMARK  status: ('A' for Active; 'I' for Inactive)
REMARK    1  A    between atoms: C_1  and  C_2
REMARK    2  A    between atoms: C_2  and  C_3
REMARK    3  A    between atoms: C_2  and  S_4
REMARK    4  A    between atoms: S_4  and  N_7
REMARK    5  A    between atoms: C_24  and  O_29
REMARK    6  A    between atoms: O_29  and  C_30
REMARK                            x       y       z     vdW  Elec       q    Type
REMARK                         _______ _______ _______ _____ _____    ______ ____
ROOT
ATOM      1  N   UNL     1       2.426  -0.087  -1.387  0.00  0.00    -0.174 N 
ATOM      2  C   UNL     1       2.761   1.175  -1.864  0.00  0.00    +0.134 A 
ATOM      3  C   UNL     1       4.062   1.635  -1.804  0.00  0.00    +0.085 A 
ATOM      4  C   UNL     1       5.115   0.786  -1.221  0.00  0.00    +0.100 A 
ATOM      5  C   UNL     1       4.744  -0.497  -0.739  0.00  0.00    +0.069 A 
ATOM      6  C   UNL     1       3.335  -0.912  -0.839  0.00  0.00    +0.281 A 
ATOM      7  O   UNL     1       2.994  -2.006  -0.429  0.00  0.00    -0.265 OA
ATOM      8  C   UNL     1       5.697  -1.339  -0.183  0.00  0.00    +0.027 A 
ATOM      9  C   UNL     1       7.019  -0.875  -0.117  0.00  0.00    +0.019 A 
ATOM     10  C   UNL     1       7.329   0.462  -0.631  0.00  0.00    +0.073 A 
ATOM     11  N   UNL     1       6.361   1.216  -1.153  0.00  0.00    -0.245 NA
ATOM     12  C   UNL     1       8.658   0.918  -0.559  0.00  0.00    +0.028 A 
ATOM     13  C   UNL     1       9.616   0.116  -0.021  0.00  0.00    +0.004 A 
ATOM     14  C   UNL     1       9.321  -1.154   0.466  0.00  0.00    +0.021 A 
ATOM     15  C   UNL     1       8.054  -1.655   0.427  0.00  0.00    +0.050 A 
ATOM     16 CL   UNL     1       7.721  -3.244   1.044  0.00  0.00    -0.083 Cl
ATOM     17  N   UNL     1       4.374   2.888  -2.297  0.00  0.00    -0.315 N 
ATOM     18  C   UNL     1       3.526   3.449  -3.360  0.00  0.00    +0.210 C 
ATOM     19  C   UNL     1       2.068   3.389  -2.893  0.00  0.00    +0.132 C 
ATOM     20  C   UNL     1       1.752   1.993  -2.422  0.00  0.00    +0.187 C 
ATOM     21  O   UNL     1       0.619   1.567  -2.521  0.00  0.00    -0.290 OA
ATOM     22  H   UNL     1       5.131   3.384  -1.950  0.00  0.00    +0.149 HD
ENDROOT
BRANCH   1  23
ATOM     23  S   UNL     1       0.851  -0.589  -1.490  0.00  0.00    +0.060 S 
ATOM     24  O   UNL     1       0.093   0.481  -0.944  0.00  0.00    -0.153 OA
ATOM     25  O   UNL     1       0.838  -1.872  -0.879  0.00  0.00    -0.153 OA
BRANCH  23  27
ATOM     26  C   UNL     1       1.563  -1.672  -3.899  0.00  0.00    +0.033 C 
ATOM     27  C   UNL     1       0.526  -0.741  -3.269  0.00  0.00    +0.148 C 
ATOM     28  C   UNL     1      -0.875  -1.317  -3.484  0.00  0.00    +0.033 C 
ENDBRANCH  23  27
ENDBRANCH   1  23
BRANCH  18  29
ATOM     29  O   UNL     1       3.899   4.807  -3.607  0.00  0.00    -0.362 OA
ATOM     30  C   UNL     1       5.120   4.952  -4.334  0.00  0.00    +0.196 C 
ENDBRANCH  18  29
TORSDOF 3
