REMARK  Name = ZINC38986379
REMARK  6 active torsions:
REMARK  status: ('A' for Active; 'I' for Inactive)
REMARK    1  A    between atoms: C_1  and  C_2
REMARK    2  A    between atoms: C_4  and  C_8
REMARK    3  A    between atoms: C_12  and  S_16
REMARK    4  A    between atoms: N_14  and  N_15
REMARK    5  A    between atoms: S_16  and  C_17
REMARK    6  A    between atoms: C_17  and  C_18
REMARK                            x       y       z     vdW  Elec       q    Type
REMARK                         _______ _______ _______ _____ _____    ______ ____
ROOT
ATOM      1  C   UNL     1      -0.964  -2.951   1.248  0.00  0.00    +0.185 C 
ATOM      2  N   UNL     1      -2.443  -3.099   1.282  0.00  0.00    -0.234 NA
ATOM      3  N   UNL     1      -2.638  -4.277   2.142  0.00  0.00    -0.228 NA
ATOM      4  C   UNL     1      -1.529  -5.188   1.780  0.00  0.00    +0.214 C 
ATOM      5  N   UNL     1      -0.457  -4.342   1.212  0.00  0.00    -0.197 NA
ATOM      6  H   UNL     1      -2.811  -3.262   0.357  0.00  0.00    +0.143 HD
ATOM      7  H   UNL     1      -2.594  -4.023   3.118  0.00  0.00    +0.143 HD
ENDROOT
BRANCH   1  11
ATOM      8  C   UNL     1      -0.018   1.503   0.010  0.00  0.00    +0.067 C 
ATOM      9  C   UNL     1       0.002  -0.004   0.002  0.00  0.00    +0.058 C 
ATOM     10  C   UNL     1      -1.086  -0.777   0.003  0.00  0.00    +0.029 C 
ATOM     11  C   UNL     1      -0.531  -2.190  -0.007  0.00  0.00    +0.186 C 
ATOM     12  N   UNL     1       0.926  -1.973  -0.013  0.00  0.00    -0.177 NA
ATOM     13  N   UNL     1       1.125  -0.756  -0.013  0.00  0.00    -0.159 NA
ENDBRANCH   1  11
BRANCH   5  14
ATOM     14  N   UNL     1      -0.140  -4.746  -0.149  0.00  0.00    -0.264 NA
ATOM     15  H   UNL     1       0.205  -5.694  -0.173  0.00  0.00    +0.137 HD
ATOM     16  H   UNL     1      -0.940  -4.637  -0.754  0.00  0.00    +0.137 HD
ENDBRANCH   5  14
BRANCH   4  17
ATOM     17  S   UNL     1      -0.923  -6.048   3.257  0.00  0.00    -0.119 S 
BRANCH  17  18
ATOM     18  C   UNL     1      -0.410  -4.707   4.366  0.00  0.00    +0.110 C 
BRANCH  18  19
ATOM     19  C   UNL     1       0.121  -5.292   5.650  0.00  0.00    -0.001 A 
ATOM     20  C   UNL     1      -0.738  -5.534   6.707  0.00  0.00    +0.046 A 
ATOM     21  C   UNL     1      -0.249  -6.070   7.885  0.00  0.00    +0.020 A 
ATOM     22  C   UNL     1       1.096  -6.365   8.006  0.00  0.00    +0.003 A 
ATOM     23  C   UNL     1       1.954  -6.124   6.949  0.00  0.00    +0.020 A 
ATOM     24  C   UNL     1       1.466  -5.593   5.769  0.00  0.00    +0.046 A 
ATOM     25 CL   UNL     1       2.542  -5.298   4.439  0.00  0.00    -0.083 Cl
ATOM     26 CL   UNL     1      -2.427  -5.162   6.557  0.00  0.00    -0.083 Cl
ENDBRANCH  18  19
ENDBRANCH  17  18
ENDBRANCH   4  17
TORSDOF 5
