REMARK  Name = ZINC08527760
REMARK  4 active torsions:
REMARK  status: ('A' for Active; 'I' for Inactive)
REMARK    1  A    between atoms: C_1  and  N_2
REMARK    2  A    between atoms: N_2  and  C_3
REMARK    3  A    between atoms: C_14  and  C_16
REMARK    4  A    between atoms: C_16  and  N_17
REMARK                            x       y       z     vdW  Elec       q    Type
REMARK                         _______ _______ _______ _____ _____    ______ ____
ROOT
ATOM      1  N   UNL     1      -2.430   0.977   0.019  0.00  0.00    -0.215 N 
ATOM      2  C   UNL     1      -2.994   0.471   1.135  0.00  0.00    +0.251 C 
ATOM      3  O   UNL     1      -2.699   0.720   2.284  0.00  0.00    -0.272 OA
ATOM      4  C   UNL     1      -4.072  -0.473   0.651  0.00  0.00    +0.138 C 
ATOM      5  C   UNL     1      -3.778  -1.894   1.114  0.00  0.00    +0.040 C 
ATOM      6  C   UNL     1      -4.981  -2.778   0.761  0.00  0.00    +0.008 C 
ATOM      7  C   UNL     1      -6.157  -2.370   1.645  0.00  0.00    +0.035 C 
ATOM      8  C   UNL     1      -6.384  -0.883   1.579  0.00  0.00    -0.042 A 
ATOM      9  C   UNL     1      -5.420  -0.008   1.125  0.00  0.00    -0.012 A 
ATOM     10  C   UNL     1      -5.688   1.354   1.096  0.00  0.00    +0.006 A 
ATOM     11  C   UNL     1      -6.911   1.838   1.515  0.00  0.00    +0.000 A 
ATOM     12  C   UNL     1      -7.879   0.960   1.966  0.00  0.00    +0.000 A 
ATOM     13  C   UNL     1      -7.614  -0.394   1.997  0.00  0.00    +0.004 A 
ATOM     14  N   UNL     1      -3.989  -0.385  -0.814  0.00  0.00    -0.281 N 
ATOM     15  C   UNL     1      -3.004   0.491  -1.088  0.00  0.00    +0.310 C 
ATOM     16  O   UNL     1      -2.671   0.803  -2.215  0.00  0.00    -0.252 OA
ATOM     17  H   UNL     1      -4.539  -0.861  -1.456  0.00  0.00    +0.152 HD
ENDROOT
BRANCH   1  18
ATOM     18  C   UNL     1      -1.330   1.944   0.019  0.00  0.00    +0.213 C 
BRANCH  18  21
ATOM     19  C   UNL     1       1.124   3.363   0.009  0.00  0.00    +0.132 C 
ATOM     20  N   UNL     1       1.143   1.898   0.001  0.00  0.00    -0.296 N 
ATOM     21  C   UNL     1      -0.014   1.209   0.009  0.00  0.00    +0.234 C 
ATOM     22  O   UNL     1       0.002  -0.004   0.002  0.00  0.00    -0.274 OA
BRANCH  20  23
ATOM     23  C   UNL     1       2.422   1.183  -0.015  0.00  0.00    +0.106 C 
ATOM     24  C   UNL     1       3.190   1.552  -1.282  0.00  0.00    +0.027 C 
ATOM     25  C   UNL     1       4.605   0.971  -1.178  0.00  0.00    +0.007 C 
ATOM     26  C   UNL     1       5.366   1.748  -0.105  0.00  0.00    +0.035 C 
ATOM     27  C   UNL     1       4.567   1.810   1.171  0.00  0.00    -0.042 A 
ATOM     28  C   UNL     1       3.214   1.555   1.211  0.00  0.00    -0.024 A 
ATOM     29  C   UNL     1       2.535   1.637   2.420  0.00  0.00    +0.006 A 
ATOM     30  C   UNL     1       3.205   1.968   3.580  0.00  0.00    +0.000 A 
ATOM     31  C   UNL     1       4.564   2.220   3.539  0.00  0.00    +0.000 A 
ATOM     32  C   UNL     1       5.240   2.140   2.339  0.00  0.00    +0.004 A 
ENDBRANCH  20  23
ENDBRANCH  18  21
ENDBRANCH   1  18
TORSDOF 3
