REMARK  Name = ZINC36283746
REMARK  6 active torsions:
REMARK  status: ('A' for Active; 'I' for Inactive)
REMARK    1  A    between atoms: C_1  and  O_2
REMARK    2  A    between atoms: O_2  and  C_3
REMARK    3  A    between atoms: C_6  and  C_9
REMARK    4  A    between atoms: C_21  and  C_24
REMARK    5  A    between atoms: C_27  and  O_30
REMARK    6  A    between atoms: O_30  and  C_31
REMARK                            x       y       z     vdW  Elec       q    Type
REMARK                         _______ _______ _______ _____ _____    ______ ____
ROOT
ATOM      1  C   UNL     1      -4.923  -2.865  -0.218  0.00  0.00    -0.030 C 
ATOM      2  C   UNL     1      -5.674  -3.184  -1.514  0.00  0.00    +0.046 C 
ATOM      3  C   UNL     1      -4.904  -4.080  -2.452  0.00  0.00    +0.010 C 
ATOM      4  C   UNL     1      -5.240  -5.557  -2.415  0.00  0.00    +0.001 C 
ATOM      5  C   UNL     1      -5.648  -6.247  -1.184  0.00  0.00    +0.001 C 
ATOM      6  C   UNL     1      -7.021  -6.023  -0.625  0.00  0.00    +0.010 C 
ATOM      7  C   UNL     1      -7.237  -4.642  -0.050  0.00  0.00    +0.046 C 
ATOM      8  C   UNL     1      -7.058  -3.660  -1.203  0.00  0.00    +0.137 C 
ATOM      9  O   UNL     1      -8.006  -3.280  -1.843  0.00  0.00    -0.297 OA
ATOM     10  C   UNL     1      -6.323  -4.294   1.105  0.00  0.00    -0.030 C 
ATOM     11  N   UNL     1      -4.949  -4.005   0.697  0.00  0.00    +0.389 N 
ATOM     12  H   UNL     1      -4.484  -4.791   0.303  0.00  0.00    -0.084 HD
ATOM     13  H   UNL     1      -4.422  -3.744   1.537  0.00  0.00    -0.084 HD
ENDROOT
BRANCH   1  17
ATOM     14  C   UNL     1      -0.933  -1.556  -0.959  0.00  0.00    +0.120 A 
ATOM     15  C   UNL     1      -1.941  -0.627  -0.748  0.00  0.00    +0.046 A 
ATOM     16  C   UNL     1      -3.233  -1.053  -0.508  0.00  0.00    +0.005 A 
ATOM     17  C   UNL     1      -3.522  -2.405  -0.478  0.00  0.00    -0.060 A 
ATOM     18  C   UNL     1      -2.518  -3.333  -0.689  0.00  0.00    +0.005 A 
ATOM     19  C   UNL     1      -1.226  -2.912  -0.935  0.00  0.00    +0.046 A 
BRANCH  14  21
ATOM     20  C   UNL     1       0.568   0.272  -1.206  0.00  0.00    +0.277 C 
ATOM     21  O   UNL     1       0.339  -1.139  -1.195  0.00  0.00    -0.495 OA
ENDBRANCH  14  21
ENDBRANCH   1  17
BRANCH  10  22
ATOM     22  C   UNL     1      -6.326  -5.389   2.142  0.00  0.00    -0.060 A 
ATOM     23  C   UNL     1      -5.418  -6.427   2.052  0.00  0.00    +0.005 A 
ATOM     24  C   UNL     1      -5.419  -7.431   3.000  0.00  0.00    +0.046 A 
ATOM     25  C   UNL     1      -6.333  -7.397   4.044  0.00  0.00    +0.120 A 
ATOM     26  C   UNL     1      -7.243  -6.354   4.132  0.00  0.00    +0.046 A 
ATOM     27  C   UNL     1      -7.234  -5.349   3.184  0.00  0.00    +0.005 A 
BRANCH  25  28
ATOM     28  O   UNL     1      -6.337  -8.384   4.978  0.00  0.00    -0.495 OA
ATOM     29  C   UNL     1      -7.305  -8.284   6.024  0.00  0.00    +0.277 C 
ENDBRANCH  25  28
ENDBRANCH  10  22
TORSDOF 4
