REMARK  Name = ZINC39012683
REMARK  9 active torsions:
REMARK  status: ('A' for Active; 'I' for Inactive)
REMARK    1  A    between atoms: C_1  and  C_2
REMARK    2  A    between atoms: C_5  and  C_10
REMARK    3  A    between atoms: C_6  and  O_9
REMARK    4  A    between atoms: C_7  and  C_8
REMARK    5  A    between atoms: C_13  and  C_15
REMARK    6  A    between atoms: N_17  and  C_18
REMARK    7  A    between atoms: C_20  and  C_28
REMARK    8  A    between atoms: N_30  and  C_31
REMARK    9  A    between atoms: C_31  and  C_32
REMARK                            x       y       z     vdW  Elec       q    Type
REMARK                         _______ _______ _______ _____ _____    ______ ____
ROOT
ATOM      1  C   UNL     1       0.103  -7.837  -1.261  0.00  0.00    +0.261 C 
ATOM      2  O   UNL     1       0.104  -7.900  -2.476  0.00  0.00    -0.269 OA
ATOM      3  N   UNL     1       0.116  -8.967  -0.527  0.00  0.00    -0.297 N 
ATOM      4  H   UNL     1       0.115  -8.916   0.442  0.00  0.00    +0.150 HD
ENDROOT
BRANCH   3   5
ATOM      5  C   UNL     1       0.132 -10.272  -1.192  0.00  0.00    +0.152 C 
ATOM      6  C   UNL     1       1.238 -11.187  -0.619  0.00  0.00    +0.132 C 
ATOM      7  C   UNL     1       1.887 -12.024  -1.705  0.00  0.00    -0.046 C 
ATOM      8  C   UNL     1       1.743 -11.620  -2.955  0.00  0.00    -0.013 C 
ATOM      9  S   UNL     1       0.746 -10.141  -2.923  0.00  0.00    -0.106 S 
ATOM     10  C   UNL     1       2.453 -12.524  -3.935  0.00  0.00    +0.042 C 
ATOM     11  C   UNL     1       3.429 -13.346  -3.067  0.00  0.00    +0.009 C 
ATOM     12  C   UNL     1       2.720 -13.311  -1.699  0.00  0.00    +0.033 C 
BRANCH   6  13
ATOM     13  C   UNL     1       0.634 -12.105   0.412  0.00  0.00    +0.223 C 
ATOM     14  O   UNL     1       0.665 -13.306   0.247  0.00  0.00    -0.275 OA
ATOM     15  N   UNL     1       0.058 -11.591   1.517  0.00  0.00    -0.308 N 
ATOM     16  H   UNL     1       0.033 -10.630   1.648  0.00  0.00    +0.149 HD
BRANCH  15  17
ATOM     17  C   UNL     1      -0.530 -12.483   2.519  0.00  0.00    +0.178 C 
BRANCH  17  18
ATOM     18  C   UNL     1      -1.103 -11.664   3.646  0.00  0.00    +0.122 A 
ATOM     19  C   UNL     1      -2.362 -11.194   3.717  0.00  0.00    +0.046 A 
ATOM     20  C   UNL     1      -2.467 -10.485   4.935  0.00  0.00    +0.041 A 
ATOM     21  C   UNL     1      -1.266 -10.563   5.536  0.00  0.00    +0.195 A 
ATOM     22  O   UNL     1      -0.446 -11.283   4.754  0.00  0.00    -0.466 OA
ENDBRANCH  17  18
ENDBRANCH  15  17
ENDBRANCH   6  13
ENDBRANCH   3   5
BRANCH   1  26
ATOM     23  C   UNL     1       0.058  -4.243  -0.037  0.00  0.00    +0.080 C 
ATOM     24  N   UNL     1       0.068  -5.054   0.997  0.00  0.00    -0.153 NA
ATOM     25  N   UNL     1       0.083  -6.292   0.690  0.00  0.00    -0.148 NA
ATOM     26  C   UNL     1       0.086  -6.530  -0.596  0.00  0.00    +0.131 C 
ATOM     27  C   UNL     1       0.064  -5.159  -1.250  0.00  0.00    +0.120 C 
BRANCH  23  32
ATOM     28  C   UNL     1      -0.018   1.503   0.010  0.00  0.00    +0.044 C 
ATOM     29  C   UNL     1       0.002  -0.004   0.002  0.00  0.00    -0.044 A 
ATOM     30  C   UNL     1       0.006  -0.686  -1.206  0.00  0.00    +0.004 A 
ATOM     31  C   UNL     1       0.024  -2.062  -1.228  0.00  0.00    +0.013 A 
ATOM     32  C   UNL     1       0.039  -2.779  -0.023  0.00  0.00    +0.040 A 
ATOM     33  C   UNL     1       0.036  -2.082   1.199  0.00  0.00    +0.129 A 
ATOM     34  C   UNL     1       0.023  -0.696   1.197  0.00  0.00    -0.005 A 
ATOM     35  C   UNL     1       0.025   0.058   2.502  0.00  0.00    +0.048 C 
BRANCH  33  36
ATOM     36  O   UNL     1       0.051  -2.762   2.372  0.00  0.00    -0.506 OA
ATOM     37  H   UNL     1       0.938  -2.948   2.708  0.00  0.00    +0.292 HD
ENDBRANCH  33  36
ENDBRANCH  23  32
ENDBRANCH   1  26
TORSDOF 7
