REMARK  Name = ZINC13103205
REMARK  6 active torsions:
REMARK  status: ('A' for Active; 'I' for Inactive)
REMARK    1  A    between atoms: C_1  and  O_2
REMARK    2  A    between atoms: O_2  and  C_3
REMARK    3  A    between atoms: C_3  and  C_4
REMARK    4  A    between atoms: C_4  and  N_5
REMARK    5  A    between atoms: N_14  and  C_15
REMARK    6  A    between atoms: C_15  and  C_17
REMARK                            x       y       z     vdW  Elec       q    Type
REMARK                         _______ _______ _______ _____ _____    ______ ____
ROOT
ATOM      1  N   UNL     1       1.060  -2.111  -0.004  0.00  0.00    -0.319 N 
ATOM      2  C   UNL     1       1.210  -0.737   0.041  0.00  0.00    +0.058 A 
ATOM      3  C   UNL     1       2.412  -0.008   0.062  0.00  0.00    +0.027 A 
ATOM      4  C   UNL     1       2.403   1.365   0.108  0.00  0.00    +0.002 A 
ATOM      5  C   UNL     1       1.214   2.076   0.133  0.00  0.00    +0.001 A 
ATOM      6  C   UNL     1       0.016   1.385   0.113  0.00  0.00    +0.017 A 
ATOM      7  C   UNL     1       0.024   0.011   0.068  0.00  0.00    +0.039 A 
ATOM      8  S   UNL     1      -1.246  -1.231   0.030  0.00  0.00    -0.052 S 
ATOM      9  C   UNL     1      -0.185  -2.666  -0.020  0.00  0.00    +0.167 A 
ATOM     10  N   UNL     1      -0.524  -3.949  -0.061  0.00  0.00    -0.149 NA
ENDROOT
BRANCH  10  11
ATOM     11  C   UNL     1      -1.817  -4.301  -0.069  0.00  0.00    +0.305 C 
ATOM     12  O   UNL     1      -2.683  -3.442  -0.039  0.00  0.00    -0.265 OA
BRANCH  11  13
ATOM     13  C   UNL     1      -2.192  -5.723  -0.115  0.00  0.00    +0.191 A 
ATOM     14  C   UNL     1      -3.463  -6.216  -0.122  0.00  0.00    +0.054 A 
ATOM     15  C   UNL     1      -3.353  -7.616  -0.174  0.00  0.00    +0.042 A 
ATOM     16  C   UNL     1      -2.035  -7.910  -0.186  0.00  0.00    +0.196 A 
ATOM     17  O   UNL     1      -1.338  -6.766  -0.151  0.00  0.00    -0.458 OA
ENDBRANCH  11  13
ENDBRANCH  10  11
BRANCH   1  18
ATOM     18  C   UNL     1       2.243  -2.974  -0.035  0.00  0.00    +0.152 C 
BRANCH  18  19
ATOM     19  C   UNL     1       1.976  -4.236   0.788  0.00  0.00    +0.181 C 
BRANCH  19  21
ATOM     20  C   UNL     1       3.031  -6.221   1.621  0.00  0.00    +0.194 C 
ATOM     21  O   UNL     1       3.172  -5.013   0.869  0.00  0.00    -0.381 OA
ENDBRANCH  19  21
ENDBRANCH  18  19
ENDBRANCH   1  18
TORSDOF 5
