REMARK  Name = ZINC32097007
REMARK  4 active torsions:
REMARK  status: ('A' for Active; 'I' for Inactive)
REMARK    1  A    between atoms: N_9  and  C_12
REMARK    2  A    between atoms: C_12  and  C_13
REMARK    3  A    between atoms: C_18  and  C_21
REMARK    4  A    between atoms: C_18  and  O_28
REMARK                            x       y       z     vdW  Elec       q    Type
REMARK                         _______ _______ _______ _____ _____    ______ ____
ROOT
ATOM      1  C   UNL     1      -2.009  -0.999  -3.439  0.00  0.00    +0.237 C 
ATOM      2  O   UNL     1      -3.179  -1.310  -3.364  0.00  0.00    -0.274 OA
ATOM      3  N   UNL     1      -1.419  -0.343  -2.420  0.00  0.00    -0.300 N 
ATOM      4  C   UNL     1      -2.181   0.003  -1.212  0.00  0.00    +0.111 C 
ATOM      5  C   UNL     1      -1.434  -0.533   0.013  0.00  0.00    +0.058 C 
ATOM      6  C   UNL     1       0.002  -0.004   0.002  0.00  0.00    +0.094 C 
ATOM      7  C   UNL     1       0.720  -0.497  -1.256  0.00  0.00    +0.058 C 
ATOM      8  C   UNL     1      -0.003   0.040  -2.495  0.00  0.00    +0.111 C 
ENDROOT
BRANCH   6   9
ATOM      9  C   UNL     1       0.730  -0.503   1.223  0.00  0.00    -0.016 A 
ATOM     10  C   UNL     1       0.383  -1.716   1.788  0.00  0.00    +0.008 A 
ATOM     11  C   UNL     1       1.054  -2.177   2.904  0.00  0.00    +0.020 A 
ATOM     12  C   UNL     1       2.067  -1.419   3.464  0.00  0.00    +0.041 A 
ATOM     13  C   UNL     1       2.410  -0.202   2.902  0.00  0.00    +0.020 A 
ATOM     14  C   UNL     1       1.742   0.255   1.782  0.00  0.00    +0.008 A 
ATOM     15 CL   UNL     1       2.906  -1.994   4.871  0.00  0.00    -0.084 Cl
ENDBRANCH   6   9
BRANCH   6  16
ATOM     16  O   UNL     1      -0.017   1.425   0.010  0.00  0.00    -0.384 OA
ATOM     17  H   UNL     1       0.928   1.988   0.004  0.00  0.00    +0.211 HD
ENDBRANCH   6  16
BRANCH   1  18
ATOM     18  C   UNL     1      -1.214  -1.347  -4.671  0.00  0.00    +0.244 C 
BRANCH  18  27
ATOM     19  C   UNL     1      -5.159  -2.250  -9.308  0.00  0.00    +0.001 A 
ATOM     20  C   UNL     1      -5.191  -3.633  -9.185  0.00  0.00    +0.002 A 
ATOM     21  C   UNL     1      -4.449  -4.273  -8.218  0.00  0.00    +0.030 A 
ATOM     22  C   UNL     1      -3.652  -3.525  -7.348  0.00  0.00    +0.100 A 
ATOM     23  C   UNL     1      -3.622  -2.119  -7.476  0.00  0.00    +0.068 A 
ATOM     24  C   UNL     1      -4.381  -1.491  -8.462  0.00  0.00    +0.015 A 
ATOM     25  C   UNL     1      -2.779  -1.353  -6.545  0.00  0.00    +0.278 A 
ATOM     26  O   UNL     1      -2.715  -0.139  -6.602  0.00  0.00    -0.265 OA
ATOM     27  N   UNL     1      -2.075  -2.052  -5.624  0.00  0.00    -0.201 N 
ATOM     28  N   UNL     1      -2.172  -3.445  -5.578  0.00  0.00    -0.062 NA
ATOM     29  N   UNL     1      -2.908  -4.121  -6.384  0.00  0.00    -0.131 NA
ENDBRANCH  18  27
ENDBRANCH   1  18
TORSDOF 4
