REMARK  Name = ZINC39534289
REMARK  10 active torsions:
REMARK  status: ('A' for Active; 'I' for Inactive)
REMARK    1  A    between atoms: C_4  and  C_7
REMARK    2  A    between atoms: C_7  and  N_8
REMARK    3  A    between atoms: N_8  and  C_9
REMARK    4  A    between atoms: C_9  and  C_10
REMARK    5  A    between atoms: C_10  and  C_12
REMARK    6  A    between atoms: C_10  and  N_28
REMARK    7  A    between atoms: C_15  and  S_18
REMARK    8  A    between atoms: S_18  and  O_21
REMARK    9  A    between atoms: O_21  and  C_22
REMARK   10  A    between atoms: C_32  and  O_35
REMARK                            x       y       z     vdW  Elec       q    Type
REMARK                         _______ _______ _______ _____ _____    ______ ____
ROOT
ATOM      1  C   UNL     1       5.862  -1.907   2.814  0.00  0.00    +0.100 C 
ENDROOT
BRANCH   1   2
ATOM      2  N   UNL     1       5.986  -0.453   2.978  0.00  0.00    -0.295 NA
ATOM      3  C   UNL     1       6.717   0.144   1.851  0.00  0.00    +0.066 C 
ATOM      4  C   UNL     1       6.773   1.663   2.030  0.00  0.00    -0.063 C 
ATOM      5  N   UNL     1       7.445   1.982   3.297  0.00  0.00    +0.398 N 
ATOM      6  C   UNL     1       6.690   1.400   4.414  0.00  0.00    +0.073 C 
ATOM      7  C   UNL     1       6.633  -0.121   4.255  0.00  0.00    +0.096 C 
ATOM      8  H   UNL     1       8.379   1.600   3.287  0.00  0.00    -0.082 HD
ATOM      9  H   UNL     1       7.493   2.984   3.408  0.00  0.00    -0.082 HD
BRANCH   6  10
ATOM     10  O   UNL     1       7.336   1.726   5.646  0.00  0.00    -0.409 OA
ATOM     11  H   UNL     1       7.407   2.676   5.814  0.00  0.00    +0.207 HD
ENDBRANCH   6  10
ENDBRANCH   1   2
BRANCH   1  12
ATOM     12  C   UNL     1       7.234  -2.519   2.698  0.00  0.00    -0.029 A 
ATOM     13  C   UNL     1       7.740  -3.283   3.734  0.00  0.00    +0.007 A 
ATOM     14  C   UNL     1       8.998  -3.844   3.628  0.00  0.00    +0.031 A 
ATOM     15  C   UNL     1       9.752  -3.642   2.486  0.00  0.00    +0.128 A 
ATOM     16  C   UNL     1       9.245  -2.879   1.450  0.00  0.00    +0.031 A 
ATOM     17  C   UNL     1       7.985  -2.321   1.555  0.00  0.00    +0.007 A 
BRANCH  15  18
ATOM     18  S   UNL     1      11.357  -4.356   2.352  0.00  0.00    +0.151 S 
ATOM     19  O   UNL     1      12.075  -3.567   1.413  0.00  0.00    -0.131 OA
ATOM     20  O   UNL     1      11.818  -4.571   3.678  0.00  0.00    -0.131 OA
BRANCH  18  21
ATOM     21  O   UNL     1      11.186  -5.731   1.723  0.00  0.00    -0.342 OA
BRANCH  21  22
ATOM     22  C   UNL     1      10.930  -5.701   0.388  0.00  0.00    +0.157 A 
ATOM     23  C   UNL     1       9.621  -5.637  -0.067  0.00  0.00    +0.048 A 
ATOM     24  C   UNL     1       9.363  -5.606  -1.424  0.00  0.00    +0.004 A 
ATOM     25  C   UNL     1      10.409  -5.639  -2.328  0.00  0.00    +0.000 A 
ATOM     26  C   UNL     1      11.714  -5.703  -1.877  0.00  0.00    +0.004 A 
ATOM     27  C   UNL     1      11.977  -5.728  -0.521  0.00  0.00    +0.048 A 
ENDBRANCH  21  22
ENDBRANCH  18  21
ENDBRANCH  15  18
ENDBRANCH   1  12
BRANCH   1  28
ATOM     28  C   UNL     1       5.060  -2.211   1.547  0.00  0.00    +0.104 C 
BRANCH  28  29
ATOM     29  N   UNL     1       3.767  -1.515   1.607  0.00  0.00    -0.310 NA
ATOM     30  H   UNL     1       3.896  -0.524   1.741  0.00  0.00    +0.122 HD
BRANCH  29  31
ATOM     31  C   UNL     1       2.968  -1.784   0.404  0.00  0.00    +0.116 C 
BRANCH  31  35
ATOM     32  C   UNL     1      -0.762   0.279   0.679  0.00  0.00    +0.000 A 
ATOM     33  C   UNL     1       0.329   0.899   0.099  0.00  0.00    +0.000 A 
ATOM     34  C   UNL     1       1.536   0.231   0.010  0.00  0.00    +0.005 A 
ATOM     35  C   UNL     1       1.652  -1.056   0.502  0.00  0.00    -0.034 A 
ATOM     36  C   UNL     1       0.561  -1.675   1.083  0.00  0.00    +0.005 A 
ATOM     37  C   UNL     1      -0.646  -1.008   1.170  0.00  0.00    +0.000 A 
ENDBRANCH  31  35
ENDBRANCH  29  31
ENDBRANCH  28  29
ENDBRANCH   1  28
TORSDOF 10
