REMARK  Name = ZINC39918549
REMARK  8 active torsions:
REMARK  status: ('A' for Active; 'I' for Inactive)
REMARK    1  A    between atoms: C_1  and  C_2
REMARK    2  A    between atoms: N_8  and  C_9
REMARK    3  A    between atoms: N_17  and  C_20
REMARK    4  A    between atoms: C_20  and  C_21
REMARK    5  A    between atoms: C_24  and  C_28
REMARK    6  A    between atoms: C_25  and  N_27
REMARK    7  A    between atoms: C_28  and  O_30
REMARK    8  A    between atoms: O_30  and  C_31
REMARK                            x       y       z     vdW  Elec       q    Type
REMARK                         _______ _______ _______ _____ _____    ______ ____
ROOT
ATOM      1  C   UNL     1      -0.018   1.486   0.076  0.00  0.00    +0.064 C 
ATOM      2  C   UNL     1       0.008  -0.020   0.048  0.00  0.00    +0.022 A 
ATOM      3  C   UNL     1      -0.005  -0.664  -1.139  0.00  0.00    +0.068 A 
ATOM      4  C   UNL     1       0.019  -2.074  -1.172  0.00  0.00    +0.142 A 
ATOM      5  C   UNL     1       0.054  -2.768   0.019  0.00  0.00    +0.083 A 
ATOM      6  C   UNL     1       0.066  -2.057   1.226  0.00  0.00    +0.260 A 
ATOM      7  O   UNL     1       0.098  -2.659   2.288  0.00  0.00    -0.267 OA
ATOM      8  N   UNL     1       0.050  -0.711   1.216  0.00  0.00    -0.315 N 
ATOM      9  C   UNL     1       0.072   0.019   2.486  0.00  0.00    +0.152 C 
ATOM     10  C   UNL     1       0.077  -4.270   0.028  0.00  0.00    +0.144 C 
ATOM     11  C   UNL     1       1.422  -4.782   0.442  0.00  0.00    -0.002 A 
ATOM     12  C   UNL     1       2.669  -4.634  -0.126  0.00  0.00    +0.007 A 
ATOM     13  C   UNL     1       3.735  -5.249   0.524  0.00  0.00    +0.000 A 
ATOM     14  C   UNL     1       3.548  -5.973   1.684  0.00  0.00    +0.002 A 
ATOM     15  C   UNL     1       2.297  -6.126   2.260  0.00  0.00    +0.024 A 
ATOM     16  C   UNL     1       1.219  -5.513   1.618  0.00  0.00    +0.041 A 
ATOM     17  N   UNL     1      -0.120  -5.501   1.968  0.00  0.00    -0.270 N 
ATOM     18  C   UNL     1      -0.865  -4.795   1.092  0.00  0.00    +0.240 C 
ATOM     19  O   UNL     1      -2.063  -4.614   1.147  0.00  0.00    -0.274 OA
ATOM     20  C   UNL     1      -0.315  -4.814  -1.315  0.00  0.00    +0.117 C 
ATOM     21  C   UNL     1      -0.327  -4.019  -2.416  0.00  0.00    +0.196 C 
ATOM     22  O   UNL     1       0.010  -2.720  -2.357  0.00  0.00    -0.441 OA
ENDROOT
BRANCH  21  23
ATOM     23  N   UNL     1      -0.694  -4.556  -3.621  0.00  0.00    -0.329 N 
ATOM     24  H   UNL     1      -1.013  -5.471  -3.667  0.00  0.00    +0.145 HD
ATOM     25  H   UNL     1      -0.634  -4.022  -4.428  0.00  0.00    +0.145 HD
ENDBRANCH  21  23
BRANCH  20  26
ATOM     26  C   UNL     1      -0.674  -6.165  -1.435  0.00  0.00    +0.341 C 
ATOM     27  O   UNL     1       0.189  -7.023  -1.479  0.00  0.00    -0.245 OA
BRANCH  26  28
ATOM     28  O   UNL     1      -1.978  -6.514  -1.502  0.00  0.00    -0.465 OA
ATOM     29  C   UNL     1      -2.271  -7.907  -1.624  0.00  0.00    +0.280 C 
ENDBRANCH  26  28
ENDBRANCH  20  26
BRANCH  17  30
ATOM     30  C   UNL     1      -0.664  -6.175   3.149  0.00  0.00    +0.117 C 
BRANCH  30  31
ATOM     31  C   UNL     1      -0.639  -5.216   4.340  0.00  0.00    +0.007 C 
ATOM     32  C   UNL     1       0.246  -5.592   5.531  0.00  0.00    +0.005 C 
ATOM     33  C   UNL     1      -1.276  -5.695   5.646  0.00  0.00    +0.005 C 
ENDBRANCH  30  31
ENDBRANCH  17  30
TORSDOF 5
