REMARK  Name = ZINC21220281
REMARK  9 active torsions:
REMARK  status: ('A' for Active; 'I' for Inactive)
REMARK    1  A    between atoms: C_1  and  O_2
REMARK    2  A    between atoms: O_2  and  C_3
REMARK    3  A    between atoms: C_7  and  C_9
REMARK    4  A    between atoms: C_14  and  C_24
REMARK    5  A    between atoms: C_26  and  O_33
REMARK    6  A    between atoms: C_27  and  O_32
REMARK    7  A    between atoms: C_28  and  O_30
REMARK    8  A    between atoms: O_30  and  C_31
REMARK    9  A    between atoms: O_33  and  C_34
REMARK                            x       y       z     vdW  Elec       q    Type
REMARK                         _______ _______ _______ _____ _____    ______ ____
ROOT
ATOM      1  C   UNL     1      -0.612   0.604  -1.157  0.00  0.00    +0.032 C 
ATOM      2  C   UNL     1      -1.099   1.106  -2.514  0.00  0.00    +0.059 C 
ATOM      3  C   UNL     1      -0.114   0.705  -3.599  0.00  0.00    +0.017 C 
ATOM      4  C   UNL     1       1.200   0.623  -3.329  0.00  0.00    +0.036 C 
ATOM      5  C   UNL     1       2.287   0.261  -4.313  0.00  0.00    +0.136 C 
ATOM      6  N   UNL     1       1.804  -0.268  -5.571  0.00  0.00    -0.331 N 
ATOM      7  C   UNL     1       1.047   0.517  -6.439  0.00  0.00    +0.049 A 
ATOM      8  C   UNL     1       1.545   0.922  -7.667  0.00  0.00    +0.025 A 
ATOM      9  C   UNL     1       0.804   1.791  -8.449  0.00  0.00    +0.002 A 
ATOM     10  C   UNL     1      -0.425   2.251  -8.011  0.00  0.00    +0.002 A 
ATOM     11  C   UNL     1      -0.935   1.831  -6.795  0.00  0.00    +0.025 A 
ATOM     12  C   UNL     1      -0.202   0.949  -6.020  0.00  0.00    +0.052 A 
ATOM     13  N   UNL     1      -0.674   0.454  -4.810  0.00  0.00    -0.316 N 
ATOM     14  C   UNL     1       1.676   0.887  -2.023  0.00  0.00    +0.163 C 
ATOM     15  O   UNL     1       2.872   0.829  -1.812  0.00  0.00    -0.292 OA
ATOM     16  C   UNL     1       0.759   1.237  -0.890  0.00  0.00    +0.088 C 
ATOM     17  H   UNL     1       2.033  -1.306  -5.856  0.00  0.00    +0.147 HD
ATOM     18  H   UNL     1      -1.568  -0.183  -4.880  0.00  0.00    +0.152 HD
ENDROOT
BRANCH   1  23
ATOM     19  C   UNL     1      -3.091   0.432   1.690  0.00  0.00    +0.120 A 
ATOM     20  C   UNL     1      -3.365   1.776   1.897  0.00  0.00    +0.045 A 
ATOM     21  C   UNL     1      -2.748   2.734   1.115  0.00  0.00    +0.004 A 
ATOM     22  C   UNL     1      -1.854   2.354   0.132  0.00  0.00    +0.004 A 
ATOM     23  C   UNL     1      -1.583   1.015  -0.080  0.00  0.00    -0.040 A 
ATOM     24  C   UNL     1      -2.198   0.053   0.699  0.00  0.00    +0.049 A 
BRANCH  19  26
ATOM     25  C   UNL     1      -4.605  -0.049   3.459  0.00  0.00    +0.277 C 
ATOM     26  O   UNL     1      -3.697  -0.512   2.457  0.00  0.00    -0.495 OA
ENDBRANCH  19  26
ENDBRANCH   1  23
BRANCH   5  27
ATOM     27  C   UNL     1       3.105   1.494  -4.595  0.00  0.00    -0.016 A 
ATOM     28  C   UNL     1       4.455   1.509  -4.296  0.00  0.00    +0.055 A 
ATOM     29  C   UNL     1       5.213   2.640  -4.560  0.00  0.00    +0.165 A 
ATOM     30  C   UNL     1       4.612   3.763  -5.115  0.00  0.00    +0.201 A 
ATOM     31  C   UNL     1       3.254   3.746  -5.410  0.00  0.00    +0.165 A 
ATOM     32  C   UNL     1       2.504   2.609  -5.148  0.00  0.00    +0.055 A 
BRANCH  31  33
ATOM     33  O   UNL     1       2.661   4.842  -5.954  0.00  0.00    -0.491 OA
ATOM     34  C   UNL     1       1.262   4.753  -6.231  0.00  0.00    +0.277 C 
ENDBRANCH  31  33
BRANCH  30  35
ATOM     35  O   UNL     1       5.351   4.877  -5.370  0.00  0.00    -0.501 OA
ATOM     36  H   UNL     1       4.874   5.766  -5.809  0.00  0.00    +0.292 HD
ENDBRANCH  30  35
BRANCH  29  37
ATOM     37  O   UNL     1       6.542   2.652  -4.270  0.00  0.00    -0.491 OA
ATOM     38  C   UNL     1       7.114   1.431  -3.798  0.00  0.00    +0.277 C 
ENDBRANCH  29  37
ENDBRANCH   5  27
TORSDOF 6
