REMARK  Name = ZINC28687281
REMARK  6 active torsions:
REMARK  status: ('A' for Active; 'I' for Inactive)
REMARK    1  A    between atoms: C_1  and  C_2
REMARK    2  A    between atoms: C_7  and  S_15
REMARK    3  A    between atoms: C_12  and  C_14
REMARK    4  A    between atoms: S_15  and  N_18
REMARK    5  A    between atoms: N_18  and  C_19
REMARK    6  A    between atoms: C_28  and  C_31
REMARK                            x       y       z     vdW  Elec       q    Type
REMARK                         _______ _______ _______ _____ _____    ______ ____
ROOT
ATOM      1  S   UNL     1      -5.828   2.625   6.275  0.00  0.00    +0.072 S 
ATOM      2  O   UNL     1      -6.349   2.800   7.585  0.00  0.00    -0.150 OA
ATOM      3  O   UNL     1      -4.985   3.586   5.655  0.00  0.00    -0.150 OA
ENDROOT
BRANCH   1   9
ATOM      4  C   UNL     1      -9.851   1.055   0.277  0.00  0.00    +0.029 C 
ATOM      5  C   UNL     1      -9.763   2.263   1.212  0.00  0.00    +0.083 C 
ATOM      6  C   UNL     1      -8.294   2.603   1.511  0.00  0.00    +0.059 C 
ATOM      7  C   UNL     1      -8.164   2.444   3.009  0.00  0.00    -0.022 A 
ATOM      8  C   UNL     1      -7.080   2.621   3.848  0.00  0.00    +0.034 A 
ATOM      9  C   UNL     1      -7.213   2.406   5.207  0.00  0.00    +0.109 A 
ATOM     10  C   UNL     1      -8.435   2.023   5.728  0.00  0.00    +0.030 A 
ATOM     11  C   UNL     1      -9.521   1.851   4.895  0.00  0.00    +0.026 A 
ATOM     12  C   UNL     1      -9.393   2.061   3.520  0.00  0.00    +0.040 A 
ATOM     13  N   UNL     1     -10.356   1.943   2.513  0.00  0.00    -0.268 N 
ATOM     14  C   UNL     1     -11.641   1.587   2.710  0.00  0.00    +0.217 C 
ATOM     15  O   UNL     1     -12.014   1.249   3.813  0.00  0.00    -0.276 OA
ATOM     16  C   UNL     1     -12.614   1.610   1.560  0.00  0.00    +0.109 C 
ENDBRANCH   1   9
BRANCH   1  17
ATOM     17  N   UNL     1      -4.988   1.197   6.287  0.00  0.00    -0.216 N 
ATOM     18  H   UNL     1      -4.933   0.600   7.209  0.00  0.00    +0.174 HD
BRANCH  17  19
ATOM     19  C   UNL     1      -4.350   0.751   5.125  0.00  0.00    +0.050 A 
ATOM     20  C   UNL     1      -4.905  -0.281   4.380  0.00  0.00    +0.028 A 
ATOM     21  C   UNL     1      -4.278  -0.724   3.230  0.00  0.00    +0.049 A 
ATOM     22  C   UNL     1      -3.093  -0.139   2.820  0.00  0.00    +0.143 A 
ATOM     23  C   UNL     1      -2.532   0.896   3.565  0.00  0.00    +0.078 A 
ATOM     24  C   UNL     1      -3.161   1.341   4.716  0.00  0.00    +0.051 A 
ATOM     25  N   UNL     1      -1.331   1.478   3.136  0.00  0.00    -0.279 N 
ATOM     26  C   UNL     1      -0.909   1.254   1.873  0.00  0.00    +0.258 C 
ATOM     27  O   UNL     1       0.142   1.722   1.490  0.00  0.00    -0.271 OA
ATOM     28  C   UNL     1      -1.752   0.421   0.940  0.00  0.00    +0.256 C 
ATOM     29  O   UNL     1      -2.466  -0.565   1.689  0.00  0.00    -0.478 OA
ATOM     30  C   UNL     1      -0.847  -0.271  -0.082  0.00  0.00    +0.062 C 
ATOM     31  H   UNL     1      -0.746   2.104   3.826  0.00  0.00    +0.155 HD
ENDBRANCH  17  19
ENDBRANCH   1  17
TORSDOF 3
