REMARK  Name = ZINC39637552
REMARK  7 active torsions:
REMARK  status: ('A' for Active; 'I' for Inactive)
REMARK    1  A    between atoms: C_1  and  C_2
REMARK    2  A    between atoms: C_4  and  C_8
REMARK    3  A    between atoms: N_6  and  C_7
REMARK    4  A    between atoms: C_12  and  C_21
REMARK    5  A    between atoms: N_23  and  C_24
REMARK    6  A    between atoms: C_29  and  C_34
REMARK    7  A    between atoms: C_31  and  C_33
REMARK                            x       y       z     vdW  Elec       q    Type
REMARK                         _______ _______ _______ _____ _____    ______ ____
ROOT
ATOM      1  C   UNL     1       0.162  -3.202  -1.126  0.00  0.00    +0.267 C 
ATOM      2  O   UNL     1       0.192  -3.034  -2.330  0.00  0.00    -0.268 OA
ATOM      3  N   UNL     1       0.140  -4.451  -0.620  0.00  0.00    -0.295 N 
ATOM      4  C   UNL     1       0.096  -4.853   0.806  0.00  0.00    +0.121 C 
ATOM      5  C   UNL     1      -0.860  -6.066   0.841  0.00  0.00    +0.100 C 
ATOM      6  C   UNL     1      -0.818  -6.640  -0.585  0.00  0.00    -0.004 C 
ATOM      7  C   UNL     1       0.145  -5.733  -1.365  0.00  0.00    +0.115 C 
ATOM      8  C   UNL     1      -2.206  -6.590  -1.216  0.00  0.00    -0.010 C 
ATOM      9  C   UNL     1      -2.150  -7.218  -2.612  0.00  0.00    -0.082 C 
ATOM     10  N   UNL     1      -1.688  -8.608  -2.506  0.00  0.00    +0.379 N 
ATOM     11  C   UNL     1      -0.317  -8.641  -1.985  0.00  0.00    -0.082 C 
ATOM     12  C   UNL     1      -0.295  -8.073  -0.563  0.00  0.00    -0.010 C 
ATOM     13  H   UNL     1      -2.296  -9.117  -1.883  0.00  0.00    -0.086 HD
ATOM     14  H   UNL     1      -1.710  -9.038  -3.419  0.00  0.00    -0.086 HD
ENDROOT
BRANCH   1  18
ATOM     15  C   UNL     1       0.161   1.525   0.703  0.00  0.00    +0.065 C 
ATOM     16  C   UNL     1       0.151   0.025   0.563  0.00  0.00    +0.037 A 
ATOM     17  C   UNL     1       0.172  -0.674  -0.597  0.00  0.00    +0.057 A 
ATOM     18  C   UNL     1       0.151  -2.037  -0.218  0.00  0.00    +0.147 A 
ATOM     19  N   UNL     1       0.120  -2.069   1.099  0.00  0.00    -0.167 NA
ATOM     20  N   UNL     1       0.124  -0.874   1.570  0.00  0.00    -0.271 N 
ATOM     21  C   UNL     1       0.100  -0.535   2.995  0.00  0.00    +0.172 C 
ENDBRANCH   1  18
BRANCH   5  22
ATOM     22  C   UNL     1      -2.258  -5.622   1.189  0.00  0.00    +0.218 C 
ATOM     23  O   UNL     1      -2.640  -4.516   0.868  0.00  0.00    -0.275 OA
ATOM     24  N   UNL     1      -3.082  -6.453   1.857  0.00  0.00    -0.312 N 
ATOM     25  H   UNL     1      -2.776  -7.337   2.113  0.00  0.00    +0.149 HD
BRANCH  24  26
ATOM     26  C   UNL     1      -4.441  -6.022   2.195  0.00  0.00    +0.076 C 
ATOM     27  C   UNL     1      -5.371  -6.288   1.010  0.00  0.00    +0.022 C 
ATOM     28  C   UNL     1      -6.789  -5.838   1.363  0.00  0.00    +0.002 C 
ATOM     29  C   UNL     1      -7.283  -6.617   2.584  0.00  0.00    +0.003 C 
ATOM     30  C   UNL     1      -6.353  -6.350   3.769  0.00  0.00    -0.009 C 
ATOM     31  C   UNL     1      -4.934  -6.801   3.416  0.00  0.00    +0.009 C 
ATOM     32  C   UNL     1      -4.004  -6.534   4.601  0.00  0.00    +0.009 C 
ATOM     33  C   UNL     1      -6.348  -4.854   4.088  0.00  0.00    +0.008 C 
ENDBRANCH  24  26
ENDBRANCH   5  22
TORSDOF 3
