REMARK  Name = ZINC04292582
REMARK  6 active torsions:
REMARK  status: ('A' for Active; 'I' for Inactive)
REMARK    1  A    between atoms: C_4  and  N_7
REMARK    2  A    between atoms: C_10  and  C_12
REMARK    3  A    between atoms: C_16  and  C_24
REMARK    4  A    between atoms: C_18  and  C_22
REMARK    5  A    between atoms: C_19  and  N_21
REMARK    6  A    between atoms: C_27  and  O_30
REMARK                            x       y       z     vdW  Elec       q    Type
REMARK                         _______ _______ _______ _____ _____    ______ ____
ROOT
ATOM      1  N   UNL     1      -0.017   1.397   0.010  0.00  0.00    -0.199 N 
ATOM      2  C   UNL     1       1.063   2.209   0.004  0.00  0.00    +0.230 A 
ATOM      3  C   UNL     1       0.608   3.498   0.013  0.00  0.00    +0.059 A 
ATOM      4  C   UNL     1      -0.780   3.466   0.026  0.00  0.00    +0.173 A 
ATOM      5  N   UNL     1      -1.162   2.210   0.019  0.00  0.00    -0.159 NA
ATOM      6  C   UNL     1       1.535   4.687   0.007  0.00  0.00    +0.102 C 
ATOM      7  C   UNL     1       2.932   4.196   0.293  0.00  0.00    +0.098 C 
ATOM      8  C   UNL     1       3.259   2.885   0.267  0.00  0.00    +0.200 C 
ATOM      9  O   UNL     1       2.382   1.897  -0.007  0.00  0.00    -0.423 OA
ENDROOT
BRANCH   1  13
ATOM     10  C   UNL     1       0.040  -2.771  -0.013  0.00  0.00    +0.000 A 
ATOM     11  C   UNL     1      -0.945  -2.098   0.687  0.00  0.00    +0.002 A 
ATOM     12  C   UNL     1      -0.966  -0.717   0.697  0.00  0.00    +0.028 A 
ATOM     13  C   UNL     1       0.002  -0.004   0.002  0.00  0.00    +0.069 A 
ATOM     14  C   UNL     1       0.986  -0.682  -0.705  0.00  0.00    +0.028 A 
ATOM     15  C   UNL     1       1.006  -2.064  -0.705  0.00  0.00    +0.002 A 
ENDBRANCH   1  13
BRANCH   6  16
ATOM     16  C   UNL     1       1.496   5.355  -1.343  0.00  0.00    -0.034 A 
ATOM     17  C   UNL     1       1.865   4.649  -2.473  0.00  0.00    +0.008 A 
ATOM     18  C   UNL     1       1.825   5.258  -3.712  0.00  0.00    +0.046 A 
ATOM     19  C   UNL     1       1.427   6.582  -3.821  0.00  0.00    +0.117 A 
ATOM     20  C   UNL     1       1.063   7.290  -2.685  0.00  0.00    +0.046 A 
ATOM     21  C   UNL     1       1.099   6.675  -1.448  0.00  0.00    +0.008 A 
BRANCH  19  22
ATOM     22  O   UNL     1       1.393   7.185  -5.038  0.00  0.00    -0.507 OA
ATOM     23  H   UNL     1       2.221   7.620  -5.285  0.00  0.00    +0.292 HD
ENDBRANCH  19  22
ENDBRANCH   6  16
BRANCH   4  24
ATOM     24  C   UNL     1      -1.692   4.665   0.040  0.00  0.00    +0.436 C 
ATOM     25  F   UNL     1      -1.986   5.043  -1.275  0.00  0.00    -0.164 F 
ATOM     26  F   UNL     1      -2.877   4.343   0.709  0.00  0.00    -0.164 F 
ATOM     27  F   UNL     1      -1.058   5.725   0.698  0.00  0.00    -0.164 F 
ENDBRANCH   4  24
BRANCH   8  28
ATOM     28  N   UNL     1       4.560   2.538   0.537  0.00  0.00    -0.328 N 
ATOM     29  H   UNL     1       5.214   3.226   0.738  0.00  0.00    +0.145 HD
ATOM     30  H   UNL     1       4.825   1.605   0.526  0.00  0.00    +0.145 HD
ENDBRANCH   8  28
BRANCH   7  31
ATOM     31  C   UNL     1       3.950   5.154   0.603  0.00  0.00    +0.101 C 
ATOM     32  N   UNL     1       4.757   5.915   0.849  0.00  0.00    -0.191 NA
ENDBRANCH   7  31
TORSDOF 6
