REMARK  Name = ZINC09043074
REMARK  9 active torsions:
REMARK  status: ('A' for Active; 'I' for Inactive)
REMARK    1  A    between atoms: C_1  and  N_60
REMARK    2  A    between atoms: C_2  and  N_60
REMARK    3  A    between atoms: C_3  and  C_4
REMARK    4  A    between atoms: C_3  and  N_60
REMARK    5  A    between atoms: C_4  and  C_5
REMARK    6  A    between atoms: C_5  and  N_6
REMARK    7  A    between atoms: C_12  and  C_25
REMARK    8  A    between atoms: C_30  and  O_31
REMARK    9  A    between atoms: O_31  and  C_32
REMARK                            x       y       z     vdW  Elec       q    Type
REMARK                         _______ _______ _______ _____ _____    ______ ____
ROOT
ATOM      1  N   UNL     1       0.877   6.278  -2.870  0.00  0.00    -0.318 N 
ATOM      2  C   UNL     1       2.067   6.655  -2.337  0.00  0.00    +0.204 A 
ATOM      3  N   UNL     1       2.321   6.517  -1.068  0.00  0.00    -0.202 NA
ATOM      4  C   UNL     1       1.423   5.991  -0.213  0.00  0.00    +0.229 A 
ATOM      5  C   UNL     1       0.205   5.591  -0.672  0.00  0.00    +0.066 A 
ATOM      6  C   UNL     1      -0.090   5.735  -2.047  0.00  0.00    +0.115 A 
ATOM      7  C   UNL     1      -0.819   5.003   0.257  0.00  0.00    +0.095 C 
ATOM      8  C   UNL     1      -0.471   5.321   1.686  0.00  0.00    +0.015 A 
ATOM      9  C   UNL     1      -1.463   5.191   2.680  0.00  0.00    -0.010 A 
ATOM     10  C   UNL     1      -2.767   4.772   2.357  0.00  0.00    +0.009 A 
ATOM     11  C   UNL     1      -3.697   4.651   3.343  0.00  0.00    +0.001 A 
ATOM     12  C   UNL     1      -3.380   4.936   4.670  0.00  0.00    +0.001 A 
ATOM     13  C   UNL     1      -2.129   5.344   5.019  0.00  0.00    +0.008 A 
ATOM     14  C   UNL     1      -1.142   5.483   4.028  0.00  0.00    -0.017 A 
ATOM     15  C   UNL     1       0.160   5.906   4.349  0.00  0.00    +0.012 A 
ATOM     16  C   UNL     1       1.090   6.025   3.366  0.00  0.00    +0.047 A 
ATOM     17  C   UNL     1       0.778   5.732   2.030  0.00  0.00    +0.135 A 
ATOM     18  O   UNL     1       1.748   5.866   1.091  0.00  0.00    -0.437 OA
ATOM     19  H   UNL     1      -1.540   5.425  -3.463  0.00  0.00    +0.157 HD
ATOM     20  N   UNL     1      -1.294   5.335  -2.477  0.00  0.00    -0.384 N 
ATOM     21  H   UNL     1      -1.970   4.938  -1.813  0.00  0.00    +0.157 HD
ENDROOT
BRANCH   7  22
ATOM     22  C   UNL     1      -0.858   3.508   0.074  0.00  0.00    +0.006 A 
ATOM     23  C   UNL     1       0.274   2.752   0.312  0.00  0.00    +0.008 A 
ATOM     24  C   UNL     1       0.239   1.381   0.144  0.00  0.00    +0.001 A 
ATOM     25  C   UNL     1      -0.928   0.761  -0.263  0.00  0.00    +0.004 A 
ATOM     26  C   UNL     1      -2.061   1.512  -0.507  0.00  0.00    +0.046 A 
ATOM     27  C   UNL     1      -2.030   2.889  -0.335  0.00  0.00    +0.124 A 
BRANCH  27  28
ATOM     28  O   UNL     1      -3.145   3.629  -0.570  0.00  0.00    -0.495 OA
ATOM     29  C   UNL     1      -4.316   2.925  -0.987  0.00  0.00    +0.277 C 
ENDBRANCH  27  28
ENDBRANCH   7  22
BRANCH   1  30
ATOM     30  C   UNL     1       0.622   6.445  -4.303  0.00  0.00    +0.123 C 
BRANCH  30  31
ATOM     31  C   UNL     1      -0.109   7.768  -4.539  0.00  0.00    +0.003 C 
BRANCH  31  32
ATOM     32  C   UNL     1      -0.377   7.943  -6.035  0.00  0.00    -0.078 C 
BRANCH  32  35
ATOM     33  C   UNL     1      -0.220  10.357  -5.925  0.00  0.00    -0.097 C 
ATOM     34  C   UNL     1      -1.561   9.308  -7.646  0.00  0.00    -0.097 C 
ATOM     35  N   UNL     1      -1.101   9.214  -6.245  0.00  0.00    +0.376 N 
ATOM     36  H   UNL     1      -1.918   9.239  -5.624  0.00  0.00    -0.083 HD
ENDBRANCH  32  35
ENDBRANCH  31  32
ENDBRANCH  30  31
ENDBRANCH   1  30
TORSDOF 6
