REMARK  Name = ZINC36028072
REMARK  9 active torsions:
REMARK  status: ('A' for Active; 'I' for Inactive)
REMARK    1  A    between atoms: C_1  and  C_2
REMARK    2  A    between atoms: C_2  and  C_3
REMARK    3  A    between atoms: C_3  and  C_5
REMARK    4  A    between atoms: C_3  and  C_6
REMARK    5  A    between atoms: N_10  and  C_31
REMARK    6  A    between atoms: N_15  and  S_18
REMARK    7  A    between atoms: S_18  and  C_21
REMARK    8  A    between atoms: C_25  and  C_27
REMARK    9  A    between atoms: C_31  and  C_32
REMARK                            x       y       z     vdW  Elec       q    Type
REMARK                         _______ _______ _______ _____ _____    ______ ____
ROOT
ATOM      1  C   UNL     1      -1.325  -1.999   0.168  0.00  0.00    +0.022 C 
ATOM      2  C   UNL     1      -0.743  -2.436   1.495  0.00  0.00    +0.201 C 
ATOM      3  O   UNL     1       0.242  -1.968   2.025  0.00  0.00    -0.277 OA
ATOM      4  N   UNL     1      -1.506  -3.433   1.989  0.00  0.00    -0.306 N 
ATOM      5  C   UNL     1      -2.600  -3.719   1.057  0.00  0.00    +0.006 C 
ATOM      6  N   UNL     1      -2.702  -2.550   0.156  0.00  0.00    +0.401 N 
ATOM      7  C   UNL     1      -3.912  -3.899   1.820  0.00  0.00    +0.023 C 
ATOM      8  C   UNL     1      -3.784  -5.089   2.777  0.00  0.00    +0.109 C 
ATOM      9  N   UNL     1      -3.355  -6.267   2.011  0.00  0.00    -0.177 NA
ATOM     10  C   UNL     1      -2.144  -6.171   1.185  0.00  0.00    +0.109 C 
ATOM     11  C   UNL     1      -2.285  -4.971   0.241  0.00  0.00    +0.023 C 
ATOM     12  H   UNL     1      -3.359  -1.876   0.519  0.00  0.00    -0.082 HD
ATOM     13  H   UNL     1      -2.962  -2.838  -0.776  0.00  0.00    -0.082 HD
ENDROOT
BRANCH   9  14
ATOM     14  S   UNL     1      -4.220  -7.678   2.078  0.00  0.00    +0.061 S 
ATOM     15  O   UNL     1      -3.319  -8.723   1.737  0.00  0.00    -0.153 OA
ATOM     16  O   UNL     1      -4.934  -7.658   3.306  0.00  0.00    -0.153 OA
BRANCH  14  17
ATOM     17  C   UNL     1      -5.424  -7.612   0.793  0.00  0.00    +0.106 A 
ATOM     18  C   UNL     1      -6.671  -7.069   1.042  0.00  0.00    +0.028 A 
ATOM     19  C   UNL     1      -7.616  -7.017   0.034  0.00  0.00    +0.002 A 
ATOM     20  C   UNL     1      -7.313  -7.508  -1.222  0.00  0.00    +0.012 A 
ATOM     21  C   UNL     1      -6.066  -8.050  -1.471  0.00  0.00    +0.057 A 
ATOM     22  C   UNL     1      -5.120  -8.098  -0.464  0.00  0.00    +0.041 A 
BRANCH  21  23
ATOM     23  C   UNL     1      -5.737  -8.585  -2.841  0.00  0.00    +0.417 C 
ATOM     24  F   UNL     1      -6.843  -8.425  -3.683  0.00  0.00    -0.166 F 
ATOM     25  F   UNL     1      -4.646  -7.885  -3.365  0.00  0.00    -0.166 F 
ATOM     26  F   UNL     1      -5.417  -9.944  -2.746  0.00  0.00    -0.166 F 
ENDBRANCH  21  23
ENDBRANCH  14  17
ENDBRANCH   9  14
BRANCH   1  27
ATOM     27  C   UNL     1      -1.362  -0.472   0.080  0.00  0.00    -0.020 C 
ATOM     28  C   UNL     1      -2.021  -0.053  -1.236  0.00  0.00    +0.006 C 
BRANCH  27  30
ATOM     29  C   UNL     1       0.022   1.606   0.171  0.00  0.00    +0.004 C 
ATOM     30  C   UNL     1       0.065   0.077   0.134  0.00  0.00    -0.001 C 
ENDBRANCH  27  30
ENDBRANCH   1  27
BRANCH   4  31
ATOM     31  C   UNL     1      -1.276  -4.123   3.261  0.00  0.00    +0.180 C 
BRANCH  31  32
ATOM     32  C   UNL     1      -1.858  -3.308   4.387  0.00  0.00    +0.122 A 
ATOM     33  C   UNL     1      -3.064  -3.495   4.953  0.00  0.00    +0.046 A 
ATOM     34  C   UNL     1      -3.200  -2.513   5.961  0.00  0.00    +0.041 A 
ATOM     35  C   UNL     1      -2.070  -1.785   5.952  0.00  0.00    +0.195 A 
ATOM     36  O   UNL     1      -1.258  -2.274   5.000  0.00  0.00    -0.466 OA
ENDBRANCH  31  32
ENDBRANCH   4  31
TORSDOF 7
