REMARK  Name = ZINC20463782
REMARK  7 active torsions:
REMARK  status: ('A' for Active; 'I' for Inactive)
REMARK    1  A    between atoms: C_4  and  C_7
REMARK    2  A    between atoms: C_7  and  C_8
REMARK    3  A    between atoms: N_11  and  C_14
REMARK    4  A    between atoms: C_16  and  O_36
REMARK    5  A    between atoms: C_18  and  N_27
REMARK    6  A    between atoms: N_27  and  C_28
REMARK    7  A    between atoms: C_28  and  C_29
REMARK                            x       y       z     vdW  Elec       q    Type
REMARK                         _______ _______ _______ _____ _____    ______ ____
ROOT
ATOM      1  C   UNL     1       1.213   8.115  -4.803  0.00  0.00    +0.016 C 
ATOM      2  C   UNL     1       2.605   7.807  -5.366  0.00  0.00    +0.094 C 
ATOM      3  C   UNL     1       3.680   8.575  -4.595  0.00  0.00    -0.012 C 
ATOM      4  C   UNL     1       3.258  10.052  -4.528  0.00  0.00    +0.135 C 
ATOM      5  C   UNL     1       2.807  10.478  -5.944  0.00  0.00    +0.193 C 
ATOM      6  O   UNL     1       1.393  10.213  -5.979  0.00  0.00    -0.350 OA
ATOM      7  C   UNL     1       1.043   9.639  -4.706  0.00  0.00    +0.240 C 
ATOM      8  O   UNL     1       2.012  10.125  -3.751  0.00  0.00    -0.349 OA
ENDROOT
BRANCH   1  12
ATOM      9  C   UNL     1      -0.130   5.919  -1.389  0.00  0.00    -0.010 C 
ATOM     10  C   UNL     1       1.137   5.471  -2.123  0.00  0.00    -0.015 C 
ATOM     11  C   UNL     1       1.134   6.053  -3.538  0.00  0.00    -0.078 C 
ATOM     12  N   UNL     1       1.079   7.518  -3.468  0.00  0.00    +0.386 N 
ATOM     13  C   UNL     1      -0.153   7.972  -2.810  0.00  0.00    -0.078 C 
ATOM     14  C   UNL     1      -0.188   7.449  -1.372  0.00  0.00    -0.015 C 
ATOM     15  H   UNL     1       1.929   7.857  -2.857  0.00  0.00    -0.081 HD
BRANCH   9  16
ATOM     16  C   UNL     1      -0.103   5.392   0.047  0.00  0.00    +0.038 C 
BRANCH  16  20
ATOM     17  C   UNL     1      -0.284   1.125   0.003  0.00  0.00    +0.000 A 
ATOM     18  C   UNL     1      -1.450   1.865   0.045  0.00  0.00    +0.000 A 
ATOM     19  C   UNL     1      -1.391   3.247   0.066  0.00  0.00    +0.003 A 
ATOM     20  C   UNL     1      -0.167   3.887   0.031  0.00  0.00    -0.047 A 
ATOM     21  C   UNL     1       0.999   3.146  -0.017  0.00  0.00    +0.003 A 
ATOM     22  C   UNL     1       0.941   1.765  -0.031  0.00  0.00    +0.000 A 
ENDBRANCH  16  20
ENDBRANCH   9  16
ENDBRANCH   1  12
BRANCH   3  23
ATOM     23  N   UNL     1       3.770   8.025  -3.236  0.00  0.00    +0.387 N 
ATOM     24  H   UNL     1       2.993   8.479  -2.604  0.00  0.00    -0.085 HD
ATOM     25  H   UNL     1       3.625   6.935  -3.271  0.00  0.00    -0.085 HD
BRANCH  23  26
ATOM     26  C   UNL     1       5.084   8.306  -2.641  0.00  0.00    -0.046 C 
BRANCH  26  27
ATOM     27  C   UNL     1       5.139   7.728  -1.250  0.00  0.00    -0.064 A 
ATOM     28  C   UNL     1       4.748   8.494  -0.168  0.00  0.00    +0.004 A 
ATOM     29  C   UNL     1       4.793   7.963   1.107  0.00  0.00    +0.038 A 
ATOM     30  C   UNL     1       5.241   6.667   1.302  0.00  0.00    +0.123 A 
ATOM     31  C   UNL     1       5.637   5.903   0.218  0.00  0.00    +0.038 A 
ATOM     32  C   UNL     1       5.586   6.434  -1.057  0.00  0.00    +0.004 A 
ATOM     33  F   UNL     1       5.291   6.149   2.549  0.00  0.00    -0.205 F 
ENDBRANCH  26  27
ENDBRANCH  23  26
ENDBRANCH   3  23
BRANCH   2  34
ATOM     34  O   UNL     1       2.669   8.220  -6.732  0.00  0.00    -0.395 OA
ATOM     35  H   UNL     1       3.596   8.079  -7.307  0.00  0.00    +0.210 HD
ENDBRANCH   2  34
TORSDOF 7
