REMARK  Name = ZINC39676587
REMARK  14 active torsions:
REMARK  status: ('A' for Active; 'I' for Inactive)
REMARK    1  A    between atoms: C_1  and  C_2
REMARK    2  A    between atoms: C_2  and  C_3
REMARK    3  A    between atoms: C_3  and  C_4
REMARK    4  A    between atoms: C_4  and  C_5
REMARK    5  A    between atoms: C_5  and  C_7
REMARK    6  A    between atoms: C_5  and  C_8
REMARK    7  A    between atoms: C_12  and  C_21
REMARK    8  A    between atoms: N_23  and  C_24
REMARK    9  A    between atoms: C_24  and  C_25
REMARK   10  A    between atoms: C_24  and  C_33
REMARK   11  A    between atoms: C_28  and  O_31
REMARK   12  A    between atoms: O_31  and  C_32
REMARK   13  A    between atoms: C_36  and  O_39
REMARK   14  A    between atoms: O_39  and  C_40
REMARK                            x       y       z     vdW  Elec       q    Type
REMARK                         _______ _______ _______ _____ _____    ______ ____
ROOT
ATOM      1  C   UNL     1       5.259  -4.238  -4.348  0.00  0.00    +0.219 C 
ATOM      2  O   UNL     1       5.109  -3.460  -3.430  0.00  0.00    -0.275 OA
ATOM      3  N   UNL     1       6.494  -4.477  -4.833  0.00  0.00    -0.304 N 
ATOM      4  H   UNL     1       6.614  -5.100  -5.567  0.00  0.00    +0.150 HD
ENDROOT
BRANCH   1   9
ATOM      5  C   UNL     1       1.523  -3.766  -2.650  0.00  0.00    +0.218 C 
ATOM      6  O   UNL     1       1.025  -4.296  -1.679  0.00  0.00    -0.275 OA
ATOM      7  N   UNL     1       2.140  -4.515  -3.585  0.00  0.00    -0.300 N 
ATOM      8  C   UNL     1       2.806  -4.052  -4.825  0.00  0.00    +0.121 C 
ATOM      9  C   UNL     1       4.066  -4.938  -4.945  0.00  0.00    +0.100 C 
ATOM     10  C   UNL     1       3.731  -6.208  -4.145  0.00  0.00    -0.004 C 
ATOM     11  C   UNL     1       2.311  -5.987  -3.602  0.00  0.00    +0.115 C 
ATOM     12  C   UNL     1       3.765  -7.431  -5.055  0.00  0.00    -0.010 C 
ATOM     13  C   UNL     1       3.486  -8.688  -4.226  0.00  0.00    -0.082 C 
ATOM     14  N   UNL     1       4.495  -8.812  -3.167  0.00  0.00    +0.379 N 
ATOM     15  C   UNL     1       4.393  -7.676  -2.242  0.00  0.00    -0.082 C 
ATOM     16  C   UNL     1       4.711  -6.378  -2.988  0.00  0.00    -0.010 C 
ATOM     17  H   UNL     1       4.345  -9.671  -2.660  0.00  0.00    -0.086 HD
ATOM     18  H   UNL     1       5.415  -8.825  -3.581  0.00  0.00    -0.086 HD
BRANCH   5  19
ATOM     19  C   UNL     1       1.451  -2.269  -2.810  0.00  0.00    +0.072 C 
ATOM     20  C   UNL     1       0.708  -1.930  -4.104  0.00  0.00    +0.017 C 
BRANCH  19  21
ATOM     21  C   UNL     1       0.704  -1.664  -1.620  0.00  0.00    +0.012 C 
BRANCH  21  22
ATOM     22  C   UNL     1       0.738  -0.138  -1.718  0.00  0.00    +0.000 C 
BRANCH  22  24
ATOM     23  C   UNL     1       0.026   1.994  -0.627  0.00  0.00    +0.004 C 
ATOM     24  C   UNL     1      -0.009   0.468  -0.528  0.00  0.00    -0.003 C 
ENDBRANCH  22  24
ENDBRANCH  21  22
ENDBRANCH  19  21
ENDBRANCH   5  19
ENDBRANCH   1   9
BRANCH   3  25
ATOM     25  C   UNL     1       7.654  -3.797  -4.252  0.00  0.00    +0.134 C 
BRANCH  25  26
ATOM     26  C   UNL     1       8.892  -4.622  -4.490  0.00  0.00    -0.023 A 
ATOM     27  C   UNL     1       9.075  -5.257  -5.705  0.00  0.00    +0.009 A 
ATOM     28  C   UNL     1      10.209  -6.014  -5.926  0.00  0.00    +0.046 A 
ATOM     29  C   UNL     1      11.164  -6.138  -4.928  0.00  0.00    +0.120 A 
ATOM     30  C   UNL     1      10.979  -5.500  -3.711  0.00  0.00    +0.046 A 
ATOM     31  C   UNL     1       9.846  -4.739  -3.496  0.00  0.00    +0.009 A 
BRANCH  29  32
ATOM     32  O   UNL     1      12.280  -6.883  -5.143  0.00  0.00    -0.495 OA
ATOM     33  C   UNL     1      13.222  -6.965  -4.071  0.00  0.00    +0.277 C 
ENDBRANCH  29  32
ENDBRANCH  25  26
BRANCH  25  34
ATOM     34  C   UNL     1       7.819  -2.445  -4.897  0.00  0.00    -0.023 A 
ATOM     35  C   UNL     1       7.607  -2.299  -6.256  0.00  0.00    +0.009 A 
ATOM     36  C   UNL     1       7.758  -1.061  -6.850  0.00  0.00    +0.046 A 
ATOM     37  C   UNL     1       8.122   0.036  -6.083  0.00  0.00    +0.120 A 
ATOM     38  C   UNL     1       8.334  -0.114  -4.720  0.00  0.00    +0.046 A 
ATOM     39  C   UNL     1       8.177  -1.353  -4.130  0.00  0.00    +0.009 A 
BRANCH  37  40
ATOM     40  O   UNL     1       8.272   1.254  -6.666  0.00  0.00    -0.495 OA
ATOM     41  C   UNL     1       8.649   2.338  -5.814  0.00  0.00    +0.277 C 
ENDBRANCH  37  40
ENDBRANCH  25  34
ENDBRANCH   3  25
TORSDOF 10
