REMARK  Name = ZINC58467156
REMARK  17 active torsions:
REMARK  status: ('A' for Active; 'I' for Inactive)
REMARK    1  A    between atoms: C_1  and  C_2
REMARK    2  A    between atoms: C_2  and  N_3
REMARK    3  A    between atoms: N_3  and  C_4
REMARK    4  A    between atoms: N_3  and  C_6
REMARK    5  A    between atoms: C_4  and  C_5
REMARK    6  A    between atoms: C_6  and  C_7
REMARK    7  A    between atoms: C_10  and  C_13
REMARK    8  A    between atoms: C_13  and  N_14
REMARK    9  A    between atoms: N_17  and  C_18
REMARK   10  A    between atoms: N_17  and  C_26
REMARK   11  A    between atoms: C_18  and  C_19
REMARK   12  A    between atoms: C_19  and  C_20
REMARK   13  A    between atoms: C_20  and  N_21
REMARK   14  A    between atoms: C_26  and  C_27
REMARK   15  A    between atoms: C_30  and  O_33
REMARK   16  A    between atoms: O_33  and  C_34
REMARK   17  A    between atoms: C_34  and  C_35
REMARK                            x       y       z     vdW  Elec       q    Type
REMARK                         _______ _______ _______ _____ _____    ______ ____
ROOT
ATOM      1  N   UNL     1      -7.837  -2.823  -0.362  0.00  0.00    -0.295 N 
ATOM      2  C   UNL     1      -9.165  -3.021  -0.477  0.00  0.00    +0.303 C 
ATOM      3  O   UNL     1      -9.624  -4.142  -0.370  0.00  0.00    -0.253 OA
ATOM      4  N   UNL     1      -9.985  -1.977  -0.711  0.00  0.00    -0.281 N 
ATOM      5  H   UNL     1      -7.471  -1.928  -0.447  0.00  0.00    +0.151 HD
ENDROOT
BRANCH   1   6
ATOM      6  C   UNL     1      -6.946  -3.957  -0.107  0.00  0.00    +0.141 C 
BRANCH   6  10
ATOM      7  C   UNL     1      -2.911  -2.576   0.136  0.00  0.00    -0.064 A 
ATOM      8  C   UNL     1      -3.692  -2.634   1.275  0.00  0.00    +0.002 A 
ATOM      9  C   UNL     1      -4.997  -3.081   1.197  0.00  0.00    +0.005 A 
ATOM     10  C   UNL     1      -5.523  -3.469  -0.021  0.00  0.00    -0.030 A 
ATOM     11  C   UNL     1      -4.743  -3.410  -1.161  0.00  0.00    +0.005 A 
ATOM     12  C   UNL     1      -3.438  -2.959  -1.083  0.00  0.00    +0.002 A 
BRANCH   7  13
ATOM     13  C   UNL     1      -1.488  -2.089   0.222  0.00  0.00    -0.043 C 
BRANCH  13  14
ATOM     14  N   UNL     1      -1.440  -0.657  -0.104  0.00  0.00    +0.382 N 
ATOM     15  H   UNL     1      -1.865  -0.503  -1.005  0.00  0.00    -0.081 HD
BRANCH  14  17
ATOM     16  C   UNL     1      -2.228   1.577   0.516  0.00  0.00    -0.017 C 
ATOM     17  C   UNL     1      -2.171   0.102   0.919  0.00  0.00    -0.082 C 
ENDBRANCH  14  17
BRANCH  14  18
ATOM     18  C   UNL     1      -0.041  -0.210  -0.139  0.00  0.00    -0.082 C 
ATOM     19  C   UNL     1       0.681  -0.885  -1.308  0.00  0.00    -0.017 C 
ENDBRANCH  14  18
ENDBRANCH  13  14
ENDBRANCH   7  13
ENDBRANCH   6  10
ENDBRANCH   1   6
BRANCH   4  20
ATOM     20  C   UNL     1      -9.432  -0.626  -0.840  0.00  0.00    +0.111 C 
BRANCH  20  21
ATOM     21  C   UNL     1      -9.086  -0.354  -2.305  0.00  0.00    +0.041 C 
BRANCH  21  22
ATOM     22  C   UNL     1      -8.509   1.056  -2.440  0.00  0.00    +0.124 C 
BRANCH  22  23
ATOM     23  N   UNL     1      -8.178   1.317  -3.843  0.00  0.00    -0.338 N 
ATOM     24  C   UNL     1      -6.983   1.057  -4.457  0.00  0.00    +0.104 A 
ATOM     25  C   UNL     1      -7.111   1.447  -5.739  0.00  0.00    +0.101 A 
ATOM     26  N   UNL     1      -8.350   1.933  -5.904  0.00  0.00    -0.352 N 
ATOM     27  C   UNL     1      -8.997   1.853  -4.773  0.00  0.00    +0.173 A 
ATOM     28  H   UNL     1      -8.710   2.284  -6.733  0.00  0.00    +0.166 HD
ENDBRANCH  22  23
ENDBRANCH  21  22
ENDBRANCH  20  21
ENDBRANCH   4  20
BRANCH   4  29
ATOM     29  C   UNL     1     -11.428  -2.193  -0.837  0.00  0.00    +0.144 C 
BRANCH  29  30
ATOM     30  C   UNL     1     -12.074  -2.072   0.519  0.00  0.00    -0.030 A 
ATOM     31  C   UNL     1     -12.205  -3.189   1.323  0.00  0.00    +0.009 A 
ATOM     32  C   UNL     1     -12.798  -3.081   2.567  0.00  0.00    +0.046 A 
ATOM     33  C   UNL     1     -13.261  -1.850   3.008  0.00  0.00    +0.121 A 
ATOM     34  C   UNL     1     -13.128  -0.731   2.200  0.00  0.00    +0.046 A 
ATOM     35  C   UNL     1     -12.530  -0.843   0.959  0.00  0.00    +0.009 A 
BRANCH  33  36
ATOM     36  O   UNL     1     -13.844  -1.741   4.231  0.00  0.00    -0.492 OA
BRANCH  36  37
ATOM     37  C   UNL     1     -14.297  -0.443   4.620  0.00  0.00    +0.225 C 
ATOM     38  C   UNL     1     -14.921  -0.517   6.015  0.00  0.00    +0.048 C 
ENDBRANCH  36  37
ENDBRANCH  33  36
ENDBRANCH  29  30
ENDBRANCH   4  29
TORSDOF 14
