REMARK  Name = ZINC07909729
REMARK  5 active torsions:
REMARK  status: ('A' for Active; 'I' for Inactive)
REMARK    1  A    between atoms: C_8  and  C_10
REMARK    2  A    between atoms: C_15  and  C_16
REMARK    3  A    between atoms: C_15  and  N_49
REMARK    4  A    between atoms: N_18  and  C_19
REMARK    5  A    between atoms: C_19  and  C_20
REMARK                            x       y       z     vdW  Elec       q    Type
REMARK                         _______ _______ _______ _____ _____    ______ ____
ROOT
ATOM      1  C   UNL     1       0.215   1.867   2.297  0.00  0.00    +0.019 C 
ENDROOT
BRANCH   1   6
ATOM      2  C   UNL     1      -1.267   2.840   0.620  0.00  0.00    -0.011 C 
ATOM      3  C   UNL     1      -1.517   2.589  -0.888  0.00  0.00    -0.010 C 
ATOM      4  C   UNL     1      -0.215   1.892  -1.343  0.00  0.00    -0.020 C 
ATOM      5  C   UNL     1       0.396   1.302  -0.059  0.00  0.00    -0.077 C 
ATOM      6  N   UNL     1      -0.536   1.631   1.025  0.00  0.00    +0.391 N 
ATOM      7  H   UNL     1      -1.196   0.857   1.163  0.00  0.00    -0.080 HD
BRANCH   2  15
ATOM      8  C   UNL     1      -6.228   4.845   3.696  0.00  0.00    +0.002 A 
ATOM      9  C   UNL     1      -6.773   3.571   3.787  0.00  0.00    +0.001 A 
ATOM     10  C   UNL     1      -6.094   2.502   3.235  0.00  0.00    +0.017 A 
ATOM     11  C   UNL     1      -4.892   2.718   2.606  0.00  0.00    +0.039 A 
ATOM     12  C   UNL     1      -4.314   4.004   2.498  0.00  0.00    +0.078 A 
ATOM     13  C   UNL     1      -5.039   5.070   3.076  0.00  0.00    +0.029 A 
ATOM     14  N   UNL     1      -3.131   4.032   1.849  0.00  0.00    -0.246 NA
ATOM     15  C   UNL     1      -2.573   2.959   1.363  0.00  0.00    +0.066 A 
ATOM     16  S   UNL     1      -3.699   1.703   1.771  0.00  0.00    -0.074 S 
ENDBRANCH   2  15
ENDBRANCH   1   6
BRANCH   1  17
ATOM     17  C   UNL     1       0.882   0.592   2.743  0.00  0.00    +0.197 C 
ATOM     18  O   UNL     1       0.669  -0.444   2.148  0.00  0.00    -0.278 OA
ATOM     19  N   UNL     1       1.714   0.601   3.803  0.00  0.00    -0.313 N 
ATOM     20  H   UNL     1       1.884   1.429   4.279  0.00  0.00    +0.149 HD
BRANCH  19  21
ATOM     21  C   UNL     1       2.362  -0.639   4.237  0.00  0.00    +0.139 C 
BRANCH  21  22
ATOM     22  C   UNL     1       3.235  -0.358   5.433  0.00  0.00    -0.027 A 
ATOM     23  C   UNL     1       2.710  -0.458   6.708  0.00  0.00    +0.009 A 
ATOM     24  C   UNL     1       3.506  -0.202   7.808  0.00  0.00    +0.050 A 
ATOM     25  C   UNL     1       4.833   0.157   7.636  0.00  0.00    +0.166 A 
ATOM     26  C   UNL     1       5.362   0.258   6.351  0.00  0.00    +0.167 A 
ATOM     27  C   UNL     1       4.559  -0.006   5.253  0.00  0.00    +0.054 A 
ATOM     28  O   UNL     1       6.674   0.621   6.447  0.00  0.00    -0.453 OA
ATOM     29  C   UNL     1       7.052   0.343   7.808  0.00  0.00    +0.466 C 
ATOM     30  O   UNL     1       5.814   0.456   8.536  0.00  0.00    -0.453 OA
ENDBRANCH  21  22
ENDBRANCH  19  21
ENDBRANCH   1  17
TORSDOF 5
