REMARK  Name = ZINC39577512
REMARK  4 active torsions:
REMARK  status: ('A' for Active; 'I' for Inactive)
REMARK    1  A    between atoms: C_1  and  C_2
REMARK    2  A    between atoms: C_7  and  C_8
REMARK    3  A    between atoms: N_9  and  N_10
REMARK    4  A    between atoms: C_11  and  C_13
REMARK                            x       y       z     vdW  Elec       q    Type
REMARK                         _______ _______ _______ _____ _____    ______ ____
ROOT
ATOM      1  N   UNL     1       0.236   2.002   3.716  0.00  0.00    -0.205 N 
ATOM      2  C   UNL     1       0.117   3.344   3.741  0.00  0.00    +0.263 C 
ATOM      3  O   UNL     1      -0.083   3.954   2.711  0.00  0.00    -0.271 OA
ATOM      4  H   UNL     1       0.396   1.514   4.539  0.00  0.00    +0.177 HD
ENDROOT
BRANCH   2   5
ATOM      5  C   UNL     1       0.234   4.087   5.046  0.00  0.00    +0.243 C 
ATOM      6  C   UNL     1      -1.071   4.066   5.788  0.00  0.00    -0.007 C 
ATOM      7  C   UNL     1      -1.424   5.371   5.899  0.00  0.00    +0.095 C 
ATOM      8  C   UNL     1      -2.680   5.732   6.603  0.00  0.00    +0.005 A 
ATOM      9  C   UNL     1      -3.229   7.003   6.509  0.00  0.00    +0.010 A 
ATOM     10  C   UNL     1      -4.417   7.282   7.156  0.00  0.00    +0.001 A 
ATOM     11  C   UNL     1      -5.051   6.295   7.889  0.00  0.00    +0.000 A 
ATOM     12  C   UNL     1      -4.499   5.032   7.994  0.00  0.00    +0.004 A 
ATOM     13  C   UNL     1      -3.302   4.742   7.367  0.00  0.00    -0.038 A 
ATOM     14  C   UNL     1      -2.667   3.392   7.556  0.00  0.00    +0.040 C 
ATOM     15  C   UNL     1      -1.898   2.935   6.315  0.00  0.00    +0.040 C 
ATOM     16  N   UNL     1      -0.496   6.151   5.306  0.00  0.00    -0.153 NA
ATOM     17  N   UNL     1       0.458   5.528   4.810  0.00  0.00    -0.170 NA
ENDBRANCH   2   5
BRANCH   1  19
ATOM     18  C   UNL     1       0.242   0.019   2.479  0.00  0.00    +0.138 C 
ATOM     19  N   UNL     1       0.128   1.311   2.502  0.00  0.00    -0.188 NA
BRANCH  18  26
ATOM     20  C   UNL     1      -0.491   1.456   0.078  0.00  0.00    +0.044 C 
ATOM     21  C   UNL     1      -0.225  -0.026   0.034  0.00  0.00    -0.042 A 
ATOM     22  C   UNL     1      -0.324  -0.712  -1.159  0.00  0.00    +0.004 A 
ATOM     23  C   UNL     1      -0.080  -2.073  -1.200  0.00  0.00    +0.000 A 
ATOM     24  C   UNL     1       0.264  -2.757  -0.047  0.00  0.00    +0.001 A 
ATOM     25  C   UNL     1       0.367  -2.084   1.153  0.00  0.00    +0.010 A 
ATOM     26  C   UNL     1       0.128  -0.709   1.201  0.00  0.00    -0.003 A 
ENDBRANCH  18  26
ENDBRANCH   1  19
TORSDOF 3
