REMARK  Name = ZINC41547277
REMARK  6 active torsions:
REMARK  status: ('A' for Active; 'I' for Inactive)
REMARK    1  A    between atoms: C_1  and  C_2
REMARK    2  A    between atoms: C_5  and  C_8
REMARK    3  A    between atoms: C_8  and  N_9
REMARK    4  A    between atoms: C_15  and  C_17
REMARK    5  A    between atoms: C_17  and  C_29
REMARK    6  A    between atoms: C_23  and  C_28
REMARK                            x       y       z     vdW  Elec       q    Type
REMARK                         _______ _______ _______ _____ _____    ______ ____
ROOT
ATOM      1  N   UNL     1       1.447  -4.746  -0.032  0.00  0.00    -0.265 N 
ATOM      2  C   UNL     1       2.000  -5.603   0.852  0.00  0.00    +0.110 A 
ATOM      3  C   UNL     1       3.293  -5.784   0.500  0.00  0.00    +0.065 A 
ATOM      4  C   UNL     1       3.541  -5.008  -0.643  0.00  0.00    +0.147 A 
ATOM      5  N   UNL     1       2.430  -4.390  -0.964  0.00  0.00    -0.156 NA
ATOM      6  N   UNL     1       4.762  -4.915  -1.326  0.00  0.00    -0.265 N 
ATOM      7  C   UNL     1       5.832  -5.611  -0.892  0.00  0.00    +0.271 C 
ATOM      8  O   UNL     1       5.738  -6.318   0.089  0.00  0.00    -0.270 OA
ATOM      9  H   UNL     1       4.837  -4.350  -2.111  0.00  0.00    +0.156 HD
ENDROOT
BRANCH   7  10
ATOM     10  C   UNL     1       7.144  -5.511  -1.626  0.00  0.00    +0.258 C 
ATOM     11  C   UNL     1       7.957  -6.755  -1.373  0.00  0.00    +0.270 C 
ATOM     12  O   UNL     1       8.757  -6.786  -0.463  0.00  0.00    -0.271 OA
ATOM     13  N   UNL     1       7.789  -7.836  -2.164  0.00  0.00    -0.279 N 
ATOM     14  C   UNL     1       6.953  -7.740  -3.286  0.00  0.00    +0.076 A 
ATOM     15  C   UNL     1       6.579  -8.876  -3.985  0.00  0.00    +0.030 A 
ATOM     16  C   UNL     1       5.743  -8.765  -5.081  0.00  0.00    -0.048 A 
ATOM     17  C   UNL     1       5.281  -7.525  -5.480  0.00  0.00    +0.007 A 
ATOM     18  C   UNL     1       5.655  -6.386  -4.790  0.00  0.00    +0.048 A 
ATOM     19  C   UNL     1       6.496  -6.489  -3.695  0.00  0.00    +0.144 A 
ATOM     20  O   UNL     1       6.896  -5.374  -3.027  0.00  0.00    -0.465 OA
ATOM     21  C   UNL     1       5.336 -10.000  -5.843  0.00  0.00    +0.044 C 
ATOM     22  C   UNL     1       7.916  -4.289  -1.124  0.00  0.00    +0.076 C 
ATOM     23  H   UNL     1       8.241  -8.669  -1.959  0.00  0.00    +0.155 HD
ENDBRANCH   7  10
BRANCH   1  24
ATOM     24  C   UNL     1       0.059  -4.275  -0.021  0.00  0.00    +0.178 C 
BRANCH  24  29
ATOM     25  C   UNL     1      -0.018   1.503   0.010  0.00  0.00    +0.044 C 
ATOM     26  C   UNL     1       0.002  -0.004   0.002  0.00  0.00    -0.050 A 
ATOM     27  C   UNL     1       0.006  -0.689  -1.199  0.00  0.00    +0.004 A 
ATOM     28  C   UNL     1       0.025  -2.071  -1.206  0.00  0.00    +0.006 A 
ATOM     29  C   UNL     1       0.040  -2.768  -0.013  0.00  0.00    -0.026 A 
ATOM     30  C   UNL     1       0.037  -2.084   1.188  0.00  0.00    +0.006 A 
ATOM     31  C   UNL     1       0.023  -0.702   1.195  0.00  0.00    +0.004 A 
ENDBRANCH  24  29
ENDBRANCH   1  24
TORSDOF 3
