REMARK  Name = ZINC07095686
REMARK  8 active torsions:
REMARK  status: ('A' for Active; 'I' for Inactive)
REMARK    1  A    between atoms: C_1  and  C_2
REMARK    2  A    between atoms: C_2  and  C_4
REMARK    3  A    between atoms: C_2  and  N_14
REMARK    4  A    between atoms: C_15  and  C_17
REMARK    5  A    between atoms: C_17  and  O_18
REMARK    6  A    between atoms: O_18  and  C_19
REMARK    7  A    between atoms: C_19  and  C_21
REMARK    8  A    between atoms: C_24  and  N_26
REMARK                            x       y       z     vdW  Elec       q    Type
REMARK                         _______ _______ _______ _____ _____    ______ ____
ROOT
ATOM      1  N   UNL     1      -5.968  -1.086   0.265  0.00  0.00    -0.306 N 
ATOM      2  C   UNL     1      -5.352  -1.027   1.462  0.00  0.00    +0.251 C 
ATOM      3  O   UNL     1      -5.865  -0.420   2.378  0.00  0.00    -0.272 OA
ATOM      4  H   UNL     1      -5.503  -1.637  -0.566  0.00  0.00    +0.149 HD
ENDROOT
BRANCH   1   6
ATOM      5  C   UNL     1      -7.459  -0.124  -1.418  0.00  0.00    +0.033 C 
ATOM      6  C   UNL     1      -7.256  -0.417   0.070  0.00  0.00    +0.101 C 
BRANCH   6   7
ATOM      7  C   UNL     1      -8.366  -1.310   0.562  0.00  0.00    -0.020 A 
ATOM      8  C   UNL     1      -8.186  -2.658   0.618  0.00  0.00    +0.006 A 
ATOM      9  C   UNL     1      -9.198  -3.499   1.074  0.00  0.00    +0.001 A 
ATOM     10  C   UNL     1     -10.401  -2.998   1.469  0.00  0.00    +0.008 A 
ATOM     11  C   UNL     1     -10.626  -1.612   1.421  0.00  0.00    -0.018 A 
ATOM     12  C   UNL     1      -9.594  -0.756   0.961  0.00  0.00    -0.013 A 
ATOM     13  C   UNL     1      -9.819   0.631   0.913  0.00  0.00    +0.009 A 
ATOM     14  C   UNL     1     -11.021   1.132   1.309  0.00  0.00    +0.001 A 
ATOM     15  C   UNL     1     -12.036   0.290   1.761  0.00  0.00    +0.001 A 
ATOM     16  C   UNL     1     -11.854  -1.058   1.821  0.00  0.00    +0.008 A 
ENDBRANCH   6   7
ENDBRANCH   1   6
BRANCH   2  17
ATOM     17  C   UNL     1      -4.027  -1.716   1.663  0.00  0.00    +0.328 C 
BRANCH  17  18
ATOM     18  O   UNL     1      -3.574  -1.507   3.026  0.00  0.00    -0.450 OA
BRANCH  18  19
ATOM     19  C   UNL     1      -2.395  -2.062   3.372  0.00  0.00    +0.375 C 
ATOM     20  O   UNL     1      -1.762  -2.704   2.555  0.00  0.00    -0.241 OA
BRANCH  19  21
ATOM     21  C   UNL     1      -1.875  -1.893   4.731  0.00  0.00    +0.214 A 
ATOM     22  C   UNL     1      -0.701  -2.400   5.211  0.00  0.00    +0.059 A 
ATOM     23  C   UNL     1      -0.605  -1.995   6.551  0.00  0.00    +0.076 A 
ATOM     24  C   UNL     1      -1.711  -1.268   6.828  0.00  0.00    +0.280 A 
ATOM     25  O   UNL     1      -2.474  -1.209   5.729  0.00  0.00    -0.427 OA
BRANCH  24  26
ATOM     26  N   UNL     1      -2.026  -0.641   8.131  0.00  0.00    +0.093 N 
ATOM     27  O   UNL     1      -1.255  -0.760   9.067  0.00  0.00    -0.123 OA
ATOM     28  O   UNL     1      -3.056  -0.006   8.268  0.00  0.00    -0.123 OA
ENDBRANCH  24  26
ENDBRANCH  19  21
ENDBRANCH  18  19
ENDBRANCH  17  18
ENDBRANCH   2  17
TORSDOF 7
