REMARK  Name = ZINC20803710
REMARK  5 active torsions:
REMARK  status: ('A' for Active; 'I' for Inactive)
REMARK    1  A    between atoms: C_1  and  C_2
REMARK    2  A    between atoms: C_7  and  N_8
REMARK    3  A    between atoms: C_9  and  C_11
REMARK    4  A    between atoms: C_13  and  C_30
REMARK    5  A    between atoms: C_21  and  C_23
REMARK                            x       y       z     vdW  Elec       q    Type
REMARK                         _______ _______ _______ _____ _____    ______ ____
ROOT
ATOM      1  C   UNL     1      -1.291  -1.748   1.163  0.00  0.00    +0.124 C 
ATOM      2  C   UNL     1      -2.471  -2.717   1.030  0.00  0.00    +0.084 C 
ATOM      3  N   UNL     1      -2.293  -3.510  -0.202  0.00  0.00    -0.310 N 
ATOM      4  C   UNL     1      -1.884  -2.809  -1.329  0.00  0.00    +0.214 A 
ATOM      5  N   UNL     1      -1.863  -3.182  -2.581  0.00  0.00    -0.202 NA
ATOM      6  C   UNL     1      -1.393  -2.183  -3.336  0.00  0.00    +0.247 A 
ATOM      7  N   UNL     1      -1.109  -1.161  -2.570  0.00  0.00    -0.156 NA
ATOM      8  N   UNL     1      -1.418  -1.537  -1.264  0.00  0.00    -0.225 N 
ATOM      9  C   UNL     1      -1.285  -0.774  -0.023  0.00  0.00    +0.154 C 
ATOM     10  C   UNL     1      -2.507  -3.651   2.241  0.00  0.00    +0.028 C 
ATOM     11  H   UNL     1      -2.482  -4.594  -0.192  0.00  0.00    +0.149 HD
ENDROOT
BRANCH   9  12
ATOM     12  C   UNL     1       0.011  -0.006  -0.038  0.00  0.00    -0.022 A 
ATOM     13  C   UNL     1       1.129  -0.548  -0.645  0.00  0.00    +0.007 A 
ATOM     14  C   UNL     1       2.318   0.156  -0.660  0.00  0.00    +0.020 A 
ATOM     15  C   UNL     1       2.390   1.404  -0.068  0.00  0.00    +0.041 A 
ATOM     16  C   UNL     1       1.271   1.946   0.539  0.00  0.00    +0.020 A 
ATOM     17  C   UNL     1       0.083   1.241   0.554  0.00  0.00    +0.007 A 
ATOM     18 CL   UNL     1       3.883   2.289  -0.086  0.00  0.00    -0.084 Cl
ENDBRANCH   9  12
BRANCH   1  20
ATOM     19  N   UNL     1       1.028  -2.110   1.942  0.00  0.00    -0.285 N 
ATOM     20  C   UNL     1      -0.001  -2.526   1.178  0.00  0.00    +0.224 C 
ATOM     21  O   UNL     1       0.111  -3.528   0.504  0.00  0.00    -0.275 OA
ATOM     22  H   UNL     1       0.898  -1.255   2.623  0.00  0.00    +0.155 HD
BRANCH  19  29
ATOM     23  C   UNL     1       2.755  -1.976   4.200  0.00  0.00    +0.045 C 
ATOM     24  C   UNL     1       3.136  -2.724   2.949  0.00  0.00    -0.029 A 
ATOM     25  C   UNL     1       4.354  -3.372   2.874  0.00  0.00    +0.005 A 
ATOM     26  C   UNL     1       4.704  -4.058   1.726  0.00  0.00    +0.000 A 
ATOM     27  C   UNL     1       3.837  -4.099   0.650  0.00  0.00    +0.002 A 
ATOM     28  C   UNL     1       2.615  -3.460   0.720  0.00  0.00    +0.023 A 
ATOM     29  C   UNL     1       2.263  -2.764   1.870  0.00  0.00    +0.036 A 
ENDBRANCH  19  29
ENDBRANCH   1  20
TORSDOF 3
