REMARK  Name = ZINC67028892
REMARK  5 active torsions:
REMARK  status: ('A' for Active; 'I' for Inactive)
REMARK    1  A    between atoms: C_4  and  C_7
REMARK    2  A    between atoms: C_7  and  C_9
REMARK    3  A    between atoms: C_11  and  C_23
REMARK    4  A    between atoms: C_17  and  C_18
REMARK    5  A    between atoms: C_17  and  O_22
REMARK                            x       y       z     vdW  Elec       q    Type
REMARK                         _______ _______ _______ _____ _____    ______ ____
ROOT
ATOM      1  C   UNL     1       3.716  -2.186  -0.046  0.00  0.00    +0.145 C 
ATOM      2  C   UNL     1       3.623  -2.710   1.391  0.00  0.00    +0.138 C 
ATOM      3  N   UNL     1       4.812  -2.290   2.133  0.00  0.00    -0.317 N 
ATOM      4  C   UNL     1       5.987  -2.094   1.516  0.00  0.00    +0.133 C 
ATOM      5  S   UNL     1       7.338  -1.617   2.453  0.00  0.00    -0.019 S 
ATOM      6  N   UNL     1       6.145  -2.257   0.194  0.00  0.00    -0.291 N 
ATOM      7  C   UNL     1       5.030  -2.676  -0.664  0.00  0.00    +0.241 C 
ATOM      8  H   UNL     1       4.750  -2.150   3.091  0.00  0.00    +0.148 HD
ATOM      9  H   UNL     1       7.015  -2.095  -0.204  0.00  0.00    +0.151 HD
ENDROOT
BRANCH   2  10
ATOM     10  C   UNL     1       2.390  -2.150   2.052  0.00  0.00    +0.093 A 
ATOM     11  C   UNL     1       1.448  -2.941   2.627  0.00  0.00    +0.094 A 
ATOM     12  S   UNL     1       0.339  -1.811   3.187  0.00  0.00    +0.028 S 
ATOM     13  N   UNL     1       1.072  -0.454   2.697  0.00  0.00    -0.110 NA
ATOM     14  N   UNL     1       2.150  -0.858   2.120  0.00  0.00    -0.144 NA
ENDBRANCH   2  10
BRANCH   7  15
ATOM     15  C   UNL     1       5.196  -2.071  -2.060  0.00  0.00    +0.436 C 
ATOM     16  F   UNL     1       5.218  -0.675  -1.963  0.00  0.00    -0.166 F 
ATOM     17  F   UNL     1       6.396  -2.518  -2.623  0.00  0.00    -0.166 F 
ATOM     18  F   UNL     1       4.126  -2.466  -2.869  0.00  0.00    -0.166 F 
ENDBRANCH   7  15
BRANCH   1  19
ATOM     19  C   UNL     1       3.691  -0.679  -0.038  0.00  0.00    +0.173 C 
ATOM     20  O   UNL     1       4.731  -0.056  -0.045  0.00  0.00    -0.292 OA
BRANCH  19  24
ATOM     21  C   UNL     1      -0.017   1.380   0.010  0.00  0.00    +0.000 A 
ATOM     22  C   UNL     1       1.168   2.095   0.002  0.00  0.00    +0.001 A 
ATOM     23  C   UNL     1       2.377   1.433  -0.013  0.00  0.00    +0.011 A 
ATOM     24  C   UNL     1       2.405   0.035  -0.021  0.00  0.00    +0.018 A 
ATOM     25  C   UNL     1       1.203  -0.681  -0.013  0.00  0.00    +0.011 A 
ATOM     26  C   UNL     1       0.002  -0.004   0.002  0.00  0.00    +0.001 A 
ENDBRANCH  19  24
ENDBRANCH   1  19
BRANCH   7  27
ATOM     27  O   UNL     1       5.012  -4.101  -0.759  0.00  0.00    -0.364 OA
ATOM     28  H   UNL     1       5.814  -4.481  -1.143  0.00  0.00    +0.212 HD
ENDBRANCH   7  27
TORSDOF 5
