REMARK  Name = ZINC39670914
REMARK  5 active torsions:
REMARK  status: ('A' for Active; 'I' for Inactive)
REMARK    1  A    between atoms: C_3  and  C_6
REMARK    2  A    between atoms: C_6  and  C_7
REMARK    3  A    between atoms: C_7  and  N_8
REMARK    4  A    between atoms: C_9  and  C_11
REMARK    5  A    between atoms: C_22  and  C_24
REMARK                            x       y       z     vdW  Elec       q    Type
REMARK                         _______ _______ _______ _____ _____    ______ ____
ROOT
ATOM      1  C   UNL     1       7.419  -0.071   2.678  0.00  0.00    +0.100 C 
ATOM      2  C   UNL     1       8.177  -1.215   1.967  0.00  0.00    +0.121 C 
ATOM      3  N   UNL     1       9.386  -1.434   2.796  0.00  0.00    -0.296 N 
ATOM      4  C   UNL     1       8.906  -1.292   4.192  0.00  0.00    +0.115 C 
ATOM      5  C   UNL     1       7.899  -0.126   4.138  0.00  0.00    -0.004 C 
ATOM      6  C   UNL     1       6.724  -0.401   5.071  0.00  0.00    -0.010 C 
ATOM      7  C   UNL     1       7.216  -0.393   6.521  0.00  0.00    -0.082 C 
ATOM      8  N   UNL     1       7.817   0.911   6.828  0.00  0.00    +0.379 N 
ATOM      9  C   UNL     1       9.002   1.126   5.990  0.00  0.00    -0.082 C 
ATOM     10  C   UNL     1       8.585   1.182   4.518  0.00  0.00    -0.010 C 
ATOM     11  C   UNL     1      10.638  -1.702   2.376  0.00  0.00    +0.247 C 
ATOM     12  O   UNL     1      10.903  -1.660   1.191  0.00  0.00    -0.270 OA
ATOM     13  H   UNL     1       7.143   1.641   6.650  0.00  0.00    -0.086 HD
ATOM     14  H   UNL     1       8.085   0.935   7.801  0.00  0.00    -0.086 HD
ENDROOT
BRANCH  11  15
ATOM     15  C   UNL     1      11.689  -2.046   3.358  0.00  0.00    +0.040 A 
ATOM     16  C   UNL     1      11.338  -2.515   4.625  0.00  0.00    +0.033 A 
ATOM     17  C   UNL     1      12.324  -2.835   5.537  0.00  0.00    +0.043 A 
ATOM     18  C   UNL     1      13.658  -2.691   5.197  0.00  0.00    +0.040 A 
ATOM     19  C   UNL     1      14.013  -2.227   3.942  0.00  0.00    +0.043 A 
ATOM     20  C   UNL     1      13.036  -1.909   3.019  0.00  0.00    +0.033 A 
ATOM     21 CL   UNL     1      15.689  -2.049   3.525  0.00  0.00    -0.083 Cl
ATOM     22 CL   UNL     1      11.890  -3.417   7.114  0.00  0.00    -0.083 Cl
ENDBRANCH  11  15
BRANCH   1  24
ATOM     23  N   UNL     1       5.085   0.745   2.585  0.00  0.00    -0.315 N 
ATOM     24  C   UNL     1       5.931  -0.304   2.606  0.00  0.00    +0.218 C 
ATOM     25  O   UNL     1       5.496  -1.435   2.566  0.00  0.00    -0.275 OA
ATOM     26  H   UNL     1       5.434   1.650   2.617  0.00  0.00    +0.149 HD
BRANCH  23  27
ATOM     27  C   UNL     1       3.640   0.519   2.515  0.00  0.00    +0.112 C 
BRANCH  27  28
ATOM     28  C   UNL     1       2.913   1.865   2.505  0.00  0.00    +0.093 C 
BRANCH  28  31
ATOM     29  C   UNL     1      -0.699   1.294   2.963  0.00  0.00    +0.041 A 
ATOM     30  C   UNL     1       0.599   1.492   3.486  0.00  0.00    +0.044 A 
ATOM     31  C   UNL     1       1.425   1.633   2.433  0.00  0.00    +0.106 A 
ATOM     32  O   UNL     1       0.700   1.531   1.308  0.00  0.00    -0.468 OA
ATOM     33  C   UNL     1      -0.589   1.325   1.623  0.00  0.00    +0.195 A 
ENDBRANCH  28  31
ENDBRANCH  27  28
ENDBRANCH  23  27
ENDBRANCH   1  24
TORSDOF 5
