REMARK  Name = ZINC32655252
REMARK  11 active torsions:
REMARK  status: ('A' for Active; 'I' for Inactive)
REMARK    1  A    between atoms: C_1  and  C_2
REMARK    2  A    between atoms: C_3  and  C_37
REMARK    3  A    between atoms: C_4  and  C_23
REMARK    4  A    between atoms: C_11  and  S_15
REMARK    5  A    between atoms: S_15  and  C_16
REMARK    6  A    between atoms: C_16  and  C_17
REMARK    7  A    between atoms: C_26  and  O_29
REMARK    8  A    between atoms: O_29  and  C_30
REMARK    9  A    between atoms: C_30  and  C_31
REMARK   10  A    between atoms: C_37  and  O_39
REMARK   11  A    between atoms: O_39  and  C_40
REMARK                            x       y       z     vdW  Elec       q    Type
REMARK                         _______ _______ _______ _____ _____    ______ ____
ROOT
ATOM      1  C   UNL     1       9.522  -3.100   2.975  0.00  0.00    +0.061 C 
ATOM      2  C   UNL     1       8.998  -3.252   1.570  0.00  0.00    +0.017 C 
ATOM      3  C   UNL     1       9.819  -3.700   0.607  0.00  0.00    +0.065 C 
ATOM      4  C   UNL     1       9.360  -3.884  -0.810  0.00  0.00    +0.096 C 
ATOM      5  C   UNL     1       8.072  -3.151  -1.056  0.00  0.00    +0.069 A 
ATOM      6  C   UNL     1       7.639  -2.908  -2.365  0.00  0.00    +0.258 A 
ATOM      7  O   UNL     1       8.304  -3.282  -3.318  0.00  0.00    -0.267 OA
ATOM      8  N   UNL     1       6.474  -2.253  -2.553  0.00  0.00    -0.302 N 
ATOM      9  H   UNL     1       6.116  -2.050  -3.573  0.00  0.00    +0.171 HD
ATOM     10  C   UNL     1       5.740  -1.842  -1.482  0.00  0.00    +0.171 A 
ATOM     11  N   UNL     1       6.146  -2.063  -0.248  0.00  0.00    -0.208 NA
ATOM     12  C   UNL     1       7.291  -2.709  -0.002  0.00  0.00    +0.135 A 
ATOM     13  N   UNL     1       7.697  -2.930   1.302  0.00  0.00    -0.302 N 
ATOM     14  H   UNL     1       6.971  -2.846   2.124  0.00  0.00    +0.153 HD
ENDROOT
BRANCH   4  15
ATOM     15  C   UNL     1       9.153  -5.352  -1.078  0.00  0.00    -0.035 A 
ATOM     16  C   UNL     1       8.220  -6.062  -0.346  0.00  0.00    +0.008 A 
ATOM     17  C   UNL     1       8.025  -7.407  -0.594  0.00  0.00    +0.046 A 
ATOM     18  C   UNL     1       8.774  -8.048  -1.570  0.00  0.00    +0.121 A 
ATOM     19  C   UNL     1       9.714  -7.334  -2.299  0.00  0.00    +0.046 A 
ATOM     20  C   UNL     1       9.901  -5.988  -2.051  0.00  0.00    +0.008 A 
BRANCH  18  21
ATOM     21  O   UNL     1       8.588  -9.372  -1.812  0.00  0.00    -0.487 OA
BRANCH  21  22
ATOM     22  C   UNL     1       7.603 -10.043  -1.023  0.00  0.00    +0.264 C 
BRANCH  22  23
ATOM     23  C   UNL     1       7.537 -11.493  -1.429  0.00  0.00    -0.010 A 
ATOM     24  C   UNL     1       6.667 -11.892  -2.427  0.00  0.00    +0.007 A 
ATOM     25  C   UNL     1       6.610 -13.221  -2.803  0.00  0.00    +0.000 A 
ATOM     26  C   UNL     1       7.415 -14.153  -2.173  0.00  0.00    +0.000 A 
ATOM     27  C   UNL     1       8.280 -13.754  -1.172  0.00  0.00    +0.000 A 
ATOM     28  C   UNL     1       8.341 -12.425  -0.800  0.00  0.00    +0.007 A 
ENDBRANCH  22  23
ENDBRANCH  21  22
ENDBRANCH  18  21
ENDBRANCH   4  15
BRANCH   3  29
ATOM     29  C   UNL     1      11.159  -4.008   0.938  0.00  0.00    +0.337 C 
ATOM     30  O   UNL     1      11.551  -3.867   2.081  0.00  0.00    -0.245 OA
BRANCH  29  31
ATOM     31  O   UNL     1      12.002  -4.460  -0.015  0.00  0.00    -0.465 OA
ATOM     32  C   UNL     1      13.341  -4.752   0.390  0.00  0.00    +0.280 C 
ENDBRANCH  29  31
ENDBRANCH   3  29
BRANCH  10  33
ATOM     33  S   UNL     1       4.221  -0.993  -1.752  0.00  0.00    -0.083 S 
BRANCH  33  34
ATOM     34  C   UNL     1       3.711  -0.707  -0.039  0.00  0.00    +0.112 C 
BRANCH  34  35
ATOM     35  C   UNL     1       2.396   0.029  -0.022  0.00  0.00    -0.037 A 
ATOM     36  C   UNL     1       1.208  -0.679  -0.014  0.00  0.00    +0.004 A 
ATOM     37  C   UNL     1       0.002  -0.004   0.002  0.00  0.00    +0.000 A 
ATOM     38  C   UNL     1      -0.017   1.378   0.010  0.00  0.00    +0.000 A 
ATOM     39  C   UNL     1       1.171   2.086   0.002  0.00  0.00    +0.000 A 
ATOM     40  C   UNL     1       2.377   1.411  -0.014  0.00  0.00    +0.004 A 
ENDBRANCH  34  35
ENDBRANCH  33  34
ENDBRANCH  10  33
TORSDOF 9
