REMARK  Name = ZINC29367470
REMARK  5 active torsions:
REMARK  status: ('A' for Active; 'I' for Inactive)
REMARK    1  A    between atoms: C_3  and  C_12
REMARK    2  A    between atoms: C_5  and  N_7
REMARK    3  A    between atoms: N_14  and  C_15
REMARK    4  A    between atoms: C_15  and  C_16
REMARK    5  A    between atoms: C_16  and  N_21
REMARK                            x       y       z     vdW  Elec       q    Type
REMARK                         _______ _______ _______ _____ _____    ______ ____
ROOT
ATOM      1  C   UNL     1       5.364   4.146   1.312  0.00  0.00    +0.244 C 
ATOM      2  O   UNL     1       4.532   4.399   0.462  0.00  0.00    -0.270 OA
ATOM      3  N   UNL     1       6.232   3.132   1.124  0.00  0.00    -0.313 N 
ATOM      4  H   UNL     1       6.984   2.903   1.893  0.00  0.00    +0.149 HD
ENDROOT
BRANCH   1   7
ATOM      5  C   UNL     1       6.431   5.415   4.683  0.00  0.00    +0.003 A 
ATOM      6  C   UNL     1       6.378   4.662   3.528  0.00  0.00    +0.013 A 
ATOM      7  C   UNL     1       5.424   4.951   2.551  0.00  0.00    +0.039 A 
ATOM      8  C   UNL     1       4.527   6.001   2.747  0.00  0.00    +0.041 A 
ATOM      9  C   UNL     1       4.589   6.751   3.910  0.00  0.00    +0.069 A 
ATOM     10  C   UNL     1       5.542   6.456   4.877  0.00  0.00    +0.028 A 
BRANCH   9  11
ATOM     11  N   UNL     1       3.686   7.805   4.115  0.00  0.00    -0.200 N 
ATOM     12  C   UNL     1       3.667   8.681   5.142  0.00  0.00    +0.250 A 
ATOM     13  N   UNL     1       2.663   9.494   4.940  0.00  0.00    -0.116 NA
ATOM     14  N   UNL     1       2.047   9.192   3.855  0.00  0.00    -0.023 NA
ATOM     15  N   UNL     1       2.610   8.178   3.291  0.00  0.00    -0.039 NA
ENDBRANCH   9  11
ENDBRANCH   1   7
BRANCH   3  16
ATOM     16  C   UNL     1       6.172   2.335  -0.103  0.00  0.00    +0.092 C 
BRANCH  16  17
ATOM     17  C   UNL     1       7.335   1.340  -0.122  0.00  0.00    -0.050 C 
ATOM     18  C   UNL     1       7.225   0.377   1.078  0.00  0.00    -0.010 C 
ATOM     19  C   UNL     1       8.694   0.153   1.520  0.00  0.00    -0.001 C 
ATOM     20  C   UNL     1       9.327   1.553   1.323  0.00  0.00    -0.001 C 
ATOM     21  C   UNL     1       8.671   2.087   0.034  0.00  0.00    -0.010 C 
BRANCH  17  22
ATOM     22  N   UNL     1       7.327   0.581  -1.379  0.00  0.00    +0.386 N 
ATOM     23  C   UNL     1       7.613   1.452  -2.521  0.00  0.00    -0.067 C 
ATOM     24  C   UNL     1       8.050   0.608  -3.723  0.00  0.00    +0.050 C 
ATOM     25  S   UNL     1       6.682  -0.506  -4.169  0.00  0.00    -0.164 S 
ATOM     26  C   UNL     1       6.255  -1.274  -2.575  0.00  0.00    +0.050 C 
ATOM     27  C   UNL     1       6.073  -0.161  -1.536  0.00  0.00    -0.067 C 
ATOM     28  H   UNL     1       8.133  -0.167  -1.345  0.00  0.00    -0.081 HD
ENDBRANCH  17  22
ENDBRANCH  16  17
ENDBRANCH   3  16
TORSDOF 5
