REMARK  Name = ZINC63399215
REMARK  11 active torsions:
REMARK  status: ('A' for Active; 'I' for Inactive)
REMARK    1  A    between atoms: C_1  and  C_2
REMARK    2  A    between atoms: C_2  and  C_3
REMARK    3  A    between atoms: C_3  and  C_4
REMARK    4  A    between atoms: C_4  and  N_5
REMARK    5  A    between atoms: C_6  and  N_36
REMARK    6  A    between atoms: C_8  and  N_15
REMARK    7  A    between atoms: N_15  and  C_16
REMARK    8  A    between atoms: C_16  and  C_17
REMARK    9  A    between atoms: C_23  and  C_25
REMARK   10  A    between atoms: C_25  and  C_26
REMARK   11  A    between atoms: C_26  and  C_27
REMARK                            x       y       z     vdW  Elec       q    Type
REMARK                         _______ _______ _______ _____ _____    ______ ____
ROOT
ATOM      1  N   UNL     1       3.479  -0.494   3.830  0.00  0.00    -0.286 N 
ATOM      2  C   UNL     1       2.359   0.160   4.195  0.00  0.00    +0.217 C 
ATOM      3  O   UNL     1       1.356  -0.464   4.472  0.00  0.00    -0.276 OA
ENDROOT
BRANCH   1   6
ATOM      4  N   UNL     1       1.183  -2.096   2.749  0.00  0.00    -0.296 N 
ATOM      5  C   UNL     1       2.598  -2.288   2.418  0.00  0.00    +0.047 C 
ATOM      6  C   UNL     1       3.452  -1.947   3.642  0.00  0.00    +0.167 C 
ATOM      7  C   UNL     1       2.856  -2.602   4.862  0.00  0.00    +0.261 C 
ATOM      8  O   UNL     1       3.660  -3.025   5.851  0.00  0.00    -0.272 OA
ATOM      9  N   UNL     1       1.567  -2.761   4.965  0.00  0.00    -0.126 NA
ATOM     10  C   UNL     1       0.731  -2.380   3.983  0.00  0.00    +0.327 C 
ATOM     11  O   UNL     1      -0.460  -2.294   4.216  0.00  0.00    -0.250 OA
BRANCH   5  12
ATOM     12  N   UNL     1       2.964  -1.406   1.302  0.00  0.00    +0.392 N 
ATOM     13  H   UNL     1       2.808  -0.445   1.567  0.00  0.00    -0.087 HD
ATOM     14  H   UNL     1       3.938  -1.538   1.074  0.00  0.00    -0.087 HD
ATOM     15  H   UNL     1       2.397  -1.629   0.497  0.00  0.00    -0.087 HD
ENDBRANCH   5  12
BRANCH   4  16
ATOM     16  C   UNL     1       0.258  -1.587   1.733  0.00  0.00    +0.107 C 
BRANCH  16  17
ATOM     17  C   UNL     1       0.135  -0.069   1.870  0.00  0.00    +0.019 C 
BRANCH  17  19
ATOM     18  C   UNL     1      -0.971   1.976   0.956  0.00  0.00    +0.004 C 
ATOM     19  C   UNL     1      -0.909   0.450   0.880  0.00  0.00    -0.002 C 
ENDBRANCH  17  19
ENDBRANCH  16  17
ENDBRANCH   4  16
ENDBRANCH   1   6
BRANCH   1  20
ATOM     20  C   UNL     1       4.725   0.248   3.621  0.00  0.00    +0.143 C 
BRANCH  20  21
ATOM     21  C   UNL     1       4.784   0.740   2.198  0.00  0.00    -0.030 A 
ATOM     22  C   UNL     1       5.324  -0.064   1.211  0.00  0.00    +0.005 A 
ATOM     23  C   UNL     1       5.378   0.387  -0.095  0.00  0.00    +0.000 A 
ATOM     24  C   UNL     1       4.892   1.641  -0.413  0.00  0.00    +0.000 A 
ATOM     25  C   UNL     1       4.352   2.445   0.573  0.00  0.00    +0.000 A 
ATOM     26  C   UNL     1       4.294   1.992   1.878  0.00  0.00    +0.005 A 
ENDBRANCH  20  21
ENDBRANCH   1  20
BRANCH   2  27
ATOM     27  C   UNL     1       2.352   1.665   4.260  0.00  0.00    +0.100 C 
BRANCH  27  28
ATOM     28  C   UNL     1       1.040   2.143   4.886  0.00  0.00    +0.042 C 
BRANCH  28  29
ATOM     29  C   UNL     1       1.091   3.636   5.080  0.00  0.00    -0.041 C 
ATOM     30  C   UNL     1       0.653   4.583   4.219  0.00  0.00    -0.001 A 
ATOM     31  C   UNL     1       0.024   4.510   2.895  0.00  0.00    +0.010 A 
ATOM     32  C   UNL     1      -0.310   5.657   2.263  0.00  0.00    +0.001 A 
ATOM     33  C   UNL     1      -0.071   6.913   2.838  0.00  0.00    +0.002 A 
ATOM     34  C   UNL     1       0.503   7.061   4.051  0.00  0.00    +0.026 A 
ATOM     35  C   UNL     1       0.894   5.921   4.806  0.00  0.00    +0.043 A 
ATOM     36  N   UNL     1       1.460   5.805   5.983  0.00  0.00    -0.380 N 
ATOM     37  C   UNL     1       1.635   4.379   6.279  0.00  0.00    +0.144 C 
ATOM     38  H   UNL     1       1.715   6.540   6.563  0.00  0.00    +0.160 HD
ENDBRANCH  28  29
ENDBRANCH  27  28
ENDBRANCH   2  27
TORSDOF 10
