REMARK  Name = ZINC37055753
REMARK  6 active torsions:
REMARK  status: ('A' for Active; 'I' for Inactive)
REMARK    1  A    between atoms: C_1  and  C_2
REMARK    2  A    between atoms: C_2  and  N_3
REMARK    3  A    between atoms: N_3  and  C_4
REMARK    4  A    between atoms: N_3  and  S_10
REMARK    5  A    between atoms: S_10  and  C_13
REMARK    6  A    between atoms: C_14  and  N_21
REMARK                            x       y       z     vdW  Elec       q    Type
REMARK                         _______ _______ _______ _____ _____    ______ ____
ROOT
ATOM      1  S   UNL     1      -0.221  -0.625  -3.282  0.00  0.00    +0.064 S 
ATOM      2  O   UNL     1       0.578  -1.241  -4.283  0.00  0.00    -0.153 OA
ATOM      3  O   UNL     1      -1.593  -0.946  -3.098  0.00  0.00    -0.153 OA
ENDROOT
BRANCH   1   4
ATOM      4  C   UNL     1      -0.144   1.111  -3.575  0.00  0.00    +0.140 A 
ATOM      5  C   UNL     1      -1.171   1.937  -3.133  0.00  0.00    +0.053 A 
ATOM      6  C   UNL     1      -1.107   3.304  -3.365  0.00  0.00    +0.040 A 
ATOM      7  C   UNL     1      -0.023   3.840  -4.035  0.00  0.00    +0.021 A 
ATOM      8  C   UNL     1       0.997   3.016  -4.474  0.00  0.00    +0.032 A 
ATOM      9  C   UNL     1       0.939   1.653  -4.239  0.00  0.00    +0.047 A 
ATOM     10 BR   UNL     1       2.340   0.531  -4.835  0.00  0.00    -0.048 Br
ATOM     11 BR   UNL     1       0.065   5.703  -4.352  0.00  0.00    -0.050 Br
BRANCH   5  12
ATOM     12  N   UNL     1      -2.265   1.392  -2.457  0.00  0.00    -0.356 N 
ATOM     13  H   UNL     1      -2.190   0.522  -2.035  0.00  0.00    +0.142 HD
ATOM     14  H   UNL     1      -3.099   1.884  -2.409  0.00  0.00    +0.142 HD
ENDBRANCH   5  12
ENDBRANCH   1   4
BRANCH   1  15
ATOM     15  N   UNL     1       0.531  -0.911  -1.835  0.00  0.00    -0.174 NA
BRANCH  15  16
ATOM     16  C   UNL     1       1.969  -1.188  -1.798  0.00  0.00    +0.080 C 
ATOM     17  C   UNL     1       2.214  -2.516  -1.080  0.00  0.00    +0.020 C 
ATOM     18  C   UNL     1       3.716  -2.806  -1.042  0.00  0.00    +0.002 C 
ATOM     19  C   UNL     1       4.433  -1.681  -0.292  0.00  0.00    +0.000 C 
ATOM     20  C   UNL     1       4.188  -0.352  -1.010  0.00  0.00    +0.002 C 
ATOM     21  C   UNL     1       2.686  -0.063  -1.048  0.00  0.00    +0.020 C 
ENDBRANCH  15  16
BRANCH  15  23
ATOM     22  C   UNL     1      -0.718  -2.302  -0.258  0.00  0.00    +0.022 C 
ATOM     23  C   UNL     1      -0.242  -0.886  -0.590  0.00  0.00    +0.106 C 
ENDBRANCH  15  23
ENDBRANCH   1  15
TORSDOF 5
