REMARK  Name = ZINC65968628
REMARK  6 active torsions:
REMARK  status: ('A' for Active; 'I' for Inactive)
REMARK    1  A    between atoms: C_1  and  C_2
REMARK    2  A    between atoms: C_8  and  C_17
REMARK    3  A    between atoms: C_12  and  C_13
REMARK    4  A    between atoms: C_13  and  O_15
REMARK    5  A    between atoms: O_15  and  C_16
REMARK    6  A    between atoms: C_17  and  N_18
REMARK                            x       y       z     vdW  Elec       q    Type
REMARK                         _______ _______ _______ _____ _____    ______ ____
ROOT
ATOM      1  C   UNL     1      -5.396  -1.323  -7.879  0.00  0.00    +0.046 C 
ATOM      2  C   UNL     1      -4.996  -2.511  -7.043  0.00  0.00    -0.015 A 
ATOM      3  C   UNL     1      -3.715  -2.579  -6.492  0.00  0.00    +0.076 A 
ATOM      4  C   UNL     1      -2.599  -1.611  -6.595  0.00  0.00    +0.260 A 
ATOM      5  O   UNL     1      -2.723  -0.580  -7.231  0.00  0.00    -0.267 OA
ATOM      6  N   UNL     1      -1.442  -1.901  -5.968  0.00  0.00    -0.312 N 
ATOM      7  H   UNL     1      -0.702  -1.277  -6.025  0.00  0.00    +0.170 HD
ATOM      8  C   UNL     1      -1.293  -3.046  -5.257  0.00  0.00    +0.094 A 
ATOM      9  N   UNL     1      -2.256  -3.920  -5.145  0.00  0.00    -0.229 NA
ATOM     10  C   UNL     1      -3.435  -3.733  -5.724  0.00  0.00    +0.116 A 
ATOM     11  S   UNL     1      -4.950  -4.654  -5.806  0.00  0.00    -0.062 S 
ATOM     12  C   UNL     1      -5.886  -3.521  -6.818  0.00  0.00    +0.102 A 
ENDROOT
BRANCH  12  13
ATOM     13  C   UNL     1      -7.266  -3.645  -7.291  0.00  0.00    +0.346 C 
ATOM     14  O   UNL     1      -7.753  -2.770  -7.982  0.00  0.00    -0.244 OA
BRANCH  13  15
ATOM     15  O   UNL     1      -7.998  -4.729  -6.961  0.00  0.00    -0.464 OA
ATOM     16  C   UNL     1      -9.337  -4.784  -7.458  0.00  0.00    +0.280 C 
ENDBRANCH  13  15
ENDBRANCH  12  13
BRANCH   8  17
ATOM     17  C   UNL     1       0.024  -3.317  -4.576  0.00  0.00    -0.003 C 
BRANCH  17  18
ATOM     18  N   UNL     1       0.006  -4.665  -3.994  0.00  0.00    +0.386 N 
ATOM     19  C   UNL     1       1.115  -4.776  -3.093  0.00  0.00    -0.074 C 
ATOM     20  C   UNL     1       1.571  -6.171  -2.798  0.00  0.00    -0.027 C 
ATOM     21  C   UNL     1       0.453  -7.168  -2.583  0.00  0.00    +0.005 C 
ATOM     22  C   UNL     1      -0.067  -7.797  -3.863  0.00  0.00    -0.012 C 
ATOM     23  C   UNL     1       1.085  -8.319  -4.725  0.00  0.00    +0.007 C 
ATOM     24  C   UNL     1       2.014  -7.145  -5.034  0.00  0.00    -0.012 C 
ATOM     25  C   UNL     1       2.654  -6.679  -3.722  0.00  0.00    +0.005 C 
ATOM     26  C   UNL     1       1.271  -6.001  -5.691  0.00  0.00    -0.012 C 
ATOM     27  C   UNL     1      -0.040  -5.617  -5.073  0.00  0.00    -0.067 C 
ATOM     28  C   UNL     1      -0.895  -6.821  -4.691  0.00  0.00    -0.012 C 
ATOM     29  H   UNL     1      -0.843  -4.760  -3.457  0.00  0.00    -0.081 HD
ENDBRANCH  17  18
ENDBRANCH   8  17
TORSDOF 4
