REMARK  Name = ZINC00719257
REMARK  6 active torsions:
REMARK  status: ('A' for Active; 'I' for Inactive)
REMARK    1  A    between atoms: C_1  and  C_2
REMARK    2  A    between atoms: C_4  and  C_24
REMARK    3  A    between atoms: C_14  and  C_17
REMARK    4  A    between atoms: C_22  and  O_23
REMARK    5  A    between atoms: C_24  and  O_25
REMARK    6  A    between atoms: O_25  and  C_26
REMARK                            x       y       z     vdW  Elec       q    Type
REMARK                         _______ _______ _______ _____ _____    ______ ____
ROOT
ATOM      1  C   UNL     1      -1.843  -3.037   0.488  0.00  0.00    +0.065 C 
ATOM      2  C   UNL     1      -0.716  -2.042   0.387  0.00  0.00    +0.040 A 
ATOM      3  C   UNL     1       0.598  -2.484   0.410  0.00  0.00    +0.029 A 
ATOM      4  C   UNL     1       1.636  -1.588   0.320  0.00  0.00    -0.009 A 
ATOM      5  C   UNL     1       1.343  -0.206   0.202  0.00  0.00    +0.035 A 
ATOM      6  C   UNL     1       2.281   0.908   0.097  0.00  0.00    +0.058 A 
ATOM      7  C   UNL     1       1.723   2.174  -0.021  0.00  0.00    +0.097 A 
ATOM      8  S   UNL     1      -0.021   1.911   0.025  0.00  0.00    -0.062 S 
ATOM      9  C   UNL     1      -0.027   0.141   0.185  0.00  0.00    +0.111 A 
ATOM     10  N   UNL     1      -0.986  -0.756   0.276  0.00  0.00    -0.245 NA
ATOM     11  C   UNL     1       2.477   3.357  -0.137  0.00  0.00    +0.254 C 
ATOM     12  O   UNL     1       1.974   4.463  -0.062  0.00  0.00    -0.270 OA
ATOM     13  N   UNL     1       3.811   3.174  -0.338  0.00  0.00    -0.289 N 
ATOM     14  C   UNL     1       4.324   1.842  -0.651  0.00  0.00    +0.193 C 
ATOM     15  N   UNL     1       3.679   0.783   0.128  0.00  0.00    -0.321 N 
ATOM     16  H   UNL     1       4.419   3.926  -0.274  0.00  0.00    +0.151 HD
ATOM     17  H   UNL     1       4.020   0.774   1.077  0.00  0.00    +0.148 HD
ENDROOT
BRANCH  14  18
ATOM     18  C   UNL     1       5.805   1.815  -0.373  0.00  0.00    +0.032 A 
ATOM     19  C   UNL     1       6.351   2.685   0.551  0.00  0.00    +0.011 A 
ATOM     20  C   UNL     1       7.709   2.661   0.807  0.00  0.00    +0.001 A 
ATOM     21  C   UNL     1       8.525   1.766   0.138  0.00  0.00    +0.004 A 
ATOM     22  C   UNL     1       7.984   0.894  -0.786  0.00  0.00    +0.046 A 
ATOM     23  C   UNL     1       6.620   0.913  -1.041  0.00  0.00    +0.123 A 
BRANCH  23  24
ATOM     24  O   UNL     1       6.085   0.053  -1.946  0.00  0.00    -0.506 OA
ATOM     25  H   UNL     1       6.131   0.365  -2.860  0.00  0.00    +0.292 HD
ENDBRANCH  23  24
ENDBRANCH  14  18
BRANCH   4  26
ATOM     26  C   UNL     1       3.065  -2.067   0.345  0.00  0.00    +0.195 C 
BRANCH  26  27
ATOM     27  O   UNL     1       3.088  -3.490   0.469  0.00  0.00    -0.378 OA
ATOM     28  C   UNL     1       4.403  -4.049   0.503  0.00  0.00    +0.194 C 
ENDBRANCH  26  27
ENDBRANCH   4  26
TORSDOF 4
