REMARK  Name = ZINC65872699
REMARK  6 active torsions:
REMARK  status: ('A' for Active; 'I' for Inactive)
REMARK    1  A    between atoms: C_1  and  C_2
REMARK    2  A    between atoms: C_3  and  C_21
REMARK    3  A    between atoms: C_8  and  C_10
REMARK    4  A    between atoms: C_10  and  C_11
REMARK    5  A    between atoms: N_13  and  C_20
REMARK    6  A    between atoms: N_26  and  C_27
REMARK                            x       y       z     vdW  Elec       q    Type
REMARK                         _______ _______ _______ _____ _____    ______ ____
ROOT
ATOM      1  C   UNL     1      -0.018   1.503   0.010  0.00  0.00    +0.067 C 
ATOM      2  C   UNL     1       0.002  -0.004   0.002  0.00  0.00    +0.058 A 
ATOM      3  C   UNL     1       0.006  -0.719  -1.170  0.00  0.00    +0.081 A 
ATOM      4  S   UNL     1       0.032  -2.389  -0.539  0.00  0.00    -0.049 S 
ATOM      5  C   UNL     1       0.035  -2.018   1.102  0.00  0.00    +0.165 A 
ATOM      6  N   UNL     1       0.023  -0.701   1.117  0.00  0.00    -0.229 NA
ATOM      7  N   UNL     1       0.051  -2.890   2.182  0.00  0.00    -0.264 N 
ATOM      8  C   UNL     1       0.051  -2.406   3.440  0.00  0.00    +0.223 C 
ATOM      9  O   UNL     1       0.036  -1.209   3.629  0.00  0.00    -0.275 OA
ATOM     10  H   UNL     1       0.063  -3.849   2.031  0.00  0.00    +0.157 HD
ENDROOT
BRANCH   3  11
ATOM     11  C   UNL     1      -0.008  -0.241  -2.562  0.00  0.00    +0.173 A 
ATOM     12  N   UNL     1      -0.021   1.013  -2.958  0.00  0.00    -0.128 NA
ATOM     13  N   UNL     1      -0.030   1.068  -4.242  0.00  0.00    -0.121 NA
ATOM     14  C   UNL     1      -0.023  -0.145  -4.747  0.00  0.00    +0.202 A 
ATOM     15  S   UNL     1      -0.030  -0.564  -6.458  0.00  0.00    -0.009 SA
ATOM     16  N   UNL     1      -0.003  -1.021  -3.696  0.00  0.00    -0.304 N 
ATOM     17  C   UNL     1       0.017  -2.485  -3.765  0.00  0.00    +0.153 C 
ENDBRANCH   3  11
BRANCH   8  18
ATOM     18  C   UNL     1       0.069  -3.354   4.612  0.00  0.00    +0.133 C 
BRANCH  18  19
ATOM     19  C   UNL     1       0.065  -2.565   5.895  0.00  0.00    -0.013 A 
ATOM     20  C   UNL     1       1.139  -2.208   6.617  0.00  0.00    +0.090 A 
ATOM     21  N   UNL     1       0.747  -1.499   7.719  0.00  0.00    -0.349 N 
ATOM     22  C   UNL     1      -0.625  -1.380   7.735  0.00  0.00    +0.049 A 
ATOM     23  C   UNL     1      -1.112  -2.037   6.590  0.00  0.00    +0.003 A 
ATOM     24  C   UNL     1      -2.484  -2.073   6.338  0.00  0.00    +0.010 A 
ATOM     25  C   UNL     1      -3.349  -1.466   7.205  0.00  0.00    +0.001 A 
ATOM     26  C   UNL     1      -2.874  -0.813   8.334  0.00  0.00    +0.002 A 
ATOM     27  C   UNL     1      -1.523  -0.773   8.606  0.00  0.00    +0.026 A 
ATOM     28  C   UNL     1       1.651  -0.950   8.732  0.00  0.00    +0.149 C 
ENDBRANCH  18  19
ENDBRANCH   8  18
TORSDOF 3
