REMARK  Name = ZINC07286245
REMARK  7 active torsions:
REMARK  status: ('A' for Active; 'I' for Inactive)
REMARK    1  A    between atoms: C_1  and  O_2
REMARK    2  A    between atoms: O_2  and  C_3
REMARK    3  A    between atoms: C_8  and  C_9
REMARK    4  A    between atoms: C_9  and  N_10
REMARK    5  A    between atoms: C_11  and  S_13
REMARK    6  A    between atoms: S_13  and  C_14
REMARK    7  A    between atoms: C_14  and  C_15
REMARK                            x       y       z     vdW  Elec       q    Type
REMARK                         _______ _______ _______ _____ _____    ______ ____
ROOT
ATOM      1  N   UNL     1      -4.939  -3.970   0.036  0.00  0.00    -0.259 NA
ATOM      2  C   UNL     1      -5.173  -2.692  -0.072  0.00  0.00    +0.147 C 
ATOM      3  N   UNL     1      -6.466  -2.238  -0.200  0.00  0.00    -0.338 N 
ATOM      4  H   UNL     1      -6.647  -1.285  -0.201  0.00  0.00    +0.144 HD
ATOM      5  H   UNL     1      -7.196  -2.871  -0.288  0.00  0.00    +0.144 HD
ENDROOT
BRANCH   1   6
ATOM      6  C   UNL     1      -6.043  -4.928  -0.062  0.00  0.00    +0.183 C 
BRANCH   6  12
ATOM      7  C   UNL     1      -4.983  -6.846  -1.281  0.00  0.00    +0.125 A 
ATOM      8  C   UNL     1      -4.822  -7.625  -2.418  0.00  0.00    +0.046 A 
ATOM      9  C   UNL     1      -5.540  -7.332  -3.561  0.00  0.00    +0.004 A 
ATOM     10  C   UNL     1      -6.418  -6.264  -3.573  0.00  0.00    +0.001 A 
ATOM     11  C   UNL     1      -6.584  -5.490  -2.440  0.00  0.00    +0.009 A 
ATOM     12  C   UNL     1      -5.865  -5.776  -1.295  0.00  0.00    +0.016 A 
BRANCH   7  14
ATOM     13  C   UNL     1      -3.390  -8.250  -0.212  0.00  0.00    +0.277 C 
ATOM     14  O   UNL     1      -4.279  -7.133  -0.154  0.00  0.00    -0.495 OA
ENDBRANCH   7  14
ENDBRANCH   6  12
ENDBRANCH   1   6
BRANCH   2  15
ATOM     15  S   UNL     1      -3.835  -1.546  -0.054  0.00  0.00    -0.083 S 
BRANCH  15  16
ATOM     16  C   UNL     1      -2.444  -2.690   0.130  0.00  0.00    +0.151 C 
BRANCH  16  17
ATOM     17  C   UNL     1      -1.155  -1.911   0.170  0.00  0.00    +0.121 A 
ATOM     18  N   UNL     1       0.009  -2.599   0.305  0.00  0.00    -0.310 N 
ATOM     19  H   UNL     1      -0.009  -3.566   0.372  0.00  0.00    +0.170 HD
ATOM     20  C   UNL     1       1.194  -1.946   0.346  0.00  0.00    +0.259 A 
ATOM     21  O   UNL     1       2.244  -2.549   0.467  0.00  0.00    -0.267 OA
ATOM     22  C   UNL     1       1.163  -0.479   0.239  0.00  0.00    +0.065 A 
ATOM     23  C   UNL     1       2.326   0.287   0.271  0.00  0.00    +0.015 A 
ATOM     24  C   UNL     1       2.239   1.658   0.168  0.00  0.00    +0.001 A 
ATOM     25  C   UNL     1       1.004   2.279   0.032  0.00  0.00    +0.002 A 
ATOM     26  C   UNL     1      -0.157   1.540  -0.001  0.00  0.00    +0.028 A 
ATOM     27  C   UNL     1      -0.095   0.149   0.102  0.00  0.00    +0.078 A 
ATOM     28  N   UNL     1      -1.214  -0.618   0.074  0.00  0.00    -0.233 NA
ENDBRANCH  16  17
ENDBRANCH  15  16
ENDBRANCH   2  15
TORSDOF 6
