REMARK  Name = ZINC32100549
REMARK  4 active torsions:
REMARK  status: ('A' for Active; 'I' for Inactive)
REMARK    1  A    between atoms: C_13  and  O_31
REMARK    2  A    between atoms: N_19  and  C_20
REMARK    3  A    between atoms: C_23  and  O_26
REMARK    4  A    between atoms: O_26  and  C_27
REMARK                            x       y       z     vdW  Elec       q    Type
REMARK                         _______ _______ _______ _____ _____    ______ ____
ROOT
ATOM      1  C   UNL     1      -0.017   1.375   0.010  0.00  0.00    +0.002 A 
ATOM      2  C   UNL     1       1.161   2.116   0.002  0.00  0.00    +0.007 A 
ATOM      3  C   UNL     1       2.345   1.411  -0.012  0.00  0.00    -0.005 A 
ATOM      4  C   UNL     1       2.378   0.010  -0.021  0.00  0.00    +0.056 A 
ATOM      5  C   UNL     1       1.189  -0.722  -0.014  0.00  0.00    +0.062 A 
ATOM      6  C   UNL     1       0.002  -0.004   0.002  0.00  0.00    +0.022 A 
ATOM      7 CL   UNL     1       1.196  -2.458  -0.024  0.00  0.00    -0.082 Cl
ATOM      8  N   UNL     1       3.687  -0.440  -0.035  0.00  0.00    -0.283 N 
ATOM      9  C   UNL     1       4.572   0.580  -0.036  0.00  0.00    +0.233 C 
ATOM     10  O   UNL     1       5.782   0.486  -0.045  0.00  0.00    -0.274 OA
ATOM     11  C   UNL     1       3.769   1.861  -0.022  0.00  0.00    +0.112 C 
ATOM     12  C   UNL     1       4.081   2.695  -1.263  0.00  0.00    +0.121 C 
ATOM     13  C   UNL     1       3.658   4.125  -1.086  0.00  0.00    +0.191 C 
ATOM     14  N   UNL     1       3.668   4.741   0.058  0.00  0.00    -0.197 NA
ATOM     15  C   UNL     1       4.033   4.062   1.182  0.00  0.00    +0.164 A 
ATOM     16  C   UNL     1       4.097   2.673   1.200  0.00  0.00    +0.036 A 
ATOM     17  C   UNL     1       4.490   2.284   2.466  0.00  0.00    +0.142 A 
ATOM     18  N   UNL     1       4.649   3.360   3.203  0.00  0.00    -0.173 NA
ATOM     19  N   UNL     1       4.359   4.491   2.422  0.00  0.00    -0.214 N 
ATOM     20  H   UNL     1       3.939  -1.376  -0.044  0.00  0.00    +0.155 HD
ENDROOT
BRANCH  19  21
ATOM     21  C   UNL     1       4.401   5.825   2.852  0.00  0.00    +0.068 A 
ATOM     22  C   UNL     1       4.804   6.824   1.977  0.00  0.00    +0.031 A 
ATOM     23  C   UNL     1       4.845   8.138   2.401  0.00  0.00    +0.048 A 
ATOM     24  C   UNL     1       4.483   8.459   3.701  0.00  0.00    +0.130 A 
ATOM     25  C   UNL     1       4.079   7.461   4.576  0.00  0.00    +0.048 A 
ATOM     26  C   UNL     1       4.032   6.148   4.151  0.00  0.00    +0.031 A 
BRANCH  24  27
ATOM     27  O   UNL     1       4.523   9.752   4.117  0.00  0.00    -0.406 OA
BRANCH  27  28
ATOM     28  C   UNL     1       4.137  10.011   5.469  0.00  0.00    +0.575 C 
ATOM     29  F   UNL     1       4.980   9.310   6.337  0.00  0.00    -0.133 F 
ATOM     30  F   UNL     1       4.236  11.382   5.728  0.00  0.00    -0.133 F 
ATOM     31  F   UNL     1       2.815   9.594   5.664  0.00  0.00    -0.133 F 
ENDBRANCH  27  28
ENDBRANCH  24  27
ENDBRANCH  19  21
BRANCH  13  32
ATOM     32  O   UNL     1       3.244   4.807  -2.174  0.00  0.00    -0.495 OA
ATOM     33  H   UNL     1       2.986   5.721  -1.991  0.00  0.00    +0.293 HD
ENDBRANCH  13  32
TORSDOF 4
