REMARK  Name = ZINC15068429
REMARK  8 active torsions:
REMARK  status: ('A' for Active; 'I' for Inactive)
REMARK    1  A    between atoms: C_1  and  C_2
REMARK    2  A    between atoms: C_2  and  C_3
REMARK    3  A    between atoms: C_2  and  C_4
REMARK    4  A    between atoms: C_4  and  C_5
REMARK    5  A    between atoms: C_5  and  N_6
REMARK    6  A    between atoms: C_12  and  C_14
REMARK    7  A    between atoms: C_14  and  C_15
REMARK    8  A    between atoms: N_20  and  C_24
REMARK                            x       y       z     vdW  Elec       q    Type
REMARK                         _______ _______ _______ _____ _____    ______ ____
ROOT
ATOM      1  C   UNL     1      -1.201  -1.299   4.934  0.00  0.00    +0.090 C 
ENDROOT
BRANCH   1   8
ATOM      2  N   UNL     1      -0.577   1.067   4.965  0.00  0.00    +0.389 N 
ATOM      3  C   UNL     1       0.530   2.016   4.768  0.00  0.00    -0.059 C 
ATOM      4  C   UNL     1       1.015   1.914   3.321  0.00  0.00    +0.085 C 
ATOM      5  N   UNL     1       1.276   0.517   2.982  0.00  0.00    -0.318 N 
ATOM      6  C   UNL     1       0.790  -0.502   3.700  0.00  0.00    +0.200 C 
ATOM      7  O   UNL     1       1.032  -1.635   3.340  0.00  0.00    -0.278 OA
ATOM      8  C   UNL     1      -0.042  -0.300   4.935  0.00  0.00    +0.028 C 
ATOM      9  H   UNL     1       1.822   0.320   2.204  0.00  0.00    +0.149 HD
ATOM     10  H   UNL     1      -1.257   1.180   4.229  0.00  0.00    -0.081 HD
BRANCH   2  11
ATOM     11  C   UNL     1      -1.213   1.317   6.266  0.00  0.00    -0.077 C 
BRANCH  11  12
ATOM     12  C   UNL     1      -1.901   2.683   6.242  0.00  0.00    -0.016 C 
BRANCH  12  14
ATOM     13  C   UNL     1      -1.488   3.050   8.679  0.00  0.00    +0.007 C 
ATOM     14  C   UNL     1      -2.564   2.943   7.597  0.00  0.00    -0.019 C 
ATOM     15  C   UNL     1      -3.356   4.251   7.534  0.00  0.00    +0.007 C 
ENDBRANCH  12  14
ENDBRANCH  11  12
ENDBRANCH   2  11
ENDBRANCH   1   8
BRANCH   1  16
ATOM     16  C   UNL     1      -2.041  -1.093   3.700  0.00  0.00    +0.215 C 
ATOM     17  O   UNL     1      -1.683  -0.308   2.847  0.00  0.00    -0.276 OA
ATOM     18  N   UNL     1      -3.189  -1.780   3.543  0.00  0.00    -0.291 N 
ATOM     19  C   UNL     1      -4.029  -1.607   2.346  0.00  0.00    +0.127 C 
ATOM     20  C   UNL     1      -4.112  -2.952   1.622  0.00  0.00    +0.127 C 
ATOM     21  N   UNL     1      -4.399  -4.028   2.561  0.00  0.00    -0.296 N 
ATOM     22  C   UNL     1      -4.165  -3.970   3.873  0.00  0.00    +0.233 C 
ATOM     23  O   UNL     1      -4.373  -4.961   4.541  0.00  0.00    -0.274 OA
ATOM     24  C   UNL     1      -3.651  -2.739   4.558  0.00  0.00    +0.203 C 
BRANCH  21  25
ATOM     25  C   UNL     1      -4.988  -5.258   2.027  0.00  0.00    +0.076 C 
ATOM     26  C   UNL     1      -6.346  -5.503   2.689  0.00  0.00    +0.022 C 
ATOM     27  C   UNL     1      -6.960  -6.789   2.131  0.00  0.00    +0.002 C 
ATOM     28  C   UNL     1      -6.030  -7.968   2.424  0.00  0.00    +0.000 C 
ATOM     29  C   UNL     1      -4.672  -7.723   1.762  0.00  0.00    +0.002 C 
ATOM     30  C   UNL     1      -4.058  -6.437   2.320  0.00  0.00    +0.022 C 
ENDBRANCH  21  25
ENDBRANCH   1  16
TORSDOF 6
