REMARK  Name = ZINC05122731
REMARK  3 active torsions:
REMARK  status: ('A' for Active; 'I' for Inactive)
REMARK    1  A    between atoms: C_1  and  C_2
REMARK    2  A    between atoms: C_16  and  O_21
REMARK    3  A    between atoms: O_21  and  C_22
REMARK                            x       y       z     vdW  Elec       q    Type
REMARK                         _______ _______ _______ _____ _____    ______ ____
ROOT
ATOM      1  C   UNL     1      -8.009   7.546   0.050  0.00  0.00    +0.008 C 
ATOM      2  C   UNL     1      -6.707   6.808  -0.267  0.00  0.00    -0.009 C 
ATOM      3  C   UNL     1      -6.630   5.523   0.562  0.00  0.00    +0.010 C 
ATOM      4  C   UNL     1      -5.465   4.656   0.083  0.00  0.00    +0.056 C 
ATOM      5  C   UNL     1      -4.197   5.502   0.072  0.00  0.00    +0.054 A 
ATOM      6  C   UNL     1      -4.278   6.857   0.079  0.00  0.00    +0.015 A 
ATOM      7  S   UNL     1      -2.575   7.350   0.073  0.00  0.00    -0.057 S 
ATOM      8  C   UNL     1      -1.892   5.752   0.051  0.00  0.00    +0.164 A 
ATOM      9  N   UNL     1      -2.967   4.991   0.058  0.00  0.00    -0.229 NA
ATOM     10  N   UNL     1      -0.556   5.374   0.036  0.00  0.00    -0.273 N 
ATOM     11  C   UNL     1      -0.217   4.035   0.026  0.00  0.00    +0.165 A 
ATOM     12  N   UNL     1       0.977   3.487   0.011  0.00  0.00    -0.224 NA
ATOM     13  C   UNL     1       1.161   2.149   0.003  0.00  0.00    +0.084 A 
ATOM     14  C   UNL     1       2.383   1.437  -0.013  0.00  0.00    +0.074 A 
ATOM     15  C   UNL     1       2.395   0.062  -0.021  0.00  0.00    +0.122 A 
ATOM     16  C   UNL     1       1.213  -0.672  -0.013  0.00  0.00    +0.047 A 
ATOM     17  C   UNL     1       0.002  -0.004   0.002  0.00  0.00    +0.021 A 
ATOM     18  C   UNL     1      -0.017   1.368   0.010  0.00  0.00    +0.041 A 
ATOM     19  S   UNL     1      -1.291   2.606   0.021  0.00  0.00    -0.052 S 
ATOM     20  C   UNL     1      -5.508   7.700   0.094  0.00  0.00    +0.047 C 
ATOM     21  H   UNL     1       0.139   6.051   0.033  0.00  0.00    +0.156 HD
ENDROOT
BRANCH  15  22
ATOM     22  O   UNL     1       3.586  -0.593  -0.035  0.00  0.00    -0.495 OA
ATOM     23  C   UNL     1       3.540  -2.022  -0.042  0.00  0.00    +0.277 C 
ENDBRANCH  15  22
TORSDOF 1
