REMARK  Name = ZINC00971063
REMARK  7 active torsions:
REMARK  status: ('A' for Active; 'I' for Inactive)
REMARK    1  A    between atoms: C_1  and  C_2
REMARK    2  A    between atoms: C_2  and  C_3
REMARK    3  A    between atoms: C_3  and  C_4
REMARK    4  A    between atoms: C_13  and  C_15
REMARK    5  A    between atoms: C_13  and  C_16
REMARK    6  A    between atoms: N_19  and  N_20
REMARK    7  A    between atoms: C_21  and  C_23
REMARK                            x       y       z     vdW  Elec       q    Type
REMARK                         _______ _______ _______ _____ _____    ______ ____
ROOT
ATOM      1  C   UNL     1       0.762  -2.018   1.233  0.00  0.00    +0.132 A 
ATOM      2  N   UNL     1       0.198  -2.662   0.247  0.00  0.00    -0.225 NA
ATOM      3  C   UNL     1       0.198  -3.991   0.209  0.00  0.00    +0.116 A 
ATOM      4  C   UNL     1       0.798  -4.765   1.216  0.00  0.00    +0.077 A 
ATOM      5  C   UNL     1       0.719  -6.211   1.039  0.00  0.00    -0.018 A 
ATOM      6  C   UNL     1       0.082  -6.662  -0.065  0.00  0.00    +0.021 A 
ATOM      7  S   UNL     1      -0.442  -5.204  -0.919  0.00  0.00    -0.071 S 
ATOM      8  C   UNL     1      -0.116  -8.096  -0.449  0.00  0.00    +0.203 C 
ATOM      9  O   UNL     1       0.747  -8.897   0.373  0.00  0.00    -0.368 OA
ATOM     10  C   UNL     1       0.668  -8.577   1.764  0.00  0.00    +0.068 C 
ATOM     11  C   UNL     1       1.311  -7.212   2.029  0.00  0.00    +0.071 C 
ATOM     12  C   UNL     1      -0.800  -8.538   2.194  0.00  0.00    +0.041 C 
ATOM     13  C   UNL     1       1.402  -9.648   2.574  0.00  0.00    +0.041 C 
ATOM     14  C   UNL     1       1.409  -4.027   2.283  0.00  0.00    +0.280 A 
ATOM     15  O   UNL     1       1.957  -4.608   3.203  0.00  0.00    -0.265 OA
ATOM     16  N   UNL     1       1.373  -2.682   2.248  0.00  0.00    -0.209 N 
ENDROOT
BRANCH  16  17
ATOM     17  N   UNL     1       1.972  -1.953   3.283  0.00  0.00    -0.212 N 
ATOM     18  C   UNL     1       1.372  -1.875   4.488  0.00  0.00    +0.297 C 
ATOM     19  O   UNL     1       0.311  -2.440   4.677  0.00  0.00    -0.265 OA
ATOM     20  H   UNL     1       2.818  -1.503   3.133  0.00  0.00    +0.176 HD
BRANCH  18  21
ATOM     21  C   UNL     1       2.000  -1.112   5.572  0.00  0.00    +0.191 A 
ATOM     22  C   UNL     1       1.505  -0.958   6.835  0.00  0.00    +0.054 A 
ATOM     23  C   UNL     1       2.424  -0.158   7.533  0.00  0.00    +0.042 A 
ATOM     24  C   UNL     1       3.426   0.138   6.676  0.00  0.00    +0.196 A 
ATOM     25  O   UNL     1       3.169  -0.444   5.497  0.00  0.00    -0.458 OA
ENDBRANCH  18  21
ENDBRANCH  16  17
BRANCH   1  26
ATOM     26  C   UNL     1       0.742  -0.511   1.242  0.00  0.00    +0.076 C 
BRANCH  26  28
ATOM     27  C   UNL     1      -0.019   1.526   0.010  0.00  0.00    +0.004 C 
ATOM     28  C   UNL     1       0.002  -0.004   0.002  0.00  0.00    +0.004 C 
ENDBRANCH  26  28
ENDBRANCH   1  26
TORSDOF 4
