REMARK  Name = ZINC64338098
REMARK  20 active torsions:
REMARK  status: ('A' for Active; 'I' for Inactive)
REMARK    1  A    between atoms: C_1  and  C_2
REMARK    2  A    between atoms: C_2  and  O_3
REMARK    3  A    between atoms: O_3  and  C_4
REMARK    4  A    between atoms: C_4  and  C_6
REMARK    5  A    between atoms: C_7  and  C_39
REMARK    6  A    between atoms: C_8  and  C_13
REMARK    7  A    between atoms: C_10  and  C_12
REMARK    8  A    between atoms: N_15  and  C_16
REMARK    9  A    between atoms: N_15  and  C_17
REMARK   10  A    between atoms: C_17  and  C_18
REMARK   11  A    between atoms: N_20  and  C_21
REMARK   12  A    between atoms: N_20  and  C_25
REMARK   13  A    between atoms: C_21  and  C_22
REMARK   14  A    between atoms: C_22  and  C_23
REMARK   15  A    between atoms: C_22  and  C_24
REMARK   16  A    between atoms: C_26  and  N_38
REMARK   17  A    between atoms: N_27  and  C_34
REMARK   18  A    between atoms: C_34  and  C_35
REMARK   19  A    between atoms: C_35  and  C_36
REMARK   20  A    between atoms: C_35  and  C_37
REMARK                            x       y       z     vdW  Elec       q    Type
REMARK                         _______ _______ _______ _____ _____    ______ ____
ROOT
ATOM      1  C   UNL     1      -7.872  -6.868   2.093  0.00  0.00    +0.237 C 
ATOM      2  O   UNL     1      -7.435  -5.959   2.768  0.00  0.00    -0.274 OA
ATOM      3  N   UNL     1      -8.536  -7.885   2.680  0.00  0.00    -0.263 N 
ENDROOT
BRANCH   3   4
ATOM      4  C   UNL     1      -8.815  -7.841   4.063  0.00  0.00    +0.140 A 
ATOM      5  C   UNL     1      -8.320  -8.811   4.910  0.00  0.00    +0.127 A 
ATOM      6  N   UNL     1      -8.608  -8.740   6.253  0.00  0.00    -0.280 N 
ATOM      7  C   UNL     1      -9.365  -7.737   6.735  0.00  0.00    +0.331 A 
ATOM      8  O   UNL     1      -9.609  -7.693   7.926  0.00  0.00    -0.246 OA
ATOM      9  N   UNL     1      -9.855  -6.783   5.925  0.00  0.00    -0.273 N 
ATOM     10  H   UNL     1     -10.398  -6.070   6.297  0.00  0.00    +0.173 HD
ATOM     11  C   UNL     1      -9.598  -6.803   4.602  0.00  0.00    +0.277 A 
ATOM     12  O   UNL     1     -10.044  -5.930   3.877  0.00  0.00    -0.266 OA
BRANCH   5  13
ATOM     13  N   UNL     1      -7.547  -9.835   4.418  0.00  0.00    -0.343 N 
ATOM     14  H   UNL     1      -7.278  -9.835   3.486  0.00  0.00    +0.144 HD
ATOM     15  H   UNL     1      -7.272 -10.559   5.002  0.00  0.00    +0.144 HD
ENDBRANCH   5  13
BRANCH   6  16
ATOM     16  C   UNL     1      -8.090  -9.764   7.164  0.00  0.00    +0.131 C 
BRANCH  16  17
ATOM     17  C   UNL     1      -6.722  -9.328   7.695  0.00  0.00    +0.003 C 
ATOM     18  C   UNL     1      -6.237 -10.335   8.740  0.00  0.00    +0.009 C 
ATOM     19  C   UNL     1      -5.721  -9.270   6.539  0.00  0.00    +0.009 C 
ENDBRANCH  16  17
ENDBRANCH   6  16
ENDBRANCH   3   4
BRANCH   1  20
ATOM     20  C   UNL     1      -7.673  -6.860   0.599  0.00  0.00    +0.204 C 
BRANCH  20  23
ATOM     21  C   UNL     1      -5.686  -5.524   0.151  0.00  0.00    +0.265 C 
ATOM     22  O   UNL     1      -5.009  -6.506   0.375  0.00  0.00    -0.268 OA
ATOM     23  N   UNL     1      -7.030  -5.606   0.198  0.00  0.00    -0.291 N 
ATOM     24  C   UNL     1      -7.849  -4.443  -0.151  0.00  0.00    +0.133 C 
BRANCH  21  27
ATOM     25  C   UNL     1      -3.331  -2.715  -0.481  0.00  0.00    +0.066 C 
ATOM     26  C   UNL     1      -3.582  -3.992  -0.128  0.00  0.00    -0.008 C 
ATOM     27  C   UNL     1      -5.032  -4.228  -0.175  0.00  0.00    +0.124 C 
ATOM     28  N   UNL     1      -5.664  -3.158  -0.539  0.00  0.00    -0.271 NA
ATOM     29  C   UNL     1      -4.680  -2.092  -0.766  0.00  0.00    +0.140 C 
ATOM     30  C   UNL     1      -4.746  -1.615  -2.218  0.00  0.00    +0.038 C 
ATOM     31  C   UNL     1      -2.542  -5.013   0.255  0.00  0.00    +0.047 C 
BRANCH  25  32
ATOM     32  C   UNL     1      -2.018  -2.061  -0.565  0.00  0.00    +0.338 C 
ATOM     33  O   UNL     1      -1.010  -2.688  -0.306  0.00  0.00    -0.245 OA
BRANCH  32  34
ATOM     34  O   UNL     1      -1.932  -0.766  -0.931  0.00  0.00    -0.462 OA
BRANCH  34  36
ATOM     35  C   UNL     1      -0.727   1.270  -1.421  0.00  0.00    +0.048 C 
ATOM     36  C   UNL     1      -0.624  -0.195  -0.992  0.00  0.00    +0.229 C 
ENDBRANCH  34  36
ENDBRANCH  32  34
ENDBRANCH  25  32
ENDBRANCH  21  27
ENDBRANCH  20  23
ENDBRANCH   1  20
BRANCH   3  37
ATOM     37  C   UNL     1      -8.967  -9.036   1.883  0.00  0.00    +0.117 C 
BRANCH  37  38
ATOM     38  C   UNL     1     -10.313  -8.725   1.225  0.00  0.00    +0.001 C 
ATOM     39  C   UNL     1     -10.689  -9.860   0.271  0.00  0.00    +0.009 C 
ATOM     40  C   UNL     1     -11.389  -8.588   2.304  0.00  0.00    +0.009 C 
ENDBRANCH  37  38
ENDBRANCH   3  37
TORSDOF 12
