REMARK  Name = ZINC04684686
REMARK  3 active torsions:
REMARK  status: ('A' for Active; 'I' for Inactive)
REMARK    1  A    between atoms: C_1  and  S_2
REMARK    2  A    between atoms: S_2  and  C_3
REMARK    3  A    between atoms: C_6  and  C_9
REMARK                            x       y       z     vdW  Elec       q    Type
REMARK                         _______ _______ _______ _____ _____    ______ ____
ROOT
ATOM      1  C   UNL     1       4.920  -0.514  -0.053  0.00  0.00    +0.156 C 
ATOM      2  C   UNL     1       5.656  -1.788   0.294  0.00  0.00    +0.039 C 
ATOM      3  C   UNL     1       5.050  -2.994   0.288  0.00  0.00    +0.019 C 
ATOM      4  C   UNL     1       5.815  -4.248   0.640  0.00  0.00    +0.052 C 
ATOM      5  C   UNL     1       7.281  -4.090   0.234  0.00  0.00    +0.014 C 
ATOM      6  C   UNL     1       7.854  -2.870   0.964  0.00  0.00    +0.080 C 
ATOM      7  C   UNL     1       7.018  -1.666   0.629  0.00  0.00    +0.163 C 
ATOM      8  O   UNL     1       7.529  -0.564   0.647  0.00  0.00    -0.292 OA
ATOM      9  N   UNL     1       3.721  -3.136  -0.030  0.00  0.00    -0.288 N 
ATOM     10  C   UNL     1       2.924  -2.005  -0.031  0.00  0.00    +0.202 A 
ATOM     11  N   UNL     1       3.478  -0.744  -0.035  0.00  0.00    -0.300 N 
ATOM     12  C   UNL     1       2.447   0.150  -0.020  0.00  0.00    +0.071 A 
ATOM     13  C   UNL     1       2.401   1.539  -0.013  0.00  0.00    +0.028 A 
ATOM     14  C   UNL     1       1.147   2.129   0.003  0.00  0.00    +0.002 A 
ATOM     15  C   UNL     1      -0.017   1.379   0.010  0.00  0.00    +0.002 A 
ATOM     16  C   UNL     1       0.002  -0.004   0.002  0.00  0.00    +0.030 A 
ATOM     17  C   UNL     1       1.258  -0.622  -0.013  0.00  0.00    +0.091 A 
ATOM     18  N   UNL     1       1.621  -1.920  -0.022  0.00  0.00    -0.214 NA
ATOM     19  H   UNL     1       3.351  -4.006  -0.248  0.00  0.00    +0.155 HD
ENDROOT
BRANCH   1  23
ATOM     20  C   UNL     1       6.097   0.784  -3.952  0.00  0.00    +0.008 A 
ATOM     21  C   UNL     1       6.322   1.599  -2.849  0.00  0.00    +0.015 A 
ATOM     22  C   UNL     1       5.941   1.177  -1.591  0.00  0.00    +0.007 A 
ATOM     23  C   UNL     1       5.335  -0.056  -1.428  0.00  0.00    -0.020 A 
ATOM     24  C   UNL     1       5.115  -0.872  -2.522  0.00  0.00    +0.007 A 
ATOM     25  C   UNL     1       5.489  -0.454  -3.784  0.00  0.00    +0.015 A 
BRANCH  20  27
ATOM     26  C   UNL     1       6.094  -0.050  -6.643  0.00  0.00    +0.090 C 
ATOM     27  S   UNL     1       6.583   1.319  -5.559  0.00  0.00    -0.129 S 
ENDBRANCH  20  27
ENDBRANCH   1  23
TORSDOF 2
