REMARK  Name = ZINC06252320
REMARK  4 active torsions:
REMARK  status: ('A' for Active; 'I' for Inactive)
REMARK    1  A    between atoms: C_4  and  N_7
REMARK    2  A    between atoms: C_12  and  C_24
REMARK    3  A    between atoms: N_14  and  C_20
REMARK    4  A    between atoms: C_20  and  C_21
REMARK                            x       y       z     vdW  Elec       q    Type
REMARK                         _______ _______ _______ _____ _____    ______ ____
ROOT
ATOM      1  N   UNL     1      -7.593   1.908   2.172  0.00  0.00    -0.208 N 
ATOM      2  C   UNL     1      -7.236   1.091   1.137  0.00  0.00    +0.234 C 
ATOM      3  O   UNL     1      -7.977   0.553   0.343  0.00  0.00    -0.274 OA
ATOM      4  C   UNL     1      -5.743   0.996   1.184  0.00  0.00    +0.139 C 
ATOM      5  C   UNL     1      -4.915   1.065  -0.091  0.00  0.00    +0.130 C 
ATOM      6  N   UNL     1      -3.799   1.998   0.266  0.00  0.00    -0.170 NA
ATOM      7  O   UNL     1      -4.101   2.550   1.624  0.00  0.00    -0.282 OA
ATOM      8  C   UNL     1      -5.466   2.457   1.708  0.00  0.00    +0.242 C 
ATOM      9  C   UNL     1      -6.534   2.616   2.679  0.00  0.00    +0.258 C 
ATOM     10  O   UNL     1      -6.497   3.241   3.716  0.00  0.00    -0.272 OA
ENDROOT
BRANCH   5  11
ATOM     11  C   UNL     1      -5.732   1.626  -1.225  0.00  0.00    -0.027 A 
ATOM     12  C   UNL     1      -5.844   3.008  -1.373  0.00  0.00    +0.006 A 
ATOM     13  C   UNL     1      -6.574   3.547  -2.387  0.00  0.00    +0.009 A 
ATOM     14  C   UNL     1      -7.227   2.701  -3.300  0.00  0.00    -0.018 A 
ATOM     15  C   UNL     1      -7.989   3.221  -4.361  0.00  0.00    +0.008 A 
ATOM     16  C   UNL     1      -8.608   2.371  -5.225  0.00  0.00    +0.001 A 
ATOM     17  C   UNL     1      -8.496   0.990  -5.077  0.00  0.00    +0.001 A 
ATOM     18  C   UNL     1      -7.766   0.451  -4.063  0.00  0.00    +0.008 A 
ATOM     19  C   UNL     1      -7.114   1.296  -3.150  0.00  0.00    -0.018 A 
ATOM     20  C   UNL     1      -6.346   0.777  -2.093  0.00  0.00    +0.013 A 
ENDBRANCH   5  11
BRANCH   1  24
ATOM     21  C   UNL     1     -11.485   2.216   3.632  0.00  0.00    +0.000 A 
ATOM     22  C   UNL     1     -10.473   2.967   4.200  0.00  0.00    +0.002 A 
ATOM     23  C   UNL     1      -9.183   2.868   3.719  0.00  0.00    +0.024 A 
ATOM     24  C   UNL     1      -8.902   2.012   2.663  0.00  0.00    +0.044 A 
ATOM     25  C   UNL     1      -9.921   1.263   2.089  0.00  0.00    +0.024 A 
ATOM     26  C   UNL     1     -11.208   1.363   2.579  0.00  0.00    +0.002 A 
ENDBRANCH   1  24
BRANCH   6  27
ATOM     27  C   UNL     1      -2.507   1.300   0.258  0.00  0.00    +0.210 C 
BRANCH  27  28
ATOM     28  C   UNL     1      -1.399   2.293   0.500  0.00  0.00    +0.227 C 
ATOM     29  O   UNL     1      -1.660   3.466   0.663  0.00  0.00    -0.275 OA
ATOM     30  N   UNL     1      -0.117   1.877   0.534  0.00  0.00    -0.328 N 
ATOM     31  H   UNL     1       0.092   0.939   0.403  0.00  0.00    +0.145 HD
ATOM     32  H   UNL     1       0.596   2.516   0.686  0.00  0.00    +0.145 HD
ENDBRANCH  27  28
ENDBRANCH   6  27
TORSDOF 4
