REMARK  Name = ZINC23158119
REMARK  5 active torsions:
REMARK  status: ('A' for Active; 'I' for Inactive)
REMARK    1  A    between atoms: C_1  and  C_2
REMARK    2  A    between atoms: C_8  and  C_10
REMARK    3  A    between atoms: C_10  and  C_12
REMARK    4  A    between atoms: C_10  and  N_17
REMARK    5  A    between atoms: N_20  and  C_23
REMARK                            x       y       z     vdW  Elec       q    Type
REMARK                         _______ _______ _______ _____ _____    ______ ____
ROOT
ATOM      1  C   UNL     1       0.073  -5.936   0.772  0.00  0.00    +0.042 C 
ENDROOT
BRANCH   1   9
ATOM      2  C   UNL     1      -0.052   1.490   0.080  0.00  0.00    +0.090 C 
ATOM      3  C   UNL     1      -0.026  -0.017   0.058  0.00  0.00    +0.150 A 
ATOM      4  N   UNL     1      -0.011  -0.771  -1.039  0.00  0.00    -0.205 NA
ATOM      5  C   UNL     1       0.010  -2.030  -0.697  0.00  0.00    +0.199 A 
ATOM      6  N   UNL     1       0.009  -2.135   0.661  0.00  0.00    -0.170 N 
ATOM      7  N   UNL     1      -0.009  -0.789   1.111  0.00  0.00    -0.147 NA
ATOM      8  C   UNL     1       0.029  -3.401   1.195  0.00  0.00    +0.282 A 
ATOM      9  C   UNL     1       0.049  -4.476   0.399  0.00  0.00    +0.053 A 
ATOM     10  S   UNL     1       0.039  -3.727  -1.223  0.00  0.00    -0.050 S 
ATOM     11  O   UNL     1       0.029  -3.562   2.546  0.00  0.00    -0.265 OA
ENDBRANCH   1   9
BRANCH   1  12
ATOM     12  N   UNL     1       1.220  -6.588   0.126  0.00  0.00    +0.392 N 
ATOM     13  C   UNL     1       1.237  -8.012   0.482  0.00  0.00    -0.058 C 
ATOM     14  C   UNL     1       2.363  -8.716  -0.282  0.00  0.00    +0.086 C 
ATOM     15  N   UNL     1       3.624  -8.007  -0.011  0.00  0.00    -0.333 N 
ATOM     16  C   UNL     1       3.650  -6.547  -0.185  0.00  0.00    +0.086 C 
ATOM     17  C   UNL     1       2.462  -5.946   0.574  0.00  0.00    -0.058 C 
ATOM     18  H   UNL     1       1.137  -6.495  -0.876  0.00  0.00    -0.080 HD
BRANCH  15  19
ATOM     19  C   UNL     1       4.764  -8.702   0.401  0.00  0.00    +0.030 A 
ATOM     20  C   UNL     1       4.691 -10.063   0.668  0.00  0.00    +0.023 A 
ATOM     21  C   UNL     1       5.820 -10.747   1.074  0.00  0.00    +0.002 A 
ATOM     22  C   UNL     1       7.022 -10.078   1.215  0.00  0.00    +0.000 A 
ATOM     23  C   UNL     1       7.098  -8.722   0.950  0.00  0.00    +0.002 A 
ATOM     24  C   UNL     1       5.974  -8.034   0.538  0.00  0.00    +0.023 A 
ENDBRANCH  15  19
ENDBRANCH   1  12
BRANCH   1  25
ATOM     25  C   UNL     1      -1.202  -6.594   0.314  0.00  0.00    +0.096 A 
ATOM     26  C   UNL     1      -2.270  -6.864   1.086  0.00  0.00    +0.043 A 
ATOM     27  C   UNL     1      -3.233  -7.478   0.253  0.00  0.00    +0.041 A 
ATOM     28  C   UNL     1      -2.697  -7.547  -0.978  0.00  0.00    +0.195 A 
ATOM     29  O   UNL     1      -1.469  -7.004  -0.937  0.00  0.00    -0.469 OA
ENDBRANCH   1  25
TORSDOF 4
