REMARK  Name = ZINC61578726
REMARK  4 active torsions:
REMARK  status: ('A' for Active; 'I' for Inactive)
REMARK    1  A    between atoms: C_1  and  C_2
REMARK    2  A    between atoms: N_6  and  C_7
REMARK    3  A    between atoms: C_11  and  N_13
REMARK    4  A    between atoms: N_13  and  C_14
REMARK                            x       y       z     vdW  Elec       q    Type
REMARK                         _______ _______ _______ _____ _____    ______ ____
ROOT
ATOM      1  C   UNL     1       0.031  -0.425   2.434  0.00  0.00    +0.071 A 
ATOM      2  C   UNL     1       0.705   0.725   2.824  0.00  0.00    +0.028 A 
ATOM      3  C   UNL     1       0.713   1.105   4.152  0.00  0.00    +0.004 A 
ATOM      4  C   UNL     1       0.052   0.344   5.096  0.00  0.00    +0.023 A 
ATOM      5  C   UNL     1      -0.624  -0.808   4.712  0.00  0.00    +0.029 A 
ATOM      6  C   UNL     1      -0.638  -1.190   3.378  0.00  0.00    +0.050 A 
ENDROOT
BRANCH   1  12
ATOM      7  C   UNL     1      -0.018   1.503   0.010  0.00  0.00    +0.090 C 
ATOM      8  C   UNL     1       0.002  -0.004   0.002  0.00  0.00    +0.154 A 
ATOM      9  N   UNL     1       0.008  -0.773  -1.055  0.00  0.00    -0.113 NA
ATOM     10  N   UNL     1       0.026  -2.011  -0.714  0.00  0.00    -0.023 NA
ATOM     11  N   UNL     1       0.033  -2.119   0.571  0.00  0.00    -0.039 NA
ATOM     12  N   UNL     1       0.023  -0.811   1.085  0.00  0.00    -0.197 N 
ENDBRANCH   1  12
BRANCH   5  13
ATOM     13  N   UNL     1      -1.291  -1.578   5.667  0.00  0.00    -0.340 N 
ATOM     14  H   UNL     1      -1.763  -2.382   5.398  0.00  0.00    +0.146 HD
BRANCH  13  15
ATOM     15  C   UNL     1      -1.280  -1.172   7.075  0.00  0.00    +0.080 C 
ATOM     16  C   UNL     1      -1.492  -2.398   7.958  0.00  0.00    +0.024 C 
ATOM     17  C   UNL     1      -1.207  -2.068   9.420  0.00  0.00    +0.012 C 
ATOM     18  C   UNL     1      -2.314  -1.169   9.977  0.00  0.00    +0.069 C 
ATOM     19  S   UNL     1      -2.316   0.395   9.051  0.00  0.00    -0.159 S 
ATOM     20  C   UNL     1      -2.398  -0.155   7.320  0.00  0.00    +0.091 C 
ENDBRANCH  13  15
ENDBRANCH   5  13
TORSDOF 3
