REMARK  Name = ZINC58421108
REMARK  10 active torsions:
REMARK  status: ('A' for Active; 'I' for Inactive)
REMARK    1  A    between atoms: C_1  and  C_2
REMARK    2  A    between atoms: C_2  and  C_4
REMARK    3  A    between atoms: C_2  and  N_11
REMARK    4  A    between atoms: N_6  and  C_7
REMARK    5  A    between atoms: C_7  and  C_8
REMARK    6  A    between atoms: C_7  and  C_9
REMARK    7  A    between atoms: C_7  and  C_10
REMARK    8  A    between atoms: C_12  and  C_14
REMARK    9  A    between atoms: C_18  and  C_23
REMARK   10  A    between atoms: C_23  and  C_24
REMARK                            x       y       z     vdW  Elec       q    Type
REMARK                         _______ _______ _______ _____ _____    ______ ____
ROOT
ATOM      1  C   UNL     1       2.736  -1.073  -2.455  0.00  0.00    +0.169 C 
ATOM      2  C   UNL     1       2.821   0.077  -3.458  0.00  0.00    +0.101 C 
ATOM      3  S   UNL     1       3.876  -0.457  -4.844  0.00  0.00    -0.145 S 
ATOM      4  C   UNL     1       5.456  -0.795  -4.009  0.00  0.00    +0.136 C 
ATOM      5  C   UNL     1       5.183  -1.539  -2.733  0.00  0.00    +0.227 C 
ATOM      6  O   UNL     1       6.106  -2.162  -2.254  0.00  0.00    -0.275 OA
ATOM      7  N   UNL     1       4.038  -1.579  -2.084  0.00  0.00    -0.302 N 
ATOM      8  H   UNL     1       4.075  -2.018  -1.220  0.00  0.00    +0.150 HD
ENDROOT
BRANCH   1  10
ATOM      9  N   UNL     1       0.688  -0.476  -1.203  0.00  0.00    -0.303 N 
ATOM     10  C   UNL     1       2.031  -0.587  -1.215  0.00  0.00    +0.235 C 
ATOM     11  O   UNL     1       2.672  -0.295  -0.228  0.00  0.00    -0.274 OA
ATOM     12  H   UNL     1       0.175  -0.710  -1.993  0.00  0.00    +0.149 HD
BRANCH   9  14
ATOM     13  C   UNL     1      -0.019   1.526   0.010  0.00  0.00    +0.038 C 
ATOM     14  C   UNL     1       0.002  -0.004   0.002  0.00  0.00    +0.156 C 
BRANCH  14  15
ATOM     15  C   UNL     1      -1.412  -0.526   0.013  0.00  0.00    +0.233 C 
ATOM     16  O   UNL     1      -1.808  -1.223  -0.897  0.00  0.00    -0.274 OA
ATOM     17  N   UNL     1      -2.236  -0.217   1.033  0.00  0.00    -0.309 N 
ATOM     18  H   UNL     1      -1.920   0.341   1.761  0.00  0.00    +0.149 HD
BRANCH  17  19
ATOM     19  C   UNL     1      -3.611  -0.724   1.044  0.00  0.00    +0.026 C 
ATOM     20  C   UNL     1      -3.590  -2.254   1.035  0.00  0.00    +0.031 C 
ATOM     21  C   UNL     1      -4.327  -0.231   2.302  0.00  0.00    +0.031 C 
ATOM     22  C   UNL     1      -4.351  -0.217  -0.196  0.00  0.00    +0.031 C 
ENDBRANCH  17  19
ENDBRANCH  14  15
ENDBRANCH   9  14
ENDBRANCH   1  10
BRANCH   4  23
ATOM     23  C   UNL     1       6.346  -1.644  -4.920  0.00  0.00    +0.061 C 
BRANCH  23  24
ATOM     24  C   UNL     1       6.707  -0.851  -6.149  0.00  0.00    -0.011 A 
ATOM     25  C   UNL     1       5.957  -0.983  -7.302  0.00  0.00    +0.006 A 
ATOM     26  C   UNL     1       6.288  -0.256  -8.430  0.00  0.00    +0.000 A 
ATOM     27  C   UNL     1       7.370   0.604  -8.407  0.00  0.00    +0.003 A 
ATOM     28  C   UNL     1       8.122   0.738  -7.255  0.00  0.00    +0.038 A 
ATOM     29  C   UNL     1       7.788   0.014  -6.123  0.00  0.00    +0.127 A 
ATOM     30  F   UNL     1       8.519   0.148  -4.995  0.00  0.00    -0.205 F 
ENDBRANCH  23  24
ENDBRANCH   4  23
TORSDOF 6
