REMARK  Name = ZINC37360773
REMARK  5 active torsions:
REMARK  status: ('A' for Active; 'I' for Inactive)
REMARK    1  A    between atoms: C_4  and  C_7
REMARK    2  A    between atoms: C_7  and  N_8
REMARK    3  A    between atoms: C_11  and  C_25
REMARK    4  A    between atoms: C_13  and  N_24
REMARK    5  A    between atoms: N_14  and  C_18
REMARK                            x       y       z     vdW  Elec       q    Type
REMARK                         _______ _______ _______ _____ _____    ______ ____
ROOT
ATOM      1  N   UNL     1       4.311  -0.629   1.319  0.00  0.00    -0.309 N 
ATOM      2  C   UNL     1       5.333  -1.524   1.576  0.00  0.00    +0.218 A 
ATOM      3  N   UNL     1       5.649  -1.770   2.844  0.00  0.00    -0.214 NA
ATOM      4  C   UNL     1       6.617  -2.614   3.180  0.00  0.00    +0.091 A 
ATOM      5  C   UNL     1       7.325  -3.266   2.145  0.00  0.00    +0.086 A 
ATOM      6  C   UNL     1       8.364  -4.185   2.076  0.00  0.00    +0.131 A 
ATOM      7  N   UNL     1       8.604  -4.430   0.773  0.00  0.00    -0.216 N 
ATOM      8  N   UNL     1       7.729  -3.679  -0.021  0.00  0.00    -0.144 NA
ATOM      9  C   UNL     1       6.942  -2.965   0.753  0.00  0.00    +0.189 A 
ATOM     10  N   UNL     1       5.938  -2.090   0.552  0.00  0.00    -0.193 NA
ATOM     11  H   UNL     1       3.848  -0.197   2.054  0.00  0.00    +0.149 HD
ENDROOT
BRANCH   4  12
ATOM     12  C   UNL     1       6.945  -2.866   4.600  0.00  0.00    +0.039 A 
ATOM     13  C   UNL     1       8.239  -2.637   5.072  0.00  0.00    +0.013 A 
ATOM     14  C   UNL     1       8.540  -2.874   6.396  0.00  0.00    +0.004 A 
ATOM     15  C   UNL     1       7.564  -3.339   7.261  0.00  0.00    +0.041 A 
ATOM     16  C   UNL     1       6.278  -3.569   6.803  0.00  0.00    +0.159 A 
ATOM     17  C   UNL     1       5.960  -3.329   5.476  0.00  0.00    +0.168 A 
ATOM     18  F   UNL     1       4.704  -3.548   5.030  0.00  0.00    -0.202 F 
ATOM     19  F   UNL     1       5.330  -4.022   7.652  0.00  0.00    -0.202 F 
ENDBRANCH   4  12
BRANCH   7  20
ATOM     20  C   UNL     1       9.582  -5.306   0.286  0.00  0.00    +0.067 A 
ATOM     21  C   UNL     1      10.790  -5.441   0.956  0.00  0.00    +0.028 A 
ATOM     22  C   UNL     1      11.753  -6.306   0.473  0.00  0.00    +0.002 A 
ATOM     23  C   UNL     1      11.514  -7.035  -0.678  0.00  0.00    +0.000 A 
ATOM     24  C   UNL     1      10.312  -6.902  -1.347  0.00  0.00    +0.002 A 
ATOM     25  C   UNL     1       9.342  -6.044  -0.866  0.00  0.00    +0.028 A 
ENDBRANCH   7  20
BRANCH   6  26
ATOM     26  N   UNL     1       9.032  -4.746   3.149  0.00  0.00    -0.342 N 
ATOM     27  H   UNL     1       8.790  -4.496   4.055  0.00  0.00    +0.144 HD
ATOM     28  H   UNL     1       9.742  -5.389   2.997  0.00  0.00    +0.144 HD
ENDBRANCH   6  26
BRANCH   1  29
ATOM     29  C   UNL     1       3.926  -0.333  -0.064  0.00  0.00    +0.139 C 
BRANCH  29  33
ATOM     30  C   UNL     1       0.725   2.494  -0.080  0.00  0.00    +0.000 A 
ATOM     31  C   UNL     1       2.035   2.934  -0.105  0.00  0.00    +0.000 A 
ATOM     32  C   UNL     1       3.071   2.019  -0.100  0.00  0.00    +0.005 A 
ATOM     33  C   UNL     1       2.797   0.664  -0.069  0.00  0.00    -0.030 A 
ATOM     34  C   UNL     1       1.486   0.225  -0.043  0.00  0.00    +0.005 A 
ATOM     35  C   UNL     1       0.450   1.140  -0.050  0.00  0.00    +0.000 A 
ENDBRANCH  29  33
ENDBRANCH   1  29
TORSDOF 5
