REMARK  Name = ZINC08769196
REMARK  4 active torsions:
REMARK  status: ('A' for Active; 'I' for Inactive)
REMARK    1  A    between atoms: C_4  and  C_7
REMARK    2  A    between atoms: C_10  and  C_12
REMARK    3  A    between atoms: N_14  and  N_15
REMARK    4  A    between atoms: C_16  and  C_17
REMARK                            x       y       z     vdW  Elec       q    Type
REMARK                         _______ _______ _______ _____ _____    ______ ____
ROOT
ATOM      1  C   UNL     1      -1.299   2.013   0.019  0.00  0.00    +0.059 A 
ATOM      2  C   UNL     1      -1.327   3.396   0.027  0.00  0.00    +0.025 A 
ATOM      3  C   UNL     1      -2.577   4.059   0.036  0.00  0.00    +0.003 A 
ATOM      4  C   UNL     1      -2.631   5.463   0.045  0.00  0.00    +0.059 A 
ATOM      5  C   UNL     1      -3.850   6.104   0.053  0.00  0.00    +0.163 A 
ATOM      6  C   UNL     1      -5.035   5.361   0.052  0.00  0.00    +0.164 A 
ATOM      7  C   UNL     1      -4.993   3.978   0.045  0.00  0.00    +0.075 A 
ATOM      8  C   UNL     1      -3.772   3.314   0.037  0.00  0.00    +0.053 A 
ATOM      9  N   UNL     1      -3.737   1.933   0.029  0.00  0.00    -0.321 N 
ATOM     10  H   UNL     1      -4.675   1.359   0.034  0.00  0.00    +0.169 HD
ATOM     11  C   UNL     1      -2.565   1.271   0.015  0.00  0.00    +0.258 A 
ATOM     12  O   UNL     1      -2.555   0.053   0.003  0.00  0.00    -0.267 OA
ATOM     13  O   UNL     1      -6.244   5.986   0.057  0.00  0.00    -0.485 OA
ATOM     14  C   UNL     1      -6.255   7.364   0.443  0.00  0.00    +0.270 C 
ATOM     15  C   UNL     1      -5.122   8.082  -0.303  0.00  0.00    +0.270 C 
ATOM     16  O   UNL     1      -3.883   7.465   0.065  0.00  0.00    -0.485 OA
ENDROOT
BRANCH   1  18
ATOM     17  N   UNL     1       0.002  -0.004   0.002  0.00  0.00    -0.188 NA
ATOM     18  C   UNL     1      -0.015   1.295   0.009  0.00  0.00    +0.143 C 
BRANCH  17  21
ATOM     19  C   UNL     1       1.243  -2.036  -0.021  0.00  0.00    +0.236 C 
ATOM     20  O   UNL     1       0.201  -2.656  -0.014  0.00  0.00    -0.274 OA
ATOM     21  N   UNL     1       1.225  -0.688  -0.013  0.00  0.00    -0.207 N 
ATOM     22  H   UNL     1       2.170  -0.125  -0.019  0.00  0.00    +0.177 HD
BRANCH  19  25
ATOM     23  C   UNL     1       2.512  -4.301  -0.045  0.00  0.00    +0.032 C 
ATOM     24  C   UNL     1       2.945  -3.555   1.219  0.00  0.00    +0.022 C 
ATOM     25  C   UNL     1       2.558  -2.771  -0.037  0.00  0.00    +0.085 C 
BRANCH  23  29
ATOM     26  C   UNL     1       5.534  -6.353  -2.259  0.00  0.00    +0.000 A 
ATOM     27  C   UNL     1       4.202  -6.524  -2.586  0.00  0.00    +0.000 A 
ATOM     28  C   UNL     1       3.224  -5.859  -1.869  0.00  0.00    +0.004 A 
ATOM     29  C   UNL     1       3.578  -5.025  -0.826  0.00  0.00    -0.044 A 
ATOM     30  C   UNL     1       4.911  -4.850  -0.502  0.00  0.00    +0.004 A 
ATOM     31  C   UNL     1       5.888  -5.518  -1.216  0.00  0.00    +0.000 A 
ENDBRANCH  23  29
ENDBRANCH  19  25
ENDBRANCH  17  21
ENDBRANCH   1  18
TORSDOF 4
