REMARK  Name = ZINC36028941
REMARK  7 active torsions:
REMARK  status: ('A' for Active; 'I' for Inactive)
REMARK    1  A    between atoms: C_1  and  C_2
REMARK    2  A    between atoms: C_2  and  C_3
REMARK    3  A    between atoms: C_3  and  C_5
REMARK    4  A    between atoms: C_3  and  C_6
REMARK    5  A    between atoms: N_10  and  C_28
REMARK    6  A    between atoms: N_20  and  C_21
REMARK    7  A    between atoms: C_28  and  C_29
REMARK                            x       y       z     vdW  Elec       q    Type
REMARK                         _______ _______ _______ _____ _____    ______ ____
ROOT
ATOM      1  C   UNL     1       1.210  -2.738   0.217  0.00  0.00    +0.022 C 
ATOM      2  C   UNL     1      -0.015  -3.024  -0.624  0.00  0.00    +0.201 C 
ATOM      3  O   UNL     1      -1.165  -2.838  -0.287  0.00  0.00    -0.277 OA
ATOM      4  N   UNL     1       0.388  -3.521  -1.812  0.00  0.00    -0.309 N 
ATOM      5  C   UNL     1       1.851  -3.601  -1.838  0.00  0.00    +0.006 C 
ATOM      6  N   UNL     1       2.339  -2.731  -0.745  0.00  0.00    +0.401 N 
ATOM      7  C   UNL     1       2.384  -3.097  -3.178  0.00  0.00    +0.025 C 
ATOM      8  C   UNL     1       1.844  -3.982  -4.306  0.00  0.00    +0.109 C 
ATOM      9  N   UNL     1       2.170  -5.383  -4.004  0.00  0.00    -0.285 N 
ATOM     10  C   UNL     1       1.764  -5.940  -2.707  0.00  0.00    +0.109 C 
ATOM     11  C   UNL     1       2.305  -5.039  -1.593  0.00  0.00    +0.025 C 
ATOM     12  C   UNL     1       2.829  -6.143  -4.902  0.00  0.00    +0.306 C 
ATOM     13  O   UNL     1       3.310  -5.631  -5.894  0.00  0.00    -0.252 OA
ATOM     14  N   UNL     1       2.954  -7.469  -4.699  0.00  0.00    -0.269 N 
ATOM     15  H   UNL     1       2.512  -1.797  -1.084  0.00  0.00    -0.082 HD
ATOM     16  H   UNL     1       2.455  -7.901  -3.988  0.00  0.00    +0.156 HD
ATOM     17  H   UNL     1       3.169  -3.119  -0.323  0.00  0.00    -0.082 HD
ENDROOT
BRANCH  14  18
ATOM     18  C   UNL     1       3.806  -8.224  -5.513  0.00  0.00    +0.037 A 
ATOM     19  C   UNL     1       3.905  -7.939  -6.869  0.00  0.00    +0.023 A 
ATOM     20  C   UNL     1       4.745  -8.686  -7.671  0.00  0.00    +0.005 A 
ATOM     21  C   UNL     1       5.489  -9.716  -7.127  0.00  0.00    +0.038 A 
ATOM     22  C   UNL     1       5.393 -10.004  -5.776  0.00  0.00    +0.125 A 
ATOM     23  C   UNL     1       4.557  -9.255  -4.966  0.00  0.00    +0.061 A 
ATOM     24  F   UNL     1       6.121 -11.012  -5.247  0.00  0.00    -0.205 F 
ENDBRANCH  14  18
BRANCH   1  25
ATOM     25  C   UNL     1       1.082  -1.374   0.898  0.00  0.00    -0.020 C 
ATOM     26  C   UNL     1       0.745  -0.311  -0.150  0.00  0.00    +0.006 C 
BRANCH  25  28
ATOM     27  C   UNL     1      -0.077  -0.106   2.712  0.00  0.00    +0.004 C 
ATOM     28  C   UNL     1      -0.032  -1.429   1.945  0.00  0.00    -0.001 C 
ENDBRANCH  25  28
ENDBRANCH   1  25
BRANCH   4  29
ATOM     29  C   UNL     1      -0.500  -3.918  -2.908  0.00  0.00    +0.141 C 
BRANCH  29  30
ATOM     30  C   UNL     1      -0.988  -2.689  -3.630  0.00  0.00    -0.026 A 
ATOM     31  C   UNL     1      -1.823  -1.795  -2.985  0.00  0.00    +0.009 A 
ATOM     32  C   UNL     1      -2.272  -0.665  -3.643  0.00  0.00    +0.050 A 
ATOM     33  C   UNL     1      -1.887  -0.427  -4.953  0.00  0.00    +0.166 A 
ATOM     34  C   UNL     1      -1.047  -1.327  -5.603  0.00  0.00    +0.167 A 
ATOM     35  C   UNL     1      -0.595  -2.454  -4.935  0.00  0.00    +0.054 A 
ATOM     36  O   UNL     1      -0.817  -0.873  -6.869  0.00  0.00    -0.453 OA
ATOM     37  C   UNL     1      -1.849   0.098  -7.123  0.00  0.00    +0.466 C 
ATOM     38  O   UNL     1      -2.184   0.591  -5.812  0.00  0.00    -0.453 OA
ENDBRANCH  29  30
ENDBRANCH   4  29
TORSDOF 5
