REMARK  Name = ZINC37318390
REMARK  5 active torsions:
REMARK  status: ('A' for Active; 'I' for Inactive)
REMARK    1  A    between atoms: C_1  and  C_2
REMARK    2  A    between atoms: C_3  and  C_10
REMARK    3  A    between atoms: C_10  and  N_11
REMARK    4  A    between atoms: N_11  and  C_12
REMARK    5  A    between atoms: C_17  and  N_18
REMARK                            x       y       z     vdW  Elec       q    Type
REMARK                         _______ _______ _______ _____ _____    ______ ____
ROOT
ATOM      1  N   UNL     1      -1.479   0.323  -2.849  0.00  0.00    -0.336 N 
ATOM      2  H   UNL     1      -2.223   0.133  -2.256  0.00  0.00    +0.147 HD
ENDROOT
BRANCH   1   3
ATOM      3  C   UNL     1      -1.704   0.503  -4.216  0.00  0.00    +0.058 A 
ATOM      4  C   UNL     1      -0.661   0.895  -5.046  0.00  0.00    +0.026 A 
ATOM      5  C   UNL     1      -0.886   1.072  -6.397  0.00  0.00    +0.017 A 
ATOM      6  C   UNL     1      -2.148   0.859  -6.924  0.00  0.00    +0.020 A 
ATOM      7  C   UNL     1      -3.188   0.469  -6.099  0.00  0.00    +0.050 A 
ATOM      8  C   UNL     1      -2.968   0.284  -4.748  0.00  0.00    +0.148 A 
ATOM      9 BR   UNL     1      -2.452   1.103  -8.774  0.00  0.00    -0.050 Br
BRANCH   8  10
ATOM     10  N   UNL     1      -4.079  -0.140  -3.868  0.00  0.00    +0.058 N 
ATOM     11  O   UNL     1      -3.871  -0.913  -2.962  0.00  0.00    -0.126 OA
ATOM     12  O   UNL     1      -5.195   0.287  -4.054  0.00  0.00    -0.126 OA
ENDBRANCH   8  10
ENDBRANCH   1   3
BRANCH   1  13
ATOM     13  C   UNL     1      -0.120   0.423  -2.310  0.00  0.00    +0.157 C 
BRANCH  13  16
ATOM     14  C   UNL     1      -0.489   2.607  -0.122  0.00  0.00    +0.067 C 
ATOM     15  C   UNL     1      -0.311   1.131   0.124  0.00  0.00    +0.062 A 
ATOM     16  C   UNL     1      -0.152   0.191  -0.821  0.00  0.00    +0.063 A 
ATOM     17  N   UNL     1      -0.022  -1.038  -0.179  0.00  0.00    -0.296 N 
ATOM     18  C   UNL     1       0.162  -2.361  -0.517  0.00  0.00    +0.100 A 
ATOM     19  C   UNL     1       0.242  -3.301   0.423  0.00  0.00    +0.067 A 
ATOM     20  S   UNL     1       0.058  -2.342   1.919  0.00  0.00    -0.058 S 
ATOM     21  C   UNL     1      -0.114  -0.746   1.156  0.00  0.00    +0.178 A 
ATOM     22  N   UNL     1      -0.280   0.534   1.325  0.00  0.00    -0.226 NA
ENDBRANCH  13  16
ENDBRANCH   1  13
TORSDOF 4
