REMARK  Name = ZINC39634701
REMARK  12 active torsions:
REMARK  status: ('A' for Active; 'I' for Inactive)
REMARK    1  A    between atoms: C_1  and  C_2
REMARK    2  A    between atoms: C_2  and  C_3
REMARK    3  A    between atoms: C_2  and  N_4
REMARK    4  A    between atoms: N_4  and  C_5
REMARK    5  A    between atoms: N_4  and  C_33
REMARK    6  A    between atoms: C_5  and  C_6
REMARK    7  A    between atoms: C_6  and  N_7
REMARK    8  A    between atoms: C_8  and  C_10
REMARK    9  A    between atoms: C_21  and  C_23
REMARK   10  A    between atoms: C_26  and  C_29
REMARK   11  A    between atoms: C_33  and  C_34
REMARK   12  A    between atoms: C_33  and  C_35
REMARK                            x       y       z     vdW  Elec       q    Type
REMARK                         _______ _______ _______ _____ _____    ______ ____
ROOT
ATOM      1  C   UNL     1      -1.317   4.142   4.637  0.00  0.00    +0.100 C 
ATOM      2  C   UNL     1      -2.753   3.849   5.126  0.00  0.00    +0.121 C 
ATOM      3  N   UNL     1      -3.251   5.152   5.626  0.00  0.00    -0.296 N 
ATOM      4  C   UNL     1      -2.727   6.144   4.657  0.00  0.00    +0.115 C 
ATOM      5  C   UNL     1      -1.304   5.649   4.330  0.00  0.00    -0.004 C 
ATOM      6  C   UNL     1      -0.282   6.359   5.212  0.00  0.00    -0.010 C 
ATOM      7  C   UNL     1      -0.248   7.847   4.849  0.00  0.00    -0.082 C 
ATOM      8  N   UNL     1       0.109   7.998   3.433  0.00  0.00    +0.379 N 
ATOM      9  C   UNL     1      -0.927   7.392   2.588  0.00  0.00    -0.082 C 
ATOM     10  C   UNL     1      -0.990   5.885   2.856  0.00  0.00    -0.010 C 
ATOM     11  C   UNL     1      -4.010   5.383   6.716  0.00  0.00    +0.247 C 
ATOM     12  O   UNL     1      -4.276   4.472   7.476  0.00  0.00    -0.270 OA
ATOM     13  H   UNL     1       0.191   8.979   3.211  0.00  0.00    -0.086 HD
ATOM     14  H   UNL     1       0.992   7.542   3.259  0.00  0.00    -0.086 HD
ENDROOT
BRANCH  11  15
ATOM     15  C   UNL     1      -4.519   6.744   6.987  0.00  0.00    +0.037 A 
ATOM     16  C   UNL     1      -4.610   7.677   5.953  0.00  0.00    +0.013 A 
ATOM     17  C   UNL     1      -5.086   8.945   6.213  0.00  0.00    +0.013 A 
ATOM     18  C   UNL     1      -5.474   9.293   7.495  0.00  0.00    +0.055 A 
ATOM     19  C   UNL     1      -5.386   8.373   8.524  0.00  0.00    +0.013 A 
ATOM     20  C   UNL     1      -4.917   7.099   8.277  0.00  0.00    +0.013 A 
BRANCH  18  21
ATOM     21  C   UNL     1      -5.993  10.681   7.771  0.00  0.00    +0.417 C 
ATOM     22  F   UNL     1      -7.381  10.703   7.596  0.00  0.00    -0.166 F 
ATOM     23  F   UNL     1      -5.683  11.041   9.087  0.00  0.00    -0.166 F 
ATOM     24  F   UNL     1      -5.397  11.586   6.887  0.00  0.00    -0.166 F 
ENDBRANCH  18  21
ENDBRANCH  11  15
BRANCH   1  26
ATOM     25  N   UNL     1       0.249   2.964   3.128  0.00  0.00    -0.317 N 
ATOM     26  C   UNL     1      -1.015   3.350   3.391  0.00  0.00    +0.218 C 
ATOM     27  O   UNL     1      -1.909   3.060   2.625  0.00  0.00    -0.275 OA
ATOM     28  H   UNL     1       0.965   3.196   3.740  0.00  0.00    +0.149 HD
BRANCH  25  29
ATOM     29  C   UNL     1       0.543   2.194   1.917  0.00  0.00    +0.085 C 
BRANCH  29  30
ATOM     30  C   UNL     1       2.041   1.886   1.858  0.00  0.00    -0.059 C 
BRANCH  30  31
ATOM     31  N   UNL     1       2.363   1.264   0.567  0.00  0.00    +0.384 N 
ATOM     32  H   UNL     1       2.029   1.851  -0.182  0.00  0.00    -0.081 HD
BRANCH  31  34
ATOM     33  C   UNL     1       1.574  -0.642   1.888  0.00  0.00    -0.014 C 
ATOM     34  C   UNL     1       1.716  -0.052   0.483  0.00  0.00    -0.074 C 
ATOM     35  C   UNL     1       0.330   0.100  -0.148  0.00  0.00    -0.014 C 
ENDBRANCH  31  34
BRANCH  31  36
ATOM     36  C   UNL     1       3.818   1.102   0.451  0.00  0.00    -0.074 C 
ATOM     37  C   UNL     1       4.165   0.602  -0.953  0.00  0.00    -0.014 C 
ATOM     38  C   UNL     1       4.502   2.449   0.696  0.00  0.00    -0.014 C 
ENDBRANCH  31  36
ENDBRANCH  30  31
ENDBRANCH  29  30
ENDBRANCH  25  29
ENDBRANCH   1  26
TORSDOF 8
