REMARK  Name = ZINC58361373
REMARK  9 active torsions:
REMARK  status: ('A' for Active; 'I' for Inactive)
REMARK    1  A    between atoms: C_1  and  C_2
REMARK    2  A    between atoms: C_2  and  C_4
REMARK    3  A    between atoms: C_2  and  O_18
REMARK    4  A    between atoms: N_6  and  C_7
REMARK    5  A    between atoms: C_8  and  C_15
REMARK    6  A    between atoms: O_18  and  C_19
REMARK    7  A    between atoms: C_19  and  C_21
REMARK    8  A    between atoms: C_30  and  N_31
REMARK    9  A    between atoms: C_32  and  C_34
REMARK                            x       y       z     vdW  Elec       q    Type
REMARK                         _______ _______ _______ _____ _____    ______ ____
ROOT
ATOM      1  C   UNL     1       0.064   2.808  -1.153  0.00  0.00    +0.062 C 
ATOM      2  C   UNL     1       0.111   1.351  -0.690  0.00  0.00    +0.259 C 
ENDROOT
BRANCH   2   3
ATOM      3  C   UNL     1       0.883   1.258   0.601  0.00  0.00    +0.258 C 
ATOM      4  O   UNL     1       1.933   0.652   0.637  0.00  0.00    -0.271 OA
ATOM      5  N   UNL     1       0.407   1.849   1.715  0.00  0.00    -0.276 N 
ATOM      6  H   UNL     1      -0.432   2.334   1.686  0.00  0.00    +0.155 HD
BRANCH   5   7
ATOM      7  C   UNL     1       1.118   1.764   2.902  0.00  0.00    +0.084 A 
ATOM      8  C   UNL     1       0.784   2.297   4.133  0.00  0.00    +0.068 A 
ATOM      9  C   UNL     1       1.712   2.063   5.239  0.00  0.00    -0.023 A 
ATOM     10  C   UNL     1       2.795   1.341   4.902  0.00  0.00    -0.004 A 
ATOM     11  S   UNL     1       2.577   0.983   3.178  0.00  0.00    -0.077 S 
ATOM     12  C   UNL     1       3.717   1.133   6.073  0.00  0.00    +0.043 C 
ATOM     13  C   UNL     1       3.276   2.191   7.109  0.00  0.00    +0.010 C 
ATOM     14  C   UNL     1       1.800   2.416   6.722  0.00  0.00    +0.037 C 
BRANCH   8  15
ATOM     15  C   UNL     1      -0.449   3.068   4.322  0.00  0.00    +0.244 C 
ATOM     16  O   UNL     1      -1.477   2.501   4.645  0.00  0.00    -0.270 OA
ATOM     17  N   UNL     1      -0.445   4.403   4.138  0.00  0.00    -0.325 N 
ATOM     18  H   UNL     1       0.374   4.854   3.880  0.00  0.00    +0.145 HD
ATOM     19  H   UNL     1      -1.261   4.912   4.262  0.00  0.00    +0.145 HD
ENDBRANCH   8  15
ENDBRANCH   5   7
ENDBRANCH   2   3
BRANCH   2  20
ATOM     20  O   UNL     1       0.753   0.554  -1.688  0.00  0.00    -0.449 OA
BRANCH  20  21
ATOM     21  C   UNL     1      -0.034   0.013  -2.638  0.00  0.00    +0.342 C 
ATOM     22  O   UNL     1      -1.232   0.212  -2.621  0.00  0.00    -0.245 OA
BRANCH  21  23
ATOM     23  C   UNL     1       0.559  -0.820  -3.700  0.00  0.00    +0.081 A 
ATOM     24  C   UNL     1       1.936  -0.960  -3.777  0.00  0.00    +0.025 A 
ATOM     25  C   UNL     1       2.495  -1.754  -4.788  0.00  0.00    -0.017 A 
ATOM     26  C   UNL     1       3.888  -1.919  -4.895  0.00  0.00    +0.008 A 
ATOM     27  C   UNL     1       4.401  -2.695  -5.888  0.00  0.00    +0.001 A 
ATOM     28  C   UNL     1       3.566  -3.333  -6.803  0.00  0.00    +0.001 A 
ATOM     29  C   UNL     1       2.213  -3.198  -6.732  0.00  0.00    +0.008 A 
ATOM     30  C   UNL     1       1.645  -2.404  -5.721  0.00  0.00    -0.016 A 
ATOM     31  C   UNL     1       0.253  -2.246  -5.623  0.00  0.00    +0.032 A 
ATOM     32  C   UNL     1      -0.279  -1.475  -4.629  0.00  0.00    +0.048 A 
BRANCH  32  33
ATOM     33  N   UNL     1      -1.662  -1.328  -4.534  0.00  0.00    -0.285 N 
ATOM     34  C   UNL     1      -2.396  -1.124  -5.646  0.00  0.00    +0.214 C 
ATOM     35  O   UNL     1      -1.865  -1.151  -6.736  0.00  0.00    -0.276 OA
ATOM     36  C   UNL     1      -3.876  -0.862  -5.535  0.00  0.00    +0.109 C 
ATOM     37  H   UNL     1      -2.096  -1.373  -3.668  0.00  0.00    +0.155 HD
ENDBRANCH  32  33
ENDBRANCH  21  23
ENDBRANCH  20  21
ENDBRANCH   2  20
TORSDOF 7
