REMARK  Name = ZINC50892398
REMARK  3 active torsions:
REMARK  status: ('A' for Active; 'I' for Inactive)
REMARK    1  A    between atoms: C_3  and  C_8
REMARK    2  A    between atoms: C_5  and  N_7
REMARK    3  A    between atoms: C_10  and  C_13
REMARK                            x       y       z     vdW  Elec       q    Type
REMARK                         _______ _______ _______ _____ _____    ______ ____
ROOT
ATOM      1  C   UNL     1       3.659   2.176  -0.023  0.00  0.00    +0.202 A 
ATOM      2  N   UNL     1       3.768   3.514  -0.012  0.00  0.00    -0.187 NA
ATOM      3  C   UNL     1       5.035   3.860  -0.025  0.00  0.00    +0.259 A 
ATOM      4  O   UNL     1       5.777   2.738  -0.044  0.00  0.00    -0.332 OA
ATOM      5  N   UNL     1       4.861   1.653  -0.037  0.00  0.00    -0.056 NA
ENDROOT
BRANCH   3   6
ATOM      6  C   UNL     1       5.555   5.242  -0.019  0.00  0.00    +0.040 A 
ATOM      7  C   UNL     1       4.674   6.325   0.008  0.00  0.00    +0.017 A 
ATOM      8  C   UNL     1       5.160   7.612   0.018  0.00  0.00    +0.046 A 
ATOM      9  C   UNL     1       6.535   7.848   0.000  0.00  0.00    +0.124 A 
ATOM     10  C   UNL     1       7.407   6.765  -0.034  0.00  0.00    -0.002 A 
ATOM     11  C   UNL     1       6.933   5.476  -0.034  0.00  0.00    +0.020 A 
ATOM     12  C   UNL     1       8.815   7.330  -0.072  0.00  0.00    +0.080 C 
ATOM     13  C   UNL     1       8.556   8.807  -0.452  0.00  0.00    +0.234 C 
ATOM     14  O   UNL     1       7.215   9.027   0.017  0.00  0.00    -0.491 OA
ENDBRANCH   3   6
BRANCH   1  17
ATOM     15  C   UNL     1      -0.017   1.377   0.010  0.00  0.00    +0.002 A 
ATOM     16  C   UNL     1       1.167   2.088   0.002  0.00  0.00    +0.012 A 
ATOM     17  C   UNL     1       2.386   1.413  -0.014  0.00  0.00    +0.024 A 
ATOM     18  C   UNL     1       2.406   0.021  -0.021  0.00  0.00    +0.034 A 
ATOM     19  C   UNL     1       1.213  -0.686  -0.013  0.00  0.00    +0.025 A 
ATOM     20  C   UNL     1       0.002  -0.004   0.002  0.00  0.00    +0.023 A 
BRANCH  19  21
ATOM     21  N   UNL     1       1.228  -2.083  -0.021  0.00  0.00    -0.358 N 
ATOM     22  H   UNL     1       2.074  -2.559  -0.033  0.00  0.00    +0.142 HD
ATOM     23  H   UNL     1       0.394  -2.577  -0.016  0.00  0.00    +0.142 HD
ENDBRANCH  19  21
ENDBRANCH   1  17
TORSDOF 3
