REMARK  Name = ZINC39674588
REMARK  7 active torsions:
REMARK  status: ('A' for Active; 'I' for Inactive)
REMARK    1  A    between atoms: C_1  and  C_2
REMARK    2  A    between atoms: C_4  and  C_14
REMARK    3  A    between atoms: C_7  and  C_12
REMARK    4  A    between atoms: C_14  and  C_15
REMARK    5  A    between atoms: C_15  and  N_16
REMARK    6  A    between atoms: C_17  and  C_19
REMARK    7  A    between atoms: C_30  and  C_32
REMARK                            x       y       z     vdW  Elec       q    Type
REMARK                         _______ _______ _______ _____ _____    ______ ____
ROOT
ATOM      1  C   UNL     1      -7.115  -1.145  -2.395  0.00  0.00    +0.100 C 
ATOM      2  C   UNL     1      -7.568   0.332  -2.376  0.00  0.00    +0.121 C 
ATOM      3  N   UNL     1      -9.030   0.278  -2.608  0.00  0.00    -0.296 N 
ATOM      4  C   UNL     1      -9.484  -0.899  -1.829  0.00  0.00    +0.115 C 
ATOM      5  C   UNL     1      -8.375  -1.950  -2.035  0.00  0.00    -0.004 C 
ATOM      6  C   UNL     1      -8.149  -2.737  -0.748  0.00  0.00    -0.010 C 
ATOM      7  C   UNL     1      -9.394  -3.575  -0.442  0.00  0.00    -0.082 C 
ATOM      8  N   UNL     1      -9.658  -4.489  -1.559  0.00  0.00    +0.379 N 
ATOM      9  C   UNL     1      -9.966  -3.722  -2.772  0.00  0.00    -0.082 C 
ATOM     10  C   UNL     1      -8.745  -2.892  -3.176  0.00  0.00    -0.010 C 
ATOM     11  C   UNL     1      -9.779   1.110  -3.358  0.00  0.00    +0.248 C 
ATOM     12  O   UNL     1      -9.245   1.978  -4.020  0.00  0.00    -0.270 OA
ATOM     13  H   UNL     1      -8.843  -5.062  -1.722  0.00  0.00    -0.086 HD
ATOM     14  H   UNL     1     -10.442  -5.082  -1.329  0.00  0.00    -0.086 HD
ENDROOT
BRANCH  11  15
ATOM     15  C   UNL     1     -11.250   0.968  -3.375  0.00  0.00    +0.055 A 
ATOM     16  C   UNL     1     -11.931   0.580  -2.220  0.00  0.00    +0.014 A 
ATOM     17  C   UNL     1     -13.303   0.449  -2.243  0.00  0.00    +0.001 A 
ATOM     18  C   UNL     1     -14.007   0.701  -3.408  0.00  0.00    +0.001 A 
ATOM     19  C   UNL     1     -13.340   1.085  -4.557  0.00  0.00    +0.021 A 
ATOM     20  C   UNL     1     -11.966   1.226  -4.547  0.00  0.00    +0.053 A 
ATOM     21 CL   UNL     1     -11.131   1.716  -5.987  0.00  0.00    -0.083 Cl
ENDBRANCH  11  15
BRANCH   1  23
ATOM     22  N   UNL     1      -5.214  -2.440  -1.484  0.00  0.00    -0.315 N 
ATOM     23  C   UNL     1      -6.034  -1.376  -1.370  0.00  0.00    +0.218 C 
ATOM     24  O   UNL     1      -5.902  -0.605  -0.444  0.00  0.00    -0.275 OA
ATOM     25  H   UNL     1      -5.319  -3.057  -2.225  0.00  0.00    +0.149 HD
BRANCH  22  26
ATOM     26  C   UNL     1      -4.163  -2.664  -0.488  0.00  0.00    +0.108 C 
BRANCH  26  27
ATOM     27  C   UNL     1      -3.381  -3.929  -0.847  0.00  0.00    +0.052 C 
BRANCH  27  30
ATOM     28  C   UNL     1      -0.435  -5.262  -1.057  0.00  0.00    +0.035 C 
ATOM     29  C   UNL     1      -1.300  -5.293   0.204  0.00  0.00    +0.103 C 
ATOM     30  C   UNL     1      -2.301  -4.160   0.177  0.00  0.00    -0.037 C 
ATOM     31  C   UNL     1      -2.028  -3.392   1.263  0.00  0.00    +0.000 A 
ATOM     32  C   UNL     1      -2.627  -2.204   1.758  0.00  0.00    +0.028 A 
ATOM     33  C   UNL     1      -2.147  -1.615   2.904  0.00  0.00    +0.052 A 
ATOM     34  C   UNL     1      -1.023  -2.187   3.637  0.00  0.00    +0.021 A 
ATOM     35  C   UNL     1      -0.415  -3.315   3.215  0.00  0.00    +0.027 A 
ATOM     36  C   UNL     1      -0.887  -3.983   1.996  0.00  0.00    +0.043 A 
ATOM     37  N   UNL     1      -0.470  -5.071   1.392  0.00  0.00    -0.378 N 
ATOM     38  H   UNL     1       0.265  -5.634   1.682  0.00  0.00    +0.160 HD
BRANCH  33  39
ATOM     39  C   UNL     1      -2.763  -0.416   3.389  0.00  0.00    +0.099 C 
ATOM     40  N   UNL     1      -3.252   0.535   3.773  0.00  0.00    -0.191 NA
ENDBRANCH  33  39
ENDBRANCH  27  30
ENDBRANCH  26  27
ENDBRANCH  22  26
ENDBRANCH   1  23
TORSDOF 6
