REMARK  Name = ZINC65500017
REMARK  5 active torsions:
REMARK  status: ('A' for Active; 'I' for Inactive)
REMARK    1  A    between atoms: C_1  and  C_2
REMARK    2  A    between atoms: C_7  and  C_8
REMARK    3  A    between atoms: N_10  and  C_11
REMARK    4  A    between atoms: C_16  and  C_17
REMARK    5  A    between atoms: N_19  and  C_20
REMARK                            x       y       z     vdW  Elec       q    Type
REMARK                         _______ _______ _______ _____ _____    ______ ____
ROOT
ATOM      1  C   UNL     1       0.030  -0.393   2.496  0.00  0.00    +0.265 C 
ATOM      2  O   UNL     1       0.002   0.794   2.765  0.00  0.00    -0.268 OA
ATOM      3  N   UNL     1       0.056  -1.307   3.486  0.00  0.00    -0.280 N 
ATOM      4  H   UNL     1      -0.003  -2.252   3.274  0.00  0.00    +0.155 HD
ENDROOT
BRANCH   1  11
ATOM      5  C   UNL     1      -0.027   1.502   0.011  0.00  0.00    +0.047 C 
ATOM      6  C   UNL     1       0.010  -0.005   0.002  0.00  0.00    -0.010 A 
ATOM      7  C   UNL     1       0.032  -0.834  -1.125  0.00  0.00    +0.042 A 
ATOM      8  C   UNL     1       0.061  -2.156  -0.678  0.00  0.00    +0.027 A 
ATOM      9  N   UNL     1       0.061  -2.138   0.655  0.00  0.00    -0.354 N 
ATOM     10  H   UNL     1       0.081  -2.921   1.227  0.00  0.00    +0.166 HD
ATOM     11  C   UNL     1       0.034  -0.827   1.094  0.00  0.00    +0.106 A 
ATOM     12  C   UNL     1       0.084  -3.336  -1.615  0.00  0.00    +0.054 C 
ATOM     13  C   UNL     1      -0.431  -2.900  -2.990  0.00  0.00    +0.014 C 
ATOM     14  C   UNL     1       0.333  -1.670  -3.489  0.00  0.00    +0.080 C 
ATOM     15  C   UNL     1       0.030  -0.505  -2.559  0.00  0.00    +0.165 C 
ATOM     16  O   UNL     1      -0.197   0.614  -2.969  0.00  0.00    -0.292 OA
ENDBRANCH   1  11
BRANCH   3  17
ATOM     17  C   UNL     1       0.168  -0.896   4.810  0.00  0.00    +0.047 A 
ATOM     18  C   UNL     1       0.760   0.322   5.115  0.00  0.00    +0.044 A 
ATOM     19  C   UNL     1       0.870   0.728   6.431  0.00  0.00    +0.043 A 
ATOM     20  C   UNL     1       0.391  -0.076   7.456  0.00  0.00    +0.021 A 
ATOM     21  C   UNL     1      -0.199  -1.287   7.171  0.00  0.00    +0.016 A 
ATOM     22  C   UNL     1      -0.322  -1.709   5.845  0.00  0.00    +0.058 A 
ATOM     23 CL   UNL     1       1.613   2.251   6.805  0.00  0.00    -0.083 Cl
BRANCH  22  24
ATOM     24  C   UNL     1      -0.958  -3.002   5.533  0.00  0.00    +0.246 C 
ATOM     25  O   UNL     1      -0.979  -3.409   4.388  0.00  0.00    -0.270 OA
ATOM     26  N   UNL     1      -1.517  -3.733   6.518  0.00  0.00    -0.314 N 
ATOM     27  C   UNL     1      -2.149  -5.018   6.209  0.00  0.00    +0.128 C 
ATOM     28  H   UNL     1      -1.500  -3.408   7.432  0.00  0.00    +0.149 HD
ENDBRANCH  22  24
ENDBRANCH   3  17
TORSDOF 3
