REMARK  Name = ZINC21862070
REMARK  8 active torsions:
REMARK  status: ('A' for Active; 'I' for Inactive)
REMARK    1  A    between atoms: C_1  and  C_2
REMARK    2  A    between atoms: C_2  and  C_3
REMARK    3  A    between atoms: C_2  and  C_4
REMARK    4  A    between atoms: C_4  and  C_5
REMARK    5  A    between atoms: C_5  and  N_6
REMARK    6  A    between atoms: C_19  and  C_20
REMARK    7  A    between atoms: C_19  and  C_21
REMARK    8  A    between atoms: N_23  and  C_24
REMARK                            x       y       z     vdW  Elec       q    Type
REMARK                         _______ _______ _______ _____ _____    ______ ____
ROOT
ATOM      1  N   UNL     1       3.959   1.089   5.821  0.00  0.00    -0.279 N 
ATOM      2  C   UNL     1       4.535  -0.066   5.413  0.00  0.00    +0.283 C 
ATOM      3  O   UNL     1       4.315  -1.122   5.971  0.00  0.00    -0.267 OA
ATOM      4  C   UNL     1       5.452   0.025   4.249  0.00  0.00    +0.198 A 
ATOM      5  N   UNL     1       5.989  -0.922   3.537  0.00  0.00    -0.223 NA
ATOM      6  C   UNL     1       6.729  -0.381   2.565  0.00  0.00    +0.090 A 
ATOM      7  C   UNL     1       7.496  -0.961   1.543  0.00  0.00    +0.030 A 
ATOM      8  C   UNL     1       8.143  -0.107   0.688  0.00  0.00    +0.002 A 
ATOM      9  C   UNL     1       8.057   1.271   0.812  0.00  0.00    +0.002 A 
ATOM     10  C   UNL     1       7.312   1.874   1.809  0.00  0.00    +0.028 A 
ATOM     11  C   UNL     1       6.641   1.033   2.695  0.00  0.00    +0.069 A 
ATOM     12  N   UNL     1       5.843   1.262   3.763  0.00  0.00    -0.317 N 
ATOM     13  C   UNL     1       5.407   2.511   4.390  0.00  0.00    +0.159 C 
ATOM     14  C   UNL     1       4.031   2.308   5.023  0.00  0.00    +0.129 C 
ATOM     15  C   UNL     1       3.718   3.505   5.923  0.00  0.00    +0.043 C 
ENDROOT
BRANCH  14  16
ATOM     16  C   UNL     1       2.997   2.236   3.929  0.00  0.00    +0.238 C 
ATOM     17  O   UNL     1       2.386   3.233   3.606  0.00  0.00    -0.273 OA
ATOM     18  N   UNL     1       2.750   1.065   3.311  0.00  0.00    -0.311 N 
ATOM     19  H   UNL     1       3.304   0.161   3.604  0.00  0.00    +0.149 HD
BRANCH  18  20
ATOM     20  C   UNL     1       1.745   0.995   2.247  0.00  0.00    +0.073 C 
ATOM     21  C   UNL     1       2.374   1.367   0.932  0.00  0.00    +0.022 C 
ATOM     22  C   UNL     1       1.397   2.109   0.000  0.00  0.00    +0.002 C 
ATOM     23  C   UNL     1      -0.018   1.500   0.010  0.00  0.00    +0.000 C 
ATOM     24  C   UNL     1       0.002  -0.004   0.002  0.00  0.00    +0.000 C 
ATOM     25  C   UNL     1      -0.083  -0.503   1.459  0.00  0.00    +0.002 C 
ATOM     26  C   UNL     1       1.201  -0.444   2.142  0.00  0.00    +0.022 C 
ENDBRANCH  18  20
ENDBRANCH  14  16
BRANCH   1  27
ATOM     27  C   UNL     1       3.244   1.115   7.099  0.00  0.00    +0.109 C 
BRANCH  27  28
ATOM     28  C   UNL     1       1.775   0.754   6.869  0.00  0.00    +0.022 C 
BRANCH  28  30
ATOM     29  C   UNL     1       1.012   2.211   8.750  0.00  0.00    +0.007 C 
ATOM     30  C   UNL     1       1.027   0.782   8.203  0.00  0.00    -0.016 C 
ATOM     31  C   UNL     1      -0.410   0.301   7.993  0.00  0.00    +0.007 C 
ENDBRANCH  28  30
ENDBRANCH  27  28
ENDBRANCH   1  27
TORSDOF 5
