REMARK  Name = ZINC39677867
REMARK  10 active torsions:
REMARK  status: ('A' for Active; 'I' for Inactive)
REMARK    1  A    between atoms: C_1  and  C_2
REMARK    2  A    between atoms: C_2  and  C_3
REMARK    3  A    between atoms: C_3  and  C_4
REMARK    4  A    between atoms: C_3  and  C_6
REMARK    5  A    between atoms: C_4  and  C_5
REMARK    6  A    between atoms: C_10  and  C_19
REMARK    7  A    between atoms: N_21  and  C_22
REMARK    8  A    between atoms: C_22  and  C_23
REMARK    9  A    between atoms: N_26  and  C_30
REMARK   10  A    between atoms: C_30  and  C_31
REMARK                            x       y       z     vdW  Elec       q    Type
REMARK                         _______ _______ _______ _____ _____    ______ ____
ROOT
ATOM      1  C   UNL     1      -1.140  -2.381   0.502  0.00  0.00    +0.219 C 
ATOM      2  O   UNL     1      -1.690  -3.186  -0.219  0.00  0.00    -0.275 OA
ATOM      3  N   UNL     1      -0.617  -2.778   1.679  0.00  0.00    -0.300 N 
ATOM      4  C   UNL     1       0.080  -1.948   2.690  0.00  0.00    +0.121 C 
ATOM      5  C   UNL     1      -0.418  -2.487   4.049  0.00  0.00    +0.100 C 
ATOM      6  C   UNL     1      -0.868  -3.929   3.759  0.00  0.00    -0.004 C 
ATOM      7  C   UNL     1      -0.616  -4.143   2.259  0.00  0.00    +0.115 C 
ATOM      8  C   UNL     1      -0.044  -4.915   4.580  0.00  0.00    -0.010 C 
ATOM      9  C   UNL     1      -0.549  -6.337   4.318  0.00  0.00    -0.082 C 
ATOM     10  N   UNL     1      -1.967  -6.430   4.684  0.00  0.00    +0.379 N 
ATOM     11  C   UNL     1      -2.765  -5.546   3.825  0.00  0.00    -0.082 C 
ATOM     12  C   UNL     1      -2.354  -4.091   4.067  0.00  0.00    -0.010 C 
ATOM     13  H   UNL     1      -2.281  -7.382   4.568  0.00  0.00    -0.086 HD
ATOM     14  H   UNL     1      -2.084  -6.155   5.648  0.00  0.00    -0.086 HD
ENDROOT
BRANCH   5  15
ATOM     15  C   UNL     1      -1.578  -1.663   4.547  0.00  0.00    +0.218 C 
ATOM     16  O   UNL     1      -2.370  -1.192   3.758  0.00  0.00    -0.275 OA
ATOM     17  N   UNL     1      -1.735  -1.450   5.869  0.00  0.00    -0.313 N 
ATOM     18  H   UNL     1      -1.102  -1.827   6.499  0.00  0.00    +0.149 HD
BRANCH  17  19
ATOM     19  C   UNL     1      -2.862  -0.649   6.352  0.00  0.00    +0.137 C 
BRANCH  19  20
ATOM     20  C   UNL     1      -2.808  -0.562   7.879  0.00  0.00    +0.149 C 
ATOM     21  C   UNL     1      -3.987   0.273   8.386  0.00  0.00    +0.118 C 
ATOM     22  N   UNL     1      -3.974   0.288   9.856  0.00  0.00    -0.293 NA
ATOM     23  C   UNL     1      -4.056  -1.078  10.392  0.00  0.00    +0.113 C 
ATOM     24  C   UNL     1      -2.877  -1.899   9.865  0.00  0.00    +0.175 C 
ATOM     25  O   UNL     1      -2.887  -1.877   8.435  0.00  0.00    -0.372 OA
BRANCH  22  26
ATOM     26  C   UNL     1      -5.058   1.127  10.383  0.00  0.00    +0.119 C 
BRANCH  26  27
ATOM     27  C   UNL     1      -4.869   1.320  11.866  0.00  0.00    -0.033 A 
ATOM     28  C   UNL     1      -5.433   0.425  12.756  0.00  0.00    +0.005 A 
ATOM     29  C   UNL     1      -5.260   0.602  14.116  0.00  0.00    +0.000 A 
ATOM     30  C   UNL     1      -4.522   1.672  14.586  0.00  0.00    +0.000 A 
ATOM     31  C   UNL     1      -3.957   2.566  13.695  0.00  0.00    +0.000 A 
ATOM     32  C   UNL     1      -4.127   2.387  12.335  0.00  0.00    +0.005 A 
ENDBRANCH  26  27
ENDBRANCH  22  26
ENDBRANCH  19  20
ENDBRANCH  17  19
ENDBRANCH   5  15
BRANCH   1  33
ATOM     33  C   UNL     1      -1.041  -0.938   0.083  0.00  0.00    +0.075 C 
BRANCH  33  35
ATOM     34  C   UNL     1       0.532   0.965  -0.302  0.00  0.00    +0.004 C 
ATOM     35  C   UNL     1       0.432  -0.534  -0.012  0.00  0.00    +0.009 C 
ENDBRANCH  33  35
BRANCH  33  36
ATOM     36  C   UNL     1      -1.708  -0.756  -1.282  0.00  0.00    +0.009 C 
ATOM     37  C   UNL     1      -3.212  -1.000  -1.151  0.00  0.00    +0.004 C 
ENDBRANCH  33  36
ENDBRANCH   1  33
TORSDOF 8
