REMARK  Name = ZINC14986644
REMARK  9 active torsions:
REMARK  status: ('A' for Active; 'I' for Inactive)
REMARK    1  A    between atoms: C_3  and  C_7
REMARK    2  A    between atoms: C_7  and  C_9
REMARK    3  A    between atoms: C_7  and  N_68
REMARK    4  A    between atoms: C_9  and  N_10
REMARK    5  A    between atoms: C_11  and  C_17
REMARK    6  A    between atoms: C_17  and  C_18
REMARK    7  A    between atoms: C_18  and  N_65
REMARK    8  A    between atoms: C_19  and  C_20
REMARK    9  A    between atoms: C_19  and  N_65
REMARK                            x       y       z     vdW  Elec       q    Type
REMARK                         _______ _______ _______ _____ _____    ______ ____
ROOT
ATOM      1  N   UNL     1      -1.040   3.057  -1.967  0.00  0.00    -0.300 N 
ATOM      2  C   UNL     1      -0.483   1.752  -1.594  0.00  0.00    +0.075 C 
ATOM      3  C   UNL     1       0.419   1.335  -2.777  0.00  0.00    +0.031 C 
ATOM      4  C   UNL     1       0.791   2.706  -3.388  0.00  0.00    +0.098 C 
ATOM      5  C   UNL     1      -0.341   3.618  -2.969  0.00  0.00    +0.216 C 
ATOM      6  O   UNL     1      -0.581   4.699  -3.464  0.00  0.00    -0.276 OA
ENDROOT
BRANCH   1   7
ATOM      7  C   UNL     1      -2.209   3.670  -1.331  0.00  0.00    +0.097 C 
BRANCH   7   8
ATOM      8  C   UNL     1      -3.469   3.303  -2.117  0.00  0.00    -0.019 C 
BRANCH   8  14
ATOM      9  C   UNL     1      -4.745   3.418  -0.063  0.00  0.00    -0.078 C 
ATOM     10  C   UNL     1      -5.893   4.149   0.638  0.00  0.00    -0.019 C 
ATOM     11  C   UNL     1      -7.201   3.869  -0.108  0.00  0.00    -0.004 C 
ATOM     12  C   UNL     1      -7.053   4.316  -1.565  0.00  0.00    -0.019 C 
ATOM     13  C   UNL     1      -5.872   3.580  -2.202  0.00  0.00    -0.078 C 
ATOM     14  N   UNL     1      -4.641   3.910  -1.453  0.00  0.00    +0.385 N 
ATOM     15  H   UNL     1      -4.524   4.930  -1.438  0.00  0.00    -0.081 HD
ENDBRANCH   8  14
BRANCH   8  18
ATOM     16  C   UNL     1      -2.907   3.568  -5.838  0.00  0.00    +0.020 A 
ATOM     17  C   UNL     1      -2.985   3.024  -4.566  0.00  0.00    +0.005 A 
ATOM     18  C   UNL     1      -3.364   3.849  -3.518  0.00  0.00    -0.041 A 
ATOM     19  C   UNL     1      -3.639   5.179  -3.773  0.00  0.00    +0.112 A 
ATOM     20  N   UNL     1      -3.549   5.663  -4.996  0.00  0.00    -0.263 NA
ATOM     21  C   UNL     1      -3.197   4.907  -6.017  0.00  0.00    +0.111 A 
ENDBRANCH   8  18
ENDBRANCH   7   8
ENDBRANCH   1   7
BRANCH   2  22
ATOM     22  C   UNL     1       0.346   1.876  -0.314  0.00  0.00    +0.003 C 
BRANCH  22  23
ATOM     23  C   UNL     1      -0.569   2.262   0.850  0.00  0.00    -0.080 C 
BRANCH  23  24
ATOM     24  N   UNL     1       0.210   2.246   2.103  0.00  0.00    +0.382 N 
ATOM     25  H   UNL     1       0.984   2.918   2.029  0.00  0.00    -0.085 HD
ATOM     26  H   UNL     1       0.589   1.304   2.254  0.00  0.00    -0.085 HD
BRANCH  24  27
ATOM     27  C   UNL     1      -0.647   2.616   3.244  0.00  0.00    -0.045 C 
BRANCH  27  28
ATOM     28  C   UNL     1       0.174   2.591   4.508  0.00  0.00    -0.042 A 
ATOM     29  C   UNL     1       0.578   3.778   5.091  0.00  0.00    +0.052 A 
ATOM     30  C   UNL     1       1.329   3.758   6.255  0.00  0.00    +0.167 A 
ATOM     31  C   UNL     1       1.684   2.540   6.830  0.00  0.00    +0.168 A 
ATOM     32  C   UNL     1       1.281   1.354   6.238  0.00  0.00    +0.069 A 
ATOM     33  C   UNL     1       0.527   1.381   5.078  0.00  0.00    +0.046 A 
ATOM     34 CL   UNL     1       0.023  -0.105   4.337  0.00  0.00    -0.083 Cl
ATOM     35  O   UNL     1       2.420   2.786   7.953  0.00  0.00    -0.453 OA
ATOM     36  C   UNL     1       2.856   4.153   7.836  0.00  0.00    +0.466 C 
ATOM     37  O   UNL     1       1.841   4.766   7.019  0.00  0.00    -0.453 OA
ENDBRANCH  27  28
ENDBRANCH  24  27
ENDBRANCH  23  24
ENDBRANCH  22  23
ENDBRANCH   2  22
TORSDOF 9
