REMARK  Name = ZINC45696000
REMARK  7 active torsions:
REMARK  status: ('A' for Active; 'I' for Inactive)
REMARK    1  A    between atoms: C_1  and  C_2
REMARK    2  A    between atoms: C_2  and  C_4
REMARK    3  A    between atoms: C_2  and  N_13
REMARK    4  A    between atoms: N_16  and  C_17
REMARK    5  A    between atoms: C_22  and  S_23
REMARK    6  A    between atoms: S_23  and  C_24
REMARK    7  A    between atoms: C_24  and  C_25
REMARK                            x       y       z     vdW  Elec       q    Type
REMARK                         _______ _______ _______ _____ _____    ______ ____
ROOT
ATOM      1  N   UNL     1       0.706  -0.505   1.185  0.00  0.00    -0.290 N 
ATOM      2  C   UNL     1       0.049  -0.640   2.354  0.00  0.00    +0.304 C 
ATOM      3  O   UNL     1      -1.133  -0.363   2.423  0.00  0.00    -0.252 OA
ATOM      4  N   UNL     1       0.703  -1.080   3.447  0.00  0.00    -0.268 N 
ATOM      5  H   UNL     1       1.649  -0.726   1.130  0.00  0.00    +0.151 HD
ATOM      6  H   UNL     1       1.629  -1.362   3.378  0.00  0.00    +0.156 HD
ENDROOT
BRANCH   4   7
ATOM      7  C   UNL     1       0.045  -1.131   4.684  0.00  0.00    +0.048 A 
ATOM      8  C   UNL     1      -1.304  -1.441   4.742  0.00  0.00    +0.024 A 
ATOM      9  C   UNL     1      -1.951  -1.490   5.963  0.00  0.00    +0.002 A 
ATOM     10  C   UNL     1      -1.256  -1.230   7.130  0.00  0.00    +0.001 A 
ATOM     11  C   UNL     1       0.090  -0.920   7.082  0.00  0.00    +0.016 A 
ATOM     12  C   UNL     1       0.749  -0.874   5.862  0.00  0.00    +0.030 A 
BRANCH  12  13
ATOM     13  S   UNL     1       2.466  -0.486   5.798  0.00  0.00    -0.114 S 
BRANCH  13  14
ATOM     14  C   UNL     1       2.925  -0.240   7.536  0.00  0.00    +0.169 C 
BRANCH  14  15
ATOM     15  C   UNL     1       4.390   0.102   7.625  0.00  0.00    +0.221 C 
ATOM     16  O   UNL     1       5.059   0.173   6.615  0.00  0.00    -0.275 OA
ATOM     17  N   UNL     1       4.957   0.330   8.826  0.00  0.00    -0.329 N 
ATOM     18  H   UNL     1       4.422   0.273   9.633  0.00  0.00    +0.145 HD
ATOM     19  H   UNL     1       5.900   0.550   8.883  0.00  0.00    +0.145 HD
ENDBRANCH  14  15
ENDBRANCH  13  14
ENDBRANCH  12  13
ENDBRANCH   4   7
BRANCH   1  21
ATOM     20  C   UNL     1      -0.022   1.503  -0.006  0.00  0.00    +0.036 C 
ATOM     21  C   UNL     1      -0.005  -0.027  -0.004  0.00  0.00    +0.137 C 
BRANCH  21  22
ATOM     22  C   UNL     1       0.696  -0.523  -1.242  0.00  0.00    +0.126 A 
ATOM     23  C   UNL     1       0.080  -0.962  -2.348  0.00  0.00    +0.055 A 
ATOM     24  C   UNL     1       1.143  -1.340  -3.286  0.00  0.00    +0.020 A 
ATOM     25  C   UNL     1       1.163  -1.857  -4.581  0.00  0.00    +0.011 A 
ATOM     26  C   UNL     1       2.360  -2.105  -5.193  0.00  0.00    +0.001 A 
ATOM     27  C   UNL     1       3.554  -1.846  -4.534  0.00  0.00    +0.004 A 
ATOM     28  C   UNL     1       3.554  -1.335  -3.254  0.00  0.00    +0.047 A 
ATOM     29  C   UNL     1       2.348  -1.075  -2.614  0.00  0.00    +0.135 A 
ATOM     30  O   UNL     1       2.030  -0.584  -1.399  0.00  0.00    -0.458 OA
ENDBRANCH  21  22
ENDBRANCH   1  21
TORSDOF 6
