REMARK  Name = ZINC12329887
REMARK  9 active torsions:
REMARK  status: ('A' for Active; 'I' for Inactive)
REMARK    1  A    between atoms: C_1  and  O_2
REMARK    2  A    between atoms: O_2  and  C_3
REMARK    3  A    between atoms: C_6  and  C_9
REMARK    4  A    between atoms: C_9  and  C_11
REMARK    5  A    between atoms: C_9  and  O_30
REMARK    6  A    between atoms: C_11  and  N_58
REMARK    7  A    between atoms: C_18  and  O_29
REMARK    8  A    between atoms: C_23  and  O_27
REMARK    9  A    between atoms: O_27  and  C_28
REMARK                            x       y       z     vdW  Elec       q    Type
REMARK                         _______ _______ _______ _____ _____    ______ ____
ROOT
ATOM      1  C   UNL     1       3.816   5.829   0.414  0.00  0.00    -0.075 C 
ATOM      2  C   UNL     1       2.427   5.223   0.194  0.00  0.00    +0.029 C 
ATOM      3  C   UNL     1       2.519   3.699   0.287  0.00  0.00    +0.110 C 
ATOM      4  C   UNL     1       3.531   3.186  -0.739  0.00  0.00    +0.029 C 
ATOM      5  C   UNL     1       4.886   3.853  -0.492  0.00  0.00    -0.075 C 
ATOM      6  C   UNL     1       1.144   3.086   0.002  0.00  0.00    +0.084 C 
ATOM      7  C   UNL     1       1.286   1.562  -0.002  0.00  0.00    +0.152 C 
ATOM      8  C   UNL     1       2.052   1.120   1.220  0.00  0.00    +0.023 A 
ATOM      9  C   UNL     1       1.967  -0.205   1.615  0.00  0.00    +0.013 A 
ATOM     10  C   UNL     1       2.656  -0.648   2.726  0.00  0.00    +0.046 A 
ATOM     11  C   UNL     1       3.440   0.237   3.453  0.00  0.00    +0.124 A 
ATOM     12  C   UNL     1       3.525   1.562   3.062  0.00  0.00    +0.091 A 
ATOM     13  C   UNL     1       2.828   2.008   1.944  0.00  0.00    +0.130 A 
ATOM     14  O   UNL     1       2.927   3.319   1.600  0.00  0.00    -0.485 OA
ATOM     15  N   UNL     1       4.733   5.317  -0.626  0.00  0.00    +0.382 N 
ATOM     16  H   UNL     1       4.338   5.527  -1.550  0.00  0.00    -0.082 HD
ENDROOT
BRANCH  11  17
ATOM     17  O   UNL     1       4.122  -0.197   4.545  0.00  0.00    -0.495 OA
ATOM     18  C   UNL     1       3.987  -1.577   4.889  0.00  0.00    +0.277 C 
ENDBRANCH  11  17
BRANCH   7  19
ATOM     19  O   UNL     1      -0.011   0.963   0.007  0.00  0.00    -0.387 OA
ATOM     20  H   UNL     1       0.002  -0.004   0.002  0.00  0.00    +0.210 HD
ENDBRANCH   7  19
BRANCH  15  21
ATOM     21  C   UNL     1       6.050   5.976  -0.506  0.00  0.00    -0.042 C 
BRANCH  21  22
ATOM     22  C   UNL     1       6.902   5.598  -1.719  0.00  0.00    +0.128 C 
BRANCH  22  26
ATOM     23  C   UNL     1      10.819   7.249  -1.279  0.00  0.00    +0.120 A 
ATOM     24  C   UNL     1      10.590   5.914  -0.980  0.00  0.00    +0.046 A 
ATOM     25  C   UNL     1       9.323   5.383  -1.123  0.00  0.00    +0.009 A 
ATOM     26  C   UNL     1       8.283   6.180  -1.564  0.00  0.00    -0.021 A 
ATOM     27  C   UNL     1       8.510   7.510  -1.868  0.00  0.00    +0.009 A 
ATOM     28  C   UNL     1       9.774   8.047  -1.721  0.00  0.00    +0.046 A 
BRANCH  23  30
ATOM     29  C   UNL     1      12.226   9.156  -1.465  0.00  0.00    +0.277 C 
ATOM     30  O   UNL     1      12.064   7.774  -1.138  0.00  0.00    -0.495 OA
ENDBRANCH  23  30
ENDBRANCH  22  26
BRANCH  22  31
ATOM     31  O   UNL     1       6.297   6.116  -2.906  0.00  0.00    -0.389 OA
ATOM     32  H   UNL     1       6.204   7.078  -2.912  0.00  0.00    +0.210 HD
ENDBRANCH  22  31
ENDBRANCH  21  22
ENDBRANCH  15  21
TORSDOF 7
