REMARK  Name = ZINC20236064
REMARK  4 active torsions:
REMARK  status: ('A' for Active; 'I' for Inactive)
REMARK    1  A    between atoms: C_1  and  C_2
REMARK    2  A    between atoms: C_2  and  C_3
REMARK    3  A    between atoms: C_12  and  C_13
REMARK    4  A    between atoms: N_20  and  C_23
REMARK                            x       y       z     vdW  Elec       q    Type
REMARK                         _______ _______ _______ _____ _____    ______ ____
ROOT
ATOM      1  C   UNL     1       1.998   4.415  -1.237  0.00  0.00    +0.028 C 
ATOM      2  C   UNL     1       3.152   4.134  -0.517  0.00  0.00    +0.102 C 
ATOM      3  C   UNL     1       3.819   5.164   0.299  0.00  0.00    +0.276 C 
ATOM      4  O   UNL     1       3.373   6.294   0.364  0.00  0.00    -0.268 OA
ATOM      5  N   UNL     1       4.933   4.818   0.976  0.00  0.00    -0.123 NA
ATOM      6  C   UNL     1       5.438   3.578   0.908  0.00  0.00    +0.340 C 
ATOM      7  O   UNL     1       6.447   3.332   1.539  0.00  0.00    -0.250 OA
ATOM      8  N   UNL     1       4.887   2.595   0.182  0.00  0.00    -0.188 N 
ATOM      9  C   UNL     1       3.766   2.795  -0.541  0.00  0.00    +0.264 C 
ATOM     10  O   UNL     1       3.276   1.895  -1.196  0.00  0.00    -0.269 OA
ENDROOT
BRANCH   1  20
ATOM     11  C   UNL     1      -1.088   1.469  -3.713  0.00  0.00    -0.024 A 
ATOM     12  C   UNL     1      -2.252   1.770  -3.040  0.00  0.00    +0.005 A 
ATOM     13  C   UNL     1      -2.250   2.686  -1.999  0.00  0.00    +0.001 A 
ATOM     14  C   UNL     1      -1.079   3.308  -1.623  0.00  0.00    +0.010 A 
ATOM     15  C   UNL     1       0.103   3.013  -2.294  0.00  0.00    +0.007 A 
ATOM     16  C   UNL     1       0.103   2.091  -3.352  0.00  0.00    +0.050 A 
ATOM     17  N   UNL     1       1.397   1.992  -3.824  0.00  0.00    -0.360 N 
ATOM     18  H   UNL     1       1.628   1.312  -4.657  0.00  0.00    +0.165 HD
ATOM     19  C   UNL     1       2.220   2.802  -3.135  0.00  0.00    +0.091 A 
ATOM     20  C   UNL     1       1.500   3.477  -2.164  0.00  0.00    +0.001 A 
BRANCH  11  22
ATOM     21  C   UNL     1      -0.724  -0.910  -4.309  0.00  0.00    +0.009 C 
ATOM     22  C   UNL     1      -1.106   0.472  -4.843  0.00  0.00    +0.034 C 
ENDBRANCH  11  22
ENDBRANCH   1  20
BRANCH   8  23
ATOM     23  C   UNL     1       5.490   1.329   0.175  0.00  0.00    +0.046 A 
ATOM     24  C   UNL     1       5.103   0.370   1.101  0.00  0.00    +0.027 A 
ATOM     25  C   UNL     1       5.693  -0.879   1.089  0.00  0.00    +0.040 A 
ATOM     26  C   UNL     1       6.679  -1.170   0.162  0.00  0.00    +0.124 A 
ATOM     27  C   UNL     1       7.071  -0.213  -0.759  0.00  0.00    +0.040 A 
ATOM     28  C   UNL     1       6.478   1.035  -0.754  0.00  0.00    +0.027 A 
ATOM     29  F   UNL     1       7.260  -2.390   0.155  0.00  0.00    -0.205 F 
ENDBRANCH   8  23
TORSDOF 3
