REMARK  Name = ZINC65182150
REMARK  7 active torsions:
REMARK  status: ('A' for Active; 'I' for Inactive)
REMARK    1  A    between atoms: C_1  and  C_2
REMARK    2  A    between atoms: C_7  and  C_12
REMARK    3  A    between atoms: C_15  and  C_18
REMARK    4  A    between atoms: C_18  and  C_19
REMARK    5  A    between atoms: C_19  and  N_20
REMARK    6  A    between atoms: N_20  and  C_21
REMARK    7  A    between atoms: C_22  and  C_24
REMARK                            x       y       z     vdW  Elec       q    Type
REMARK                         _______ _______ _______ _____ _____    ______ ____
ROOT
ATOM      1  C   UNL     1      -1.001  -5.189   1.922  0.00  0.00    +0.318 C 
ATOM      2  N   UNL     1      -1.042  -6.493   1.240  0.00  0.00    -0.291 N 
ATOM      3  C   UNL     1      -1.034  -7.456   2.222  0.00  0.00    +0.139 C 
ATOM      4  N   UNL     1      -0.994  -6.934   3.393  0.00  0.00    -0.072 NA
ATOM      5  O   UNL     1      -0.972  -5.518   3.320  0.00  0.00    -0.367 OA
ATOM      6  H   UNL     1      -1.071  -6.644   0.282  0.00  0.00    +0.151 HD
ENDROOT
BRANCH   1  13
ATOM      7  C   UNL     1       0.337   1.506   0.126  0.00  0.00    +0.044 C 
ATOM      8  C   UNL     1       0.312  -0.001   0.102  0.00  0.00    -0.050 A 
ATOM      9  C   UNL     1       0.281  -0.664  -1.132  0.00  0.00    +0.005 A 
ATOM     10  C   UNL     1       0.257  -2.010  -1.236  0.00  0.00    +0.026 A 
ATOM     11  C   UNL     1       0.262  -2.821  -0.068  0.00  0.00    +0.043 A 
ATOM     12  N   UNL     1       0.242  -4.122   0.090  0.00  0.00    -0.373 N 
ATOM     13  C   UNL     1       0.260  -4.419   1.527  0.00  0.00    +0.165 C 
ATOM     14  C   UNL     1       0.294  -3.078   2.227  0.00  0.00    +0.012 C 
ATOM     15  C   UNL     1       0.295  -2.145   1.248  0.00  0.00    -0.004 A 
ATOM     16  C   UNL     1       0.325  -0.677   1.273  0.00  0.00    +0.013 A 
ATOM     17  H   UNL     1       0.220  -4.779  -0.623  0.00  0.00    +0.160 HD
ENDBRANCH   1  13
BRANCH   3  18
ATOM     18  C   UNL     1      -1.068  -8.939   1.955  0.00  0.00    +0.094 C 
BRANCH  18  19
ATOM     19  C   UNL     1      -1.046  -9.697   3.283  0.00  0.00    +0.115 C 
BRANCH  19  20
ATOM     20  N   UNL     1      -1.079 -11.139   3.024  0.00  0.00    -0.300 N 
ATOM     21  C   UNL     1       0.172 -11.882   2.860  0.00  0.00    +0.132 C 
ATOM     22  C   UNL     1      -2.261 -11.780   2.936  0.00  0.00    +0.248 C 
ATOM     23  O   UNL     1      -3.299 -11.149   2.965  0.00  0.00    -0.270 OA
BRANCH  22  24
ATOM     24  C   UNL     1      -2.295 -13.252   2.803  0.00  0.00    +0.055 A 
ATOM     25  C   UNL     1      -1.342 -14.047   3.453  0.00  0.00    +0.017 A 
ATOM     26  C   UNL     1      -1.417 -15.419   3.298  0.00  0.00    +0.041 A 
ATOM     27  C   UNL     1      -2.422 -15.958   2.511  0.00  0.00    +0.129 A 
ATOM     28  N   UNL     1      -3.307 -15.183   1.911  0.00  0.00    -0.243 NA
ATOM     29  C   UNL     1      -3.279 -13.872   2.033  0.00  0.00    +0.125 A 
ATOM     30 CL   UNL     1      -2.521 -17.680   2.313  0.00  0.00    -0.062 Cl
ENDBRANCH  22  24
ENDBRANCH  19  20
ENDBRANCH  18  19
ENDBRANCH   3  18
TORSDOF 5
