REMARK  Name = ZINC06148602
REMARK  6 active torsions:
REMARK  status: ('A' for Active; 'I' for Inactive)
REMARK    1  A    between atoms: C_6  and  N_7
REMARK    2  A    between atoms: C_8  and  C_10
REMARK    3  A    between atoms: C_10  and  C_11
REMARK    4  A    between atoms: C_18  and  C_20
REMARK    5  A    between atoms: C_20  and  C_21
REMARK    6  A    between atoms: N_23  and  C_24
REMARK                            x       y       z     vdW  Elec       q    Type
REMARK                         _______ _______ _______ _____ _____    ______ ____
ROOT
ATOM      1  C   UNL     1      -4.829   0.121   0.355  0.00  0.00    +0.024 C 
ATOM      2  C   UNL     1      -4.665   0.938   1.657  0.00  0.00    +0.170 C 
ATOM      3  S   UNL     1      -5.808   0.039   2.793  0.00  0.00    -0.030 S 
ATOM      4  O   UNL     1      -6.420   0.968   3.678  0.00  0.00    -0.174 OA
ATOM      5  O   UNL     1      -5.147  -1.104   3.318  0.00  0.00    -0.174 OA
ATOM      6  C   UNL     1      -7.036  -0.493   1.521  0.00  0.00    +0.170 C 
ATOM      7  C   UNL     1      -6.130  -0.664   0.285  0.00  0.00    +0.024 C 
ENDROOT
BRANCH   1   8
ATOM      8  C   UNL     1      -3.660  -0.859   0.244  0.00  0.00    +0.101 C 
BRANCH   8  10
ATOM      9  N   UNL     1      -1.200  -0.750   0.006  0.00  0.00    -0.285 N 
ATOM     10  C   UNL     1      -2.370  -0.090   0.118  0.00  0.00    +0.218 C 
ATOM     11  O   UNL     1      -2.385   1.123   0.118  0.00  0.00    -0.275 OA
ATOM     12  H   UNL     1      -1.194  -1.717  -0.061  0.00  0.00    +0.155 HD
BRANCH   9  18
ATOM     13  C   UNL     1       1.140  -0.578   0.579  0.00  0.00    +0.027 A 
ATOM     14  C   UNL     1       2.330   0.124   0.562  0.00  0.00    +0.051 A 
ATOM     15  C   UNL     1       2.396   1.368  -0.048  0.00  0.00    +0.162 A 
ATOM     16  C   UNL     1       1.263   1.910  -0.643  0.00  0.00    +0.164 A 
ATOM     17  C   UNL     1       0.069   1.206  -0.624  0.00  0.00    +0.072 A 
ATOM     18  C   UNL     1       0.006  -0.038  -0.013  0.00  0.00    +0.037 A 
ATOM     19  O   UNL     1       1.311   3.126  -1.253  0.00  0.00    -0.485 OA
ATOM     20  C   UNL     1       2.424   3.966  -0.929  0.00  0.00    +0.270 C 
ATOM     21  C   UNL     1       3.701   3.117  -0.995  0.00  0.00    +0.270 C 
ATOM     22  O   UNL     1       3.577   2.047  -0.052  0.00  0.00    -0.485 OA
ENDBRANCH   9  18
ENDBRANCH   8  10
ENDBRANCH   1   8
BRANCH   7  23
ATOM     23  C   UNL     1      -6.908  -0.212  -0.952  0.00  0.00    +0.101 C 
BRANCH  23  24
ATOM     24  C   UNL     1      -8.142  -1.063  -1.109  0.00  0.00    +0.218 C 
ATOM     25  O   UNL     1      -8.376  -1.945  -0.310  0.00  0.00    -0.275 OA
ATOM     26  N   UNL     1      -8.985  -0.844  -2.137  0.00  0.00    -0.285 N 
ATOM     27  H   UNL     1      -8.765  -0.185  -2.813  0.00  0.00    +0.155 HD
BRANCH  26  28
ATOM     28  C   UNL     1     -10.180  -1.569  -2.229  0.00  0.00    +0.037 A 
ATOM     29  C   UNL     1     -11.321  -0.966  -2.740  0.00  0.00    +0.027 A 
ATOM     30  C   UNL     1     -12.500  -1.680  -2.830  0.00  0.00    +0.051 A 
ATOM     31  C   UNL     1     -12.548  -3.001  -2.410  0.00  0.00    +0.162 A 
ATOM     32  C   UNL     1     -11.407  -3.609  -1.901  0.00  0.00    +0.164 A 
ATOM     33  C   UNL     1     -10.223  -2.893  -1.815  0.00  0.00    +0.072 A 
ATOM     34  O   UNL     1     -11.432  -4.907  -1.492  0.00  0.00    -0.485 OA
ATOM     35  C   UNL     1     -12.722  -5.481  -1.250  0.00  0.00    +0.270 C 
ATOM     36  C   UNL     1     -13.638  -5.115  -2.425  0.00  0.00    +0.270 C 
ATOM     37  O   UNL     1     -13.721  -3.688  -2.502  0.00  0.00    -0.485 OA
ENDBRANCH  26  28
ENDBRANCH  23  24
ENDBRANCH   7  23
TORSDOF 6
