REMARK  Name = ZINC28510174
REMARK  6 active torsions:
REMARK  status: ('A' for Active; 'I' for Inactive)
REMARK    1  A    between atoms: C_1  and  C_2
REMARK    2  A    between atoms: C_7  and  N_8
REMARK    3  A    between atoms: C_11  and  C_14
REMARK    4  A    between atoms: C_14  and  C_15
REMARK    5  A    between atoms: C_15  and  C_17
REMARK    6  A    between atoms: C_15  and  N_18
REMARK                            x       y       z     vdW  Elec       q    Type
REMARK                         _______ _______ _______ _____ _____    ______ ____
ROOT
ATOM      1  N   UNL     1      -0.011   0.966   0.007  0.00  0.00    -0.294 N 
ATOM      2  C   UNL     1       1.155   1.717  -0.011  0.00  0.00    +0.163 A 
ATOM      3  N   UNL     1       2.406   1.307   0.066  0.00  0.00    -0.230 NA
ATOM      4  C   UNL     1       3.409   2.164   0.028  0.00  0.00    +0.049 A 
ATOM      5  C   UNL     1       3.126   3.485  -0.080  0.00  0.00    +0.071 A 
ATOM      6  S   UNL     1       1.341   3.439  -0.134  0.00  0.00    -0.060 S 
ATOM      7  H   UNL     1       0.042  -0.133  -0.018  0.00  0.00    +0.154 HD
ENDROOT
BRANCH   1  14
ATOM      8  C   UNL     1      -2.275  -0.418  -1.019  0.00  0.00    +0.046 C 
ATOM      9  C   UNL     1      -2.385   0.965  -0.431  0.00  0.00    -0.028 A 
ATOM     10  C   UNL     1      -3.611   1.598  -0.379  0.00  0.00    +0.020 A 
ATOM     11  C   UNL     1      -3.713   2.868   0.161  0.00  0.00    +0.018 A 
ATOM     12  C   UNL     1      -2.588   3.508   0.649  0.00  0.00    +0.017 A 
ATOM     13  C   UNL     1      -1.360   2.878   0.604  0.00  0.00    +0.024 A 
ATOM     14  C   UNL     1      -1.254   1.604   0.058  0.00  0.00    +0.036 A 
ATOM     15 BR   UNL     1      -5.394   3.731   0.232  0.00  0.00    -0.050 Br
ENDBRANCH   1  14
BRANCH   4  16
ATOM     16  C   UNL     1       4.835   1.686   0.110  0.00  0.00    +0.039 C 
BRANCH  16  17
ATOM     17  C   UNL     1       5.015   0.830   1.365  0.00  0.00    -0.072 C 
ATOM     18  C   UNL     1       6.489   0.447   1.516  0.00  0.00    -0.014 C 
BRANCH  17  19
ATOM     19  N   UNL     1       4.203  -0.388   1.248  0.00  0.00    +0.380 N 
ATOM     20  H   UNL     1       4.332  -1.004   2.151  0.00  0.00    -0.090 HD
ATOM     21  H   UNL     1       4.525  -0.960   0.365  0.00  0.00    -0.090 HD
ATOM     22  H   UNL     1       3.143  -0.114   1.140  0.00  0.00    -0.090 HD
ENDBRANCH  17  19
ENDBRANCH  16  17
ENDBRANCH   4  16
TORSDOF 4
