REMARK  Name = ZINC22374389
REMARK  3 active torsions:
REMARK  status: ('A' for Active; 'I' for Inactive)
REMARK    1  A    between atoms: C_3  and  C_6
REMARK    2  A    between atoms: N_11  and  C_14
REMARK    3  A    between atoms: C_14  and  C_15
REMARK                            x       y       z     vdW  Elec       q    Type
REMARK                         _______ _______ _______ _____ _____    ______ ____
ROOT
ATOM      1  C   UNL     1      -1.884   5.772  -4.359  0.00  0.00    +0.125 A 
ATOM      2  N   UNL     1      -1.799   4.479  -4.751  0.00  0.00    -0.309 N 
ATOM      3  H   UNL     1      -1.921   4.216  -5.812  0.00  0.00    +0.170 HD
ATOM      4  C   UNL     1      -1.567   3.459  -3.890  0.00  0.00    +0.260 A 
ATOM      5  O   UNL     1      -1.492   2.301  -4.262  0.00  0.00    -0.267 OA
ATOM      6  C   UNL     1      -1.413   3.830  -2.512  0.00  0.00    +0.075 A 
ATOM      7  C   UNL     1      -1.159   2.940  -1.394  0.00  0.00    -0.023 A 
ATOM      8  C   UNL     1      -1.050   3.515  -0.173  0.00  0.00    -0.004 A 
ATOM      9  S   UNL     1      -1.277   5.253  -0.456  0.00  0.00    -0.073 S 
ATOM     10  C   UNL     1      -1.518   5.205  -2.203  0.00  0.00    +0.116 A 
ATOM     11  N   UNL     1      -1.748   6.152  -3.107  0.00  0.00    -0.225 NA
ATOM     12  C   UNL     1      -0.794   2.829   1.133  0.00  0.00    +0.043 C 
ATOM     13  C   UNL     1      -1.040   1.325   0.948  0.00  0.00    +0.005 C 
ATOM     14  C   UNL     1      -0.315   0.863  -0.320  0.00  0.00    +0.005 C 
ATOM     15  C   UNL     1      -1.018   1.429  -1.554  0.00  0.00    +0.037 C 
ENDROOT
BRANCH   1  16
ATOM     16  C   UNL     1      -2.146   6.825  -5.405  0.00  0.00    +0.158 C 
BRANCH  16  22
ATOM     17  C   UNL     1      -3.952  11.742  -3.989  0.00  0.00    +0.282 C 
ATOM     18  O   UNL     1      -3.783  12.677  -4.749  0.00  0.00    -0.267 OA
ATOM     19  N   UNL     1      -3.136  10.671  -4.046  0.00  0.00    -0.293 N 
ATOM     20  C   UNL     1      -2.088  10.574  -5.073  0.00  0.00    +0.123 C 
ATOM     21  C   UNL     1      -2.215   9.217  -5.773  0.00  0.00    +0.104 C 
ATOM     22  N   UNL     1      -2.199   8.147  -4.767  0.00  0.00    -0.292 NA
ATOM     23  C   UNL     1      -3.352   8.249  -3.862  0.00  0.00    +0.104 C 
ATOM     24  C   UNL     1      -3.271   9.567  -3.083  0.00  0.00    +0.123 C 
BRANCH  17  27
ATOM     25  C   UNL     1      -6.846  12.378  -1.856  0.00  0.00    +0.042 A 
ATOM     26  C   UNL     1      -6.017  12.735  -2.931  0.00  0.00    +0.054 A 
ATOM     27  C   UNL     1      -5.044  11.780  -3.010  0.00  0.00    +0.189 A 
ATOM     28  O   UNL     1      -5.266  10.876  -2.034  0.00  0.00    -0.458 OA
ATOM     29  C   UNL     1      -6.349  11.235  -1.333  0.00  0.00    +0.196 A 
ENDBRANCH  17  27
ENDBRANCH  16  22
ENDBRANCH   1  16
TORSDOF 3
