REMARK  Name = ZINC00064741
REMARK  6 active torsions:
REMARK  status: ('A' for Active; 'I' for Inactive)
REMARK    1  A    between atoms: C_1  and  C_2
REMARK    2  A    between atoms: C_3  and  C_17
REMARK    3  A    between atoms: C_4  and  C_11
REMARK    4  A    between atoms: N_9  and  C_10
REMARK    5  A    between atoms: C_17  and  O_19
REMARK    6  A    between atoms: O_19  and  C_20
REMARK                            x       y       z     vdW  Elec       q    Type
REMARK                         _______ _______ _______ _____ _____    ______ ____
ROOT
ATOM      1  C   UNL     1       0.047   1.467   0.454  0.00  0.00    +0.061 C 
ATOM      2  C   UNL     1       0.034  -0.022   0.218  0.00  0.00    +0.024 C 
ATOM      3  C   UNL     1      -1.127  -0.702   0.334  0.00  0.00    +0.078 C 
ATOM      4  C   UNL     1      -1.095  -2.197   0.088  0.00  0.00    +0.143 C 
ATOM      5  N   UNL     1       0.208  -2.789  -0.260  0.00  0.00    -0.288 N 
ATOM      6  C   UNL     1       1.280  -1.977  -0.339  0.00  0.00    +0.307 C 
ATOM      7  O   UNL     1       2.360  -2.455  -0.626  0.00  0.00    -0.252 OA
ATOM      8  N   UNL     1       1.194  -0.659  -0.117  0.00  0.00    -0.262 N 
ATOM      9  C   UNL     1       2.415   0.143  -0.232  0.00  0.00    +0.139 C 
ATOM     10  H   UNL     1       0.292  -3.740  -0.429  0.00  0.00    +0.151 HD
ENDROOT
BRANCH   4  11
ATOM     11  C   UNL     1      -1.598  -2.883   1.332  0.00  0.00    -0.023 A 
ATOM     12  C   UNL     1      -0.756  -3.054   2.416  0.00  0.00    +0.006 A 
ATOM     13  C   UNL     1      -1.218  -3.683   3.557  0.00  0.00    +0.000 A 
ATOM     14  C   UNL     1      -2.521  -4.142   3.615  0.00  0.00    +0.000 A 
ATOM     15  C   UNL     1      -3.362  -3.970   2.531  0.00  0.00    +0.000 A 
ATOM     16  C   UNL     1      -2.902  -3.337   1.392  0.00  0.00    +0.006 A 
ENDBRANCH   4  11
BRANCH   3  17
ATOM     17  C   UNL     1      -2.330  -0.043   0.675  0.00  0.00    +0.339 C 
ATOM     18  O   UNL     1      -2.332   1.159   0.869  0.00  0.00    -0.245 OA
BRANCH  17  19
ATOM     19  O   UNL     1      -3.477  -0.745   0.786  0.00  0.00    -0.465 OA
ATOM     20  C   UNL     1      -4.655  -0.015   1.133  0.00  0.00    +0.280 C 
ENDBRANCH  17  19
ENDBRANCH   3  17
TORSDOF 3
