REMARK  Name = ZINC08300271
REMARK  4 active torsions:
REMARK  status: ('A' for Active; 'I' for Inactive)
REMARK    1  A    between atoms: C_4  and  S_7
REMARK    2  A    between atoms: S_7  and  N_10
REMARK    3  A    between atoms: C_21  and  C_26
REMARK    4  A    between atoms: C_30  and  C_32
REMARK                            x       y       z     vdW  Elec       q    Type
REMARK                         _______ _______ _______ _____ _____    ______ ____
ROOT
ATOM      1  N   UNL     1      -1.720   4.907   2.142  0.00  0.00    -0.176 NA
ATOM      2  C   UNL     1      -1.469   6.197   1.487  0.00  0.00    +0.114 C 
ATOM      3  C   UNL     1      -1.358   6.010  -0.020  0.00  0.00    +0.025 C 
ATOM      4  C   UNL     1      -2.540   5.205  -0.562  0.00  0.00    +0.017 C 
ATOM      5  C   UNL     1      -2.553   3.840   0.129  0.00  0.00    +0.052 C 
ATOM      6  C   UNL     1      -2.809   4.059   1.630  0.00  0.00    +0.119 C 
ATOM      7  C   UNL     1      -1.200   3.182  -0.015  0.00  0.00    +0.026 A 
ATOM      8  C   UNL     1      -1.162   1.822   0.038  0.00  0.00    +0.022 A 
ATOM      9  C   UNL     1       0.056   1.140   0.029  0.00  0.00    +0.015 A 
ATOM     10  C   UNL     1       1.229   1.875  -0.036  0.00  0.00    +0.047 A 
ATOM     11  C   UNL     1       1.143   3.283  -0.114  0.00  0.00    +0.259 A 
ATOM     12  O   UNL     1       2.165   3.950  -0.136  0.00  0.00    -0.267 OA
ATOM     13  N   UNL     1      -0.062   3.901  -0.163  0.00  0.00    -0.311 N 
ATOM     14  C   UNL     1      -0.054   5.342  -0.416  0.00  0.00    +0.130 C 
ENDROOT
BRANCH  10  15
ATOM     15  C   UNL     1       2.546   1.198  -0.026  0.00  0.00    -0.012 A 
ATOM     16  C   UNL     1       3.368   1.248  -1.152  0.00  0.00    +0.009 A 
ATOM     17  C   UNL     1       4.594   0.616  -1.136  0.00  0.00    +0.001 A 
ATOM     18  C   UNL     1       5.010  -0.067  -0.006  0.00  0.00    +0.012 A 
ATOM     19  C   UNL     1       4.199  -0.119   1.113  0.00  0.00    +0.055 A 
ATOM     20  C   UNL     1       2.973   0.513   1.111  0.00  0.00    +0.021 A 
BRANCH  19  21
ATOM     21  C   UNL     1       4.659  -0.865   2.340  0.00  0.00    +0.417 C 
ATOM     22  F   UNL     1       5.924  -1.413   2.106  0.00  0.00    -0.166 F 
ATOM     23  F   UNL     1       4.726   0.017   3.424  0.00  0.00    -0.166 F 
ATOM     24  F   UNL     1       3.753  -1.891   2.629  0.00  0.00    -0.166 F 
ENDBRANCH  19  21
ENDBRANCH  10  15
BRANCH   1  25
ATOM     25  S   UNL     1      -0.799   4.418   3.428  0.00  0.00    +0.061 S 
ATOM     26  O   UNL     1      -0.809   2.997   3.417  0.00  0.00    -0.153 OA
ATOM     27  O   UNL     1       0.404   5.171   3.376  0.00  0.00    -0.153 OA
BRANCH  25  31
ATOM     28  C   UNL     1      -2.966   5.697   7.191  0.00  0.00    +0.000 A 
ATOM     29  C   UNL     1      -3.134   4.417   6.698  0.00  0.00    +0.002 A 
ATOM     30  C   UNL     1      -2.472   4.026   5.549  0.00  0.00    +0.028 A 
ATOM     31  C   UNL     1      -1.643   4.916   4.892  0.00  0.00    +0.105 A 
ATOM     32  C   UNL     1      -1.471   6.195   5.388  0.00  0.00    +0.028 A 
ATOM     33  C   UNL     1      -2.136   6.587   6.535  0.00  0.00    +0.002 A 
ENDBRANCH  25  31
ENDBRANCH   1  25
TORSDOF 4
