REMARK  Name = ZINC39578649
REMARK  4 active torsions:
REMARK  status: ('A' for Active; 'I' for Inactive)
REMARK    1  A    between atoms: C_5  and  N_7
REMARK    2  A    between atoms: N_7  and  S_8
REMARK    3  A    between atoms: S_8  and  C_11
REMARK    4  A    between atoms: CA_14  and  C_17
REMARK                            x       y       z     vdW  Elec       q    Type
REMARK                         _______ _______ _______ _____ _____    ______ ____
ROOT
ATOM      1  S   UNL     1      -0.183  -2.929  -0.012  0.00  0.00    +0.074 S 
ATOM      2  O   UNL     1      -0.792  -2.604   1.230  0.00  0.00    -0.153 OA
ATOM      3  O   UNL     1      -0.816  -2.591  -1.239  0.00  0.00    -0.153 OA
ENDROOT
BRANCH   1   4
ATOM      4  C   UNL     1       0.318  -4.672  -0.026  0.00  0.00    +0.217 C 
ATOM      5  C   UNL     1      -0.897  -5.579   0.039  0.00  0.00    +0.039 C 
ATOM      6  CA  UNL     1      -0.749  -6.277   1.182  0.00  0.00    +0.127 C 
ATOM      7  N   UNL     1       0.392  -5.930   1.841  0.00  0.00    -0.357 N 
ATOM      8  C   UNL     1       1.080  -5.020   1.237  0.00  0.00    +0.088 C 
ATOM      9  H   UNL     1       0.662  -6.329   2.683  0.00  0.00    +0.165 HD
BRANCH   6  10
ATOM     10  C   UNL     1      -1.706  -7.291   1.661  0.00  0.00    +0.402 C 
ATOM     11  O   UNL     1      -2.708  -7.543   1.007  0.00  0.00    -0.239 OA
ATOM     12  OXT UNL     1      -1.497  -7.881   2.712  0.00  0.00    -0.239 OA
ENDBRANCH   6  10
ENDBRANCH   1   4
BRANCH   1  13
ATOM     13  N   UNL     1       1.238  -2.078  -0.021  0.00  0.00    -0.101 NA
BRANCH  13  18
ATOM     14  C   UNL     1      -0.017   1.377   0.010  0.00  0.00    +0.002 A 
ATOM     15  C   UNL     1       1.171   2.086   0.002  0.00  0.00    +0.001 A 
ATOM     16  C   UNL     1       2.380   1.416  -0.013  0.00  0.00    +0.016 A 
ATOM     17  C   UNL     1       2.406   0.035  -0.021  0.00  0.00    +0.038 A 
ATOM     18  C   UNL     1       1.215  -0.681  -0.013  0.00  0.00    +0.087 A 
ATOM     19  C   UNL     1       0.002  -0.004   0.002  0.00  0.00    +0.028 A 
ATOM     20  I   UNL     1       4.239  -0.979  -0.044  0.00  0.00    -0.042 I 
ENDBRANCH  13  18
ENDBRANCH   1  13
TORSDOF 4
