REMARK  Name = ZINC15881782
REMARK  4 active torsions:
REMARK  status: ('A' for Active; 'I' for Inactive)
REMARK    1  A    between atoms: C_4  and  C_7
REMARK    2  A    between atoms: C_15  and  S_18
REMARK    3  A    between atoms: S_18  and  C_19
REMARK    4  A    between atoms: C_19  and  C_20
REMARK                            x       y       z     vdW  Elec       q    Type
REMARK                         _______ _______ _______ _____ _____    ______ ____
ROOT
ATOM      1  C   UNL     1      -7.888  11.114   0.135  0.00  0.00    +0.064 A 
ATOM      2  C   UNL     1      -8.925  11.993   0.150  0.00  0.00    +0.097 A 
ATOM      3  C   UNL     1      -8.668  13.381   0.155  0.00  0.00    +0.253 A 
ATOM      4  O   UNL     1      -9.595  14.173   0.168  0.00  0.00    -0.268 OA
ATOM      5  N   UNL     1      -7.398  13.830   0.145  0.00  0.00    -0.291 N 
ATOM      6  H   UNL     1      -7.222  14.784   0.148  0.00  0.00    +0.172 HD
ATOM      7  C   UNL     1      -6.343  12.933   0.131  0.00  0.00    +0.237 A 
ATOM      8  N   UNL     1      -6.586  11.584   0.120  0.00  0.00    -0.256 N 
ATOM      9  C   UNL     1      -5.379  10.939   0.111  0.00  0.00    +0.198 A 
ATOM     10  N   UNL     1      -4.434  11.847   0.106  0.00  0.00    -0.120 NA
ATOM     11  N   UNL     1      -5.043  13.109   0.119  0.00  0.00    -0.109 NA
ENDROOT
BRANCH   1  15
ATOM     12  C   UNL     1      -8.639   6.934   0.120  0.00  0.00    +0.000 A 
ATOM     13  C   UNL     1      -9.027   7.708  -0.959  0.00  0.00    +0.001 A 
ATOM     14  C   UNL     1      -8.787   9.066  -0.961  0.00  0.00    +0.010 A 
ATOM     15  C   UNL     1      -8.149   9.660   0.130  0.00  0.00    -0.001 A 
ATOM     16  C   UNL     1      -7.756   8.873   1.214  0.00  0.00    +0.010 A 
ATOM     17  C   UNL     1      -8.008   7.517   1.205  0.00  0.00    +0.001 A 
ENDBRANCH   1  15
BRANCH   9  18
ATOM     18  S   UNL     1      -5.138   9.193   0.099  0.00  0.00    -0.076 S 
BRANCH  18  19
ATOM     19  C   UNL     1      -3.334   9.000   0.081  0.00  0.00    +0.173 C 
BRANCH  19  20
ATOM     20  C   UNL     1      -2.987   7.534   0.069  0.00  0.00    +0.229 C 
ATOM     21  O   UNL     1      -3.869   6.701   0.073  0.00  0.00    -0.275 OA
ATOM     22  N   UNL     1      -1.695   7.147   0.055  0.00  0.00    -0.264 N 
ATOM     23  C   UNL     1      -1.376   5.799   0.044  0.00  0.00    +0.165 A 
ATOM     24  N   UNL     1      -0.191   5.234   0.030  0.00  0.00    -0.225 NA
ATOM     25  C   UNL     1      -0.026   3.894   0.022  0.00  0.00    +0.080 A 
ATOM     26  C   UNL     1       1.185   3.163   0.007  0.00  0.00    +0.029 A 
ATOM     27  C   UNL     1       1.175   1.793   0.001  0.00  0.00    +0.002 A 
ATOM     28  C   UNL     1      -0.013   1.076   0.008  0.00  0.00    +0.001 A 
ATOM     29  C   UNL     1      -1.215   1.758   0.017  0.00  0.00    +0.017 A 
ATOM     30  C   UNL     1      -1.216   3.131   0.029  0.00  0.00    +0.041 A 
ATOM     31  S   UNL     1      -2.471   4.387   0.048  0.00  0.00    -0.052 S 
ATOM     32  H   UNL     1      -0.990   7.813   0.052  0.00  0.00    +0.157 HD
ENDBRANCH  19  20
ENDBRANCH  18  19
ENDBRANCH   9  18
TORSDOF 4
