REMARK  Name = ZINC21238829
REMARK  12 active torsions:
REMARK  status: ('A' for Active; 'I' for Inactive)
REMARK    1  A    between atoms: C_1  and  C_2
REMARK    2  A    between atoms: C_2  and  O_3
REMARK    3  A    between atoms: O_3  and  C_4
REMARK    4  A    between atoms: C_6  and  C_11
REMARK    5  A    between atoms: C_9  and  O_10
REMARK    6  A    between atoms: C_22  and  C_25
REMARK    7  A    between atoms: C_28  and  O_33
REMARK    8  A    between atoms: C_29  and  O_31
REMARK    9  A    between atoms: O_31  and  C_32
REMARK   10  A    between atoms: O_33  and  C_34
REMARK   11  A    between atoms: C_34  and  C_35
REMARK   12  A    between atoms: C_34  and  C_36
REMARK                            x       y       z     vdW  Elec       q    Type
REMARK                         _______ _______ _______ _____ _____    ______ ____
ROOT
ATOM      1  C   UNL     1       3.913   0.275  -1.064  0.00  0.00    +0.063 C 
ATOM      2  C   UNL     1       3.096  -0.707  -0.222  0.00  0.00    +0.109 C 
ATOM      3  C   UNL     1       1.676  -0.212  -0.127  0.00  0.00    +0.218 C 
ATOM      4  O   UNL     1       0.761  -1.005  -0.081  0.00  0.00    -0.275 OA
ATOM      5  N   UNL     1       1.422   1.108  -0.093  0.00  0.00    -0.289 N 
ATOM      6  C   UNL     1       2.440   2.027  -0.118  0.00  0.00    +0.018 C 
ATOM      7  C   UNL     1       3.661   1.683  -0.579  0.00  0.00    +0.020 C 
ATOM      8  C   UNL     1       4.715   2.611  -0.622  0.00  0.00    +0.162 C 
ATOM      9  O   UNL     1       5.803   2.261  -1.033  0.00  0.00    -0.292 OA
ATOM     10  C   UNL     1       4.517   4.031  -0.165  0.00  0.00    +0.088 C 
ATOM     11  C   UNL     1       3.050   4.421  -0.373  0.00  0.00    +0.032 C 
ATOM     12  C   UNL     1       2.168   3.424   0.382  0.00  0.00    +0.059 C 
ATOM     13  H   UNL     1       0.384   1.467  -0.043  0.00  0.00    +0.155 HD
ENDROOT
BRANCH   1  16
ATOM     14  C   UNL     1       4.060  -0.303  -4.795  0.00  0.00    +0.162 A 
ATOM     15  C   UNL     1       4.436  -0.198  -3.465  0.00  0.00    +0.053 A 
ATOM     16  C   UNL     1       3.503   0.160  -2.510  0.00  0.00    -0.036 A 
ATOM     17  C   UNL     1       2.193   0.407  -2.876  0.00  0.00    +0.008 A 
ATOM     18  C   UNL     1       1.813   0.309  -4.202  0.00  0.00    +0.049 A 
ATOM     19  C   UNL     1       2.743  -0.049  -5.165  0.00  0.00    +0.158 A 
BRANCH  19  20
ATOM     20  O   UNL     1       2.369  -0.152  -6.468  0.00  0.00    -0.503 OA
ATOM     21  H   UNL     1       1.327   0.049  -6.759  0.00  0.00    +0.292 HD
ENDBRANCH  19  20
BRANCH  14  22
ATOM     22  O   UNL     1       4.976  -0.655  -5.736  0.00  0.00    -0.489 OA
BRANCH  22  24
ATOM     23  C   UNL     1       7.190  -1.282  -6.475  0.00  0.00    +0.048 C 
ATOM     24  C   UNL     1       6.309  -0.902  -5.284  0.00  0.00    +0.226 C 
ENDBRANCH  22  24
ENDBRANCH  14  22
ENDBRANCH   1  16
BRANCH  11  25
ATOM     25  C   UNL     1       2.815   5.810   0.161  0.00  0.00    -0.040 A 
ATOM     26  C   UNL     1       3.045   6.084   1.497  0.00  0.00    +0.008 A 
ATOM     27  C   UNL     1       2.832   7.357   1.992  0.00  0.00    +0.050 A 
ATOM     28  C   UNL     1       2.386   8.362   1.149  0.00  0.00    +0.162 A 
ATOM     29  C   UNL     1       2.153   8.087  -0.195  0.00  0.00    +0.162 A 
ATOM     30  C   UNL     1       2.375   6.810  -0.686  0.00  0.00    +0.053 A 
BRANCH  29  31
ATOM     31  O   UNL     1       1.715   9.070  -1.026  0.00  0.00    -0.491 OA
ATOM     32  C   UNL     1       1.498   8.715  -2.393  0.00  0.00    +0.277 C 
ENDBRANCH  29  31
BRANCH  28  33
ATOM     33  O   UNL     1       2.176   9.615   1.634  0.00  0.00    -0.486 OA
BRANCH  33  34
ATOM     34  C   UNL     1       2.320   9.797   3.044  0.00  0.00    +0.167 C 
ATOM     35  C   UNL     1       3.793  10.041   3.378  0.00  0.00    +0.051 C 
ATOM     36  C   UNL     1       1.490  11.002   3.490  0.00  0.00    +0.051 C 
ENDBRANCH  33  34
ENDBRANCH  28  33
ENDBRANCH  11  25
TORSDOF 8
