REMARK  Name = ZINC33513670
REMARK  4 active torsions:
REMARK  status: ('A' for Active; 'I' for Inactive)
REMARK    1  A    between atoms: C_4  and  C_7
REMARK    2  A    between atoms: C_7  and  O_8
REMARK    3  A    between atoms: O_8  and  C_9
REMARK    4  A    between atoms: C_12  and  C_15
REMARK                            x       y       z     vdW  Elec       q    Type
REMARK                         _______ _______ _______ _____ _____    ______ ____
ROOT
ATOM      1  C   UNL     1      -0.018   1.504   0.011  0.00  0.00    +0.090 C 
ATOM      2  C   UNL     1       1.371   2.068   0.001  0.00  0.00    +0.042 A 
ATOM      3  C   UNL     1       1.595   3.382   0.362  0.00  0.00    +0.126 A 
ATOM      4  N   UNL     1       2.877   3.862   0.338  0.00  0.00    -0.208 NA
ATOM      5  H   UNL     1       4.529   1.159  -0.682  0.00  0.00    +0.169 HD
ATOM      6  C   UNL     1       3.892   3.061  -0.035  0.00  0.00    +0.180 A 
ATOM      7  S   UNL     1       5.486   3.686  -0.063  0.00  0.00    -0.011 S 
ATOM      8  N   UNL     1       3.682   1.795  -0.382  0.00  0.00    -0.322 N 
ATOM      9  C   UNL     1       2.459   1.276  -0.374  0.00  0.00    +0.110 A 
ATOM     10  N   UNL     1       2.252  -0.040  -0.732  0.00  0.00    -0.304 N 
ATOM     11  C   UNL     1       1.104  -0.690  -0.365  0.00  0.00    +0.017 C 
ATOM     12  C   UNL     1       0.002  -0.004   0.003  0.00  0.00    +0.024 C 
ATOM     13  C   UNL     1      -1.171  -0.676   0.393  0.00  0.00    +0.162 C 
ATOM     14  O   UNL     1      -2.151  -0.029   0.707  0.00  0.00    -0.292 OA
ATOM     15  C   UNL     1      -1.237  -2.178   0.430  0.00  0.00    +0.080 C 
ATOM     16  C   UNL     1       0.167  -2.731   0.698  0.00  0.00    +0.014 C 
ATOM     17  C   UNL     1       1.110  -2.200  -0.383  0.00  0.00    +0.051 C 
ATOM     18  N   UNL     1       0.552   4.191   0.738  0.00  0.00    -0.343 N 
ATOM     19  H   UNL     1       3.012  -0.577  -1.318  0.00  0.00    +0.153 HD
ATOM     20  H   UNL     1      -0.474   3.795   0.754  0.00  0.00    +0.144 HD
ATOM     21  H   UNL     1       0.742   5.236   1.024  0.00  0.00    +0.144 HD
ENDROOT
BRANCH   1  25
ATOM     22  C   UNL     1      -2.118   2.892  -3.443  0.00  0.00    +0.121 A 
ATOM     23  C   UNL     1      -2.574   3.219  -2.174  0.00  0.00    +0.046 A 
ATOM     24  C   UNL     1      -1.894   2.769  -1.059  0.00  0.00    +0.008 A 
ATOM     25  C   UNL     1      -0.759   1.993  -1.207  0.00  0.00    -0.035 A 
ATOM     26  C   UNL     1      -0.299   1.670  -2.470  0.00  0.00    +0.008 A 
ATOM     27  C   UNL     1      -0.979   2.113  -3.588  0.00  0.00    +0.046 A 
BRANCH  22  28
ATOM     28  O   UNL     1      -2.786   3.333  -4.541  0.00  0.00    -0.487 OA
BRANCH  28  29
ATOM     29  C   UNL     1      -2.259   2.958  -5.815  0.00  0.00    +0.264 C 
BRANCH  29  33
ATOM     30  C   UNL     1      -4.712   4.589  -8.908  0.00  0.00    +0.000 A 
ATOM     31  C   UNL     1      -3.642   5.315  -8.420  0.00  0.00    +0.000 A 
ATOM     32  C   UNL     1      -2.848   4.787  -7.419  0.00  0.00    +0.007 A 
ATOM     33  C   UNL     1      -3.125   3.533  -6.906  0.00  0.00    -0.010 A 
ATOM     34  C   UNL     1      -4.193   2.806  -7.398  0.00  0.00    +0.007 A 
ATOM     35  C   UNL     1      -4.990   3.336  -8.395  0.00  0.00    +0.000 A 
ENDBRANCH  29  33
ENDBRANCH  28  29
ENDBRANCH  22  28
ENDBRANCH   1  25
TORSDOF 4
