REMARK  Name = ZINC12883384
REMARK  5 active torsions:
REMARK  status: ('A' for Active; 'I' for Inactive)
REMARK    1  A    between atoms: C_2  and  C_3
REMARK    2  A    between atoms: C_3  and  O_4
REMARK    3  A    between atoms: O_4  and  C_5
REMARK    4  A    between atoms: C_9  and  C_11
REMARK    5  A    between atoms: C_11  and  C_13
REMARK                            x       y       z     vdW  Elec       q    Type
REMARK                         _______ _______ _______ _____ _____    ______ ____
ROOT
ATOM      1  C   UNL     1       3.081   0.805  -1.264  0.00  0.00    +0.066 C 
ATOM      2  C   UNL     1       4.407   1.439  -0.780  0.00  0.00    -0.055 C 
ATOM      3  C   UNL     1       5.582   0.876  -1.597  0.00  0.00    -0.016 C 
ATOM      4  C   UNL     1       6.071  -0.363  -0.822  0.00  0.00    -0.020 C 
ATOM      5  C   UNL     1       5.113  -0.484   0.390  0.00  0.00    -0.076 C 
ATOM      6  C   UNL     1       3.230   0.809   1.175  0.00  0.00    +0.060 C 
ATOM      7  C   UNL     1       2.236   0.753   0.020  0.00  0.00    +0.085 C 
ATOM      8  C   UNL     1       1.387  -0.486   0.066  0.00  0.00    -0.011 A 
ATOM      9  C   UNL     1       1.674  -1.833   0.055  0.00  0.00    +0.006 A 
ATOM     10  C   UNL     1       0.649  -2.760   0.111  0.00  0.00    +0.000 A 
ATOM     11  C   UNL     1      -0.664  -2.331   0.177  0.00  0.00    +0.002 A 
ATOM     12  C   UNL     1      -0.957  -0.983   0.188  0.00  0.00    +0.023 A 
ATOM     13  C   UNL     1       0.070  -0.043   0.132  0.00  0.00    +0.038 A 
ATOM     14  N   UNL     1       0.029   1.353   0.132  0.00  0.00    -0.285 N 
ATOM     15  C   UNL     1       1.259   1.897   0.068  0.00  0.00    +0.228 C 
ATOM     16  O   UNL     1       1.527   3.080   0.052  0.00  0.00    -0.275 OA
ATOM     17  C   UNL     1       2.959   1.983   2.077  0.00  0.00    -0.027 A 
ATOM     18  C   UNL     1       2.929   3.344   1.872  0.00  0.00    +0.004 A 
ATOM     19  C   UNL     1       2.641   4.196   2.923  0.00  0.00    +0.000 A 
ATOM     20  C   UNL     1       2.384   3.677   4.179  0.00  0.00    +0.002 A 
ATOM     21  C   UNL     1       2.414   2.314   4.389  0.00  0.00    +0.023 A 
ATOM     22  C   UNL     1       2.704   1.449   3.336  0.00  0.00    +0.036 A 
ATOM     23  N   UNL     1       2.792   0.057   3.297  0.00  0.00    -0.286 N 
ATOM     24  C   UNL     1       3.097  -0.399   2.068  0.00  0.00    +0.212 C 
ATOM     25  O   UNL     1       3.239  -1.559   1.742  0.00  0.00    -0.277 OA
ATOM     26  H   UNL     1      -0.791   1.870   0.168  0.00  0.00    +0.155 HD
ATOM     27  H   UNL     1       2.651  -0.516   4.067  0.00  0.00    +0.155 HD
ATOM     28  N   UNL     1       4.560   0.874   0.550  0.00  0.00    +0.395 N 
ATOM     29  H   UNL     1       5.190   1.451   1.119  0.00  0.00    -0.079 HD
ENDROOT
BRANCH   1  30
ATOM     30  C   UNL     1       3.319  -0.583  -1.802  0.00  0.00    +0.166 C 
ATOM     31  O   UNL     1       4.314  -1.196  -1.478  0.00  0.00    -0.292 OA
BRANCH  30  36
ATOM     32  C   UNL     1       1.639  -3.046  -4.083  0.00  0.00    +0.122 A 
ATOM     33  C   UNL     1       0.502  -2.338  -4.449  0.00  0.00    +0.046 A 
ATOM     34  C   UNL     1       0.284  -1.065  -3.954  0.00  0.00    +0.004 A 
ATOM     35  C   UNL     1       1.195  -0.489  -3.094  0.00  0.00    +0.011 A 
ATOM     36  C   UNL     1       2.344  -1.194  -2.719  0.00  0.00    +0.021 A 
ATOM     37  C   UNL     1       2.564  -2.478  -3.225  0.00  0.00    +0.057 A 
BRANCH  32  38
ATOM     38  O   UNL     1       1.847  -4.297  -4.574  0.00  0.00    -0.488 OA
BRANCH  38  39
ATOM     39  C   UNL     1       0.855  -4.820  -5.459  0.00  0.00    +0.256 C 
BRANCH  39  41
ATOM     40  C   UNL     1       0.365  -7.169  -5.907  0.00  0.00    +0.007 C 
ATOM     41  C   UNL     1       1.252  -6.206  -5.897  0.00  0.00    +0.006 C 
ENDBRANCH  39  41
ENDBRANCH  38  39
ENDBRANCH  32  38
ENDBRANCH  30  36
ENDBRANCH   1  30
TORSDOF 5
