REMARK  Name = ZINC33171284
REMARK  8 active torsions:
REMARK  status: ('A' for Active; 'I' for Inactive)
REMARK    1  A    between atoms: C_1  and  C_2
REMARK    2  A    between atoms: C_5  and  C_33
REMARK    3  A    between atoms: C_6  and  C_8
REMARK    4  A    between atoms: C_8  and  N_9
REMARK    5  A    between atoms: C_12  and  C_15
REMARK    6  A    between atoms: C_15  and  N_16
REMARK    7  A    between atoms: N_16  and  S_17
REMARK    8  A    between atoms: S_17  and  C_20
REMARK                            x       y       z     vdW  Elec       q    Type
REMARK                         _______ _______ _______ _____ _____    ______ ____
ROOT
ATOM      1  N   UNL     1      -0.971   1.861   1.297  0.00  0.00    -0.190 NA
ATOM      2  H   UNL     1      -1.567   2.779   1.181  0.00  0.00    +0.148 HD
ENDROOT
BRANCH   1   3
ATOM      3  S   UNL     1      -0.708   1.254   2.815  0.00  0.00    +0.058 S 
ATOM      4  O   UNL     1      -1.531   2.001   3.700  0.00  0.00    -0.153 OA
ATOM      5  O   UNL     1      -0.793  -0.160   2.707  0.00  0.00    -0.153 OA
BRANCH   3   6
ATOM      6  C   UNL     1       0.960   1.627   3.243  0.00  0.00    +0.106 A 
ATOM      7  C   UNL     1       1.970   0.730   2.939  0.00  0.00    +0.032 A 
ATOM      8  C   UNL     1       3.283   1.004   3.270  0.00  0.00    +0.048 A 
ATOM      9  C   UNL     1       3.604   2.183   3.924  0.00  0.00    +0.132 A 
ATOM     10  C   UNL     1       2.574   3.097   4.221  0.00  0.00    +0.064 A 
ATOM     11  C   UNL     1       1.259   2.812   3.888  0.00  0.00    +0.043 A 
ATOM     12  C   UNL     1       2.983   4.354   4.869  0.00  0.00    +0.177 A 
ATOM     13  C   UNL     1       4.327   4.675   4.916  0.00  0.00    +0.056 A 
ATOM     14  C   UNL     1       4.364   5.891   5.583  0.00  0.00    +0.164 A 
ATOM     15  N   UNL     1       3.120   6.192   5.867  0.00  0.00    -0.086 NA
ATOM     16  O   UNL     1       2.342   5.342   5.472  0.00  0.00    -0.354 OA
ATOM     17  C   UNL     1       5.373   3.782   4.322  0.00  0.00    +0.270 C 
ATOM     18  O   UNL     1       4.882   2.438   4.295  0.00  0.00    -0.486 OA
ENDBRANCH   3   6
ENDBRANCH   1   3
BRANCH   1  19
ATOM     19  C   UNL     1      -0.242   1.312   0.152  0.00  0.00    +0.109 C 
BRANCH  19  23
ATOM     20  N   UNL     1      -2.130   1.080  -3.676  0.00  0.00    +0.382 N 
ATOM     21  C   UNL     1      -0.796   1.692  -3.639  0.00  0.00    -0.078 C 
ATOM     22  C   UNL     1      -0.085   1.293  -2.344  0.00  0.00    -0.014 C 
ATOM     23  C   UNL     1      -0.916   1.762  -1.146  0.00  0.00    +0.001 C 
ATOM     24  C   UNL     1      -2.316   1.148  -1.234  0.00  0.00    -0.014 C 
ATOM     25  C   UNL     1      -2.962   1.552  -2.562  0.00  0.00    -0.078 C 
ATOM     26  H   UNL     1      -2.003  -0.007  -3.563  0.00  0.00    -0.081 HD
BRANCH  20  27
ATOM     27  C   UNL     1      -2.787   1.329  -4.966  0.00  0.00    -0.043 C 
BRANCH  27  33
ATOM     28  C   UNL     1      -7.727   0.524  -4.985  0.00  0.00    +0.044 C 
ATOM     29  C   UNL     1      -6.319   0.006  -5.132  0.00  0.00    -0.050 A 
ATOM     30  C   UNL     1      -6.101  -1.331  -5.412  0.00  0.00    +0.003 A 
ATOM     31  C   UNL     1      -4.810  -1.806  -5.546  0.00  0.00    +0.004 A 
ATOM     32  C   UNL     1      -3.738  -0.944  -5.408  0.00  0.00    -0.049 A 
ATOM     33  C   UNL     1      -3.956   0.390  -5.123  0.00  0.00    -0.061 A 
ATOM     34  C   UNL     1      -5.247   0.866  -4.987  0.00  0.00    +0.005 A 
ATOM     35  C   UNL     1      -2.330  -1.461  -5.561  0.00  0.00    +0.044 C 
ENDBRANCH  27  33
ENDBRANCH  20  27
ENDBRANCH  19  23
ENDBRANCH   1  19
TORSDOF 6
