REMARK  Name = ZINC39600882
REMARK  9 active torsions:
REMARK  status: ('A' for Active; 'I' for Inactive)
REMARK    1  A    between atoms: C_1  and  C_2
REMARK    2  A    between atoms: C_2  and  C_3
REMARK    3  A    between atoms: C_3  and  C_4
REMARK    4  A    between atoms: C_4  and  C_5
REMARK    5  A    between atoms: C_5  and  C_7
REMARK    6  A    between atoms: C_5  and  C_8
REMARK    7  A    between atoms: C_12  and  C_21
REMARK    8  A    between atoms: N_23  and  C_24
REMARK    9  A    between atoms: C_24  and  C_25
REMARK                            x       y       z     vdW  Elec       q    Type
REMARK                         _______ _______ _______ _____ _____    ______ ____
ROOT
ATOM      1  C   UNL     1      -2.792  -4.252  -0.097  0.00  0.00    +0.218 C 
ATOM      2  O   UNL     1      -1.754  -4.861  -0.246  0.00  0.00    -0.275 OA
ATOM      3  N   UNL     1      -3.970  -4.906  -0.143  0.00  0.00    -0.300 N 
ATOM      4  C   UNL     1      -5.331  -4.339   0.009  0.00  0.00    +0.121 C 
ATOM      5  C   UNL     1      -6.189  -5.099  -1.027  0.00  0.00    +0.100 C 
ATOM      6  C   UNL     1      -5.440  -6.422  -1.261  0.00  0.00    -0.004 C 
ATOM      7  C   UNL     1      -4.197  -6.355  -0.362  0.00  0.00    +0.115 C 
ATOM      8  C   UNL     1      -5.021  -6.541  -2.723  0.00  0.00    -0.010 C 
ATOM      9  C   UNL     1      -4.330  -7.889  -2.943  0.00  0.00    -0.082 C 
ATOM     10  N   UNL     1      -5.249  -8.977  -2.587  0.00  0.00    +0.379 N 
ATOM     11  C   UNL     1      -5.574  -8.910  -1.157  0.00  0.00    -0.082 C 
ATOM     12  C   UNL     1      -6.318  -7.604  -0.861  0.00  0.00    -0.010 C 
ATOM     13  H   UNL     1      -6.097  -8.889  -3.128  0.00  0.00    -0.086 HD
ATOM     14  H   UNL     1      -4.814  -9.864  -2.790  0.00  0.00    -0.086 HD
ENDROOT
BRANCH   5  15
ATOM     15  C   UNL     1      -7.566  -5.363  -0.475  0.00  0.00    +0.218 C 
ATOM     16  O   UNL     1      -7.722  -5.520   0.718  0.00  0.00    -0.275 OA
ATOM     17  N   UNL     1      -8.624  -5.425  -1.307  0.00  0.00    -0.311 N 
ATOM     18  H   UNL     1      -8.500  -5.300  -2.261  0.00  0.00    +0.149 HD
BRANCH  17  19
ATOM     19  C   UNL     1      -9.963  -5.681  -0.771  0.00  0.00    +0.142 C 
BRANCH  19  20
ATOM     20  C   UNL     1     -10.961  -5.701  -1.900  0.00  0.00    +0.006 A 
ATOM     21  C   UNL     1     -11.738  -4.587  -2.155  0.00  0.00    +0.023 A 
ATOM     22  C   UNL     1     -12.654  -4.604  -3.191  0.00  0.00    +0.018 A 
ATOM     23  C   UNL     1     -12.794  -5.737  -3.973  0.00  0.00    +0.018 A 
ATOM     24  C   UNL     1     -12.018  -6.852  -3.718  0.00  0.00    +0.040 A 
ATOM     25  C   UNL     1     -11.097  -6.833  -2.685  0.00  0.00    +0.128 A 
ATOM     26  F   UNL     1     -10.334  -7.921  -2.439  0.00  0.00    -0.205 F 
ATOM     27 BR   UNL     1     -13.716  -3.079  -3.540  0.00  0.00    -0.050 Br
ENDBRANCH  19  20
ENDBRANCH  17  19
ENDBRANCH   5  15
BRANCH   1  28
ATOM     28  C   UNL     1      -2.766  -2.764   0.139  0.00  0.00    +0.072 C 
ATOM     29  C   UNL     1      -3.415  -2.450   1.488  0.00  0.00    +0.017 C 
BRANCH  28  30
ATOM     30  C   UNL     1      -1.316  -2.274   0.144  0.00  0.00    +0.012 C 
BRANCH  30  31
ATOM     31  C   UNL     1      -1.294  -0.749   0.259  0.00  0.00    +0.000 C 
BRANCH  31  33
ATOM     32  C   UNL     1       0.178   1.266   0.378  0.00  0.00    +0.004 C 
ATOM     33  C   UNL     1       0.156  -0.259   0.264  0.00  0.00    -0.003 C 
ENDBRANCH  31  33
ENDBRANCH  30  31
ENDBRANCH  28  30
ENDBRANCH   1  28
TORSDOF 7
