REMARK  Name = ZINC67582071
REMARK  7 active torsions:
REMARK  status: ('A' for Active; 'I' for Inactive)
REMARK    1  A    between atoms: C_1  and  C_2
REMARK    2  A    between atoms: N_4  and  C_5
REMARK    3  A    between atoms: C_5  and  C_6
REMARK    4  A    between atoms: C_6  and  N_7
REMARK    5  A    between atoms: C_13  and  C_16
REMARK    6  A    between atoms: C_16  and  C_18
REMARK    7  A    between atoms: C_16  and  O_25
REMARK                            x       y       z     vdW  Elec       q    Type
REMARK                         _______ _______ _______ _____ _____    ______ ____
ROOT
ATOM      1  N   UNL     1      -2.551  -4.153   0.003  0.00  0.00    -0.298 N 
ATOM      2  C   UNL     1      -3.709  -4.843   0.011  0.00  0.00    +0.302 C 
ATOM      3  O   UNL     1      -4.768  -4.253   0.117  0.00  0.00    -0.253 OA
ATOM      4  N   UNL     1      -3.694  -6.186  -0.098  0.00  0.00    -0.286 N 
ATOM      5  C   UNL     1      -2.423  -6.922  -0.109  0.00  0.00    +0.109 C 
ATOM      6  C   UNL     1      -2.382  -7.816  -1.353  0.00  0.00    +0.025 C 
ATOM      7  C   UNL     1      -3.625  -8.708  -1.375  0.00  0.00    +0.025 C 
ATOM      8  C   UNL     1      -4.880  -7.836  -1.449  0.00  0.00    +0.025 C 
ATOM      9  C   UNL     1      -4.949  -6.943  -0.201  0.00  0.00    +0.109 C 
ATOM     10  H   UNL     1      -1.705  -4.626  -0.007  0.00  0.00    +0.150 HD
ENDROOT
BRANCH   1  11
ATOM     11  C   UNL     1      -2.571  -2.688   0.010  0.00  0.00    +0.124 C 
BRANCH  11  12
ATOM     12  C   UNL     1      -1.136  -2.158  -0.002  0.00  0.00    +0.123 C 
BRANCH  12  16
ATOM     13  C   UNL     1      -0.019   1.503   0.003  0.00  0.00    +0.109 C 
ATOM     14  C   UNL     1       0.002  -0.004  -0.004  0.00  0.00    +0.210 C 
ATOM     15  O   UNL     1       1.060  -0.596  -0.017  0.00  0.00    -0.276 OA
ATOM     16  N   UNL     1      -1.156  -0.694   0.004  0.00  0.00    -0.314 N 
ATOM     17  H   UNL     1      -2.003  -0.220   0.015  0.00  0.00    +0.149 HD
ENDBRANCH  12  16
ENDBRANCH  11  12
ENDBRANCH   1  11
BRANCH   7  18
ATOM     18  C   UNL     1      -3.570  -9.627  -2.598  0.00  0.00    +0.148 C 
BRANCH  18  19
ATOM     19  C   UNL     1      -4.794 -10.506  -2.620  0.00  0.00    -0.019 A 
ATOM     20  C   UNL     1      -5.965 -10.045  -3.191  0.00  0.00    +0.007 A 
ATOM     21  C   UNL     1      -7.088 -10.851  -3.213  0.00  0.00    +0.020 A 
ATOM     22  C   UNL     1      -7.040 -12.119  -2.662  0.00  0.00    +0.041 A 
ATOM     23  C   UNL     1      -5.867 -12.580  -2.091  0.00  0.00    +0.020 A 
ATOM     24  C   UNL     1      -4.743 -11.776  -2.076  0.00  0.00    +0.007 A 
ATOM     25 CL   UNL     1      -8.450 -13.131  -2.688  0.00  0.00    -0.084 Cl
ENDBRANCH  18  19
BRANCH  18  26
ATOM     26  O   UNL     1      -3.530  -8.836  -3.787  0.00  0.00    -0.387 OA
ATOM     27  H   UNL     1      -4.295  -8.256  -3.900  0.00  0.00    +0.210 HD
ENDBRANCH  18  26
ENDBRANCH   7  18
TORSDOF 6
