REMARK  Name = ZINC06794244
REMARK  7 active torsions:
REMARK  status: ('A' for Active; 'I' for Inactive)
REMARK    1  A    between atoms: C_1  and  C_2
REMARK    2  A    between atoms: N_9  and  C_16
REMARK    3  A    between atoms: C_16  and  C_18
REMARK    4  A    between atoms: C_16  and  C_19
REMARK    5  A    between atoms: N_21  and  C_22
REMARK    6  A    between atoms: C_27  and  C_32
REMARK    7  A    between atoms: C_29  and  C_31
REMARK                            x       y       z     vdW  Elec       q    Type
REMARK                         _______ _______ _______ _____ _____    ______ ____
ROOT
ATOM      1  C   UNL     1      -2.939   0.220   2.648  0.00  0.00    +0.066 C 
ATOM      2  C   UNL     1      -1.880  -0.083   3.676  0.00  0.00    +0.045 A 
ATOM      3  C   UNL     1      -2.230  -0.537   4.899  0.00  0.00    +0.095 A 
ATOM      4  C   UNL     1      -1.211  -0.814   5.846  0.00  0.00    +0.274 A 
ATOM      5  O   UNL     1      -1.500  -1.225   6.959  0.00  0.00    -0.266 OA
ATOM      6  N   UNL     1       0.072  -0.629   5.505  0.00  0.00    -0.189 NA
ATOM      7  C   UNL     1       0.396  -0.181   4.309  0.00  0.00    +0.166 A 
ATOM      8  N   UNL     1      -0.560   0.098   3.377  0.00  0.00    -0.237 N 
ATOM      9  N   UNL     1       0.064   0.549   2.206  0.00  0.00    -0.266 N 
ATOM     10  C   UNL     1       1.438   0.569   2.389  0.00  0.00    +0.070 A 
ATOM     11  C   UNL     1       1.702   0.120   3.692  0.00  0.00    +0.044 A 
ATOM     12  C   UNL     1       3.016   0.039   4.149  0.00  0.00    +0.014 A 
ATOM     13  C   UNL     1       4.053   0.401   3.314  0.00  0.00    +0.001 A 
ATOM     14  C   UNL     1       3.792   0.844   2.028  0.00  0.00    +0.002 A 
ATOM     15  C   UNL     1       2.495   0.929   1.564  0.00  0.00    +0.028 A 
ENDROOT
BRANCH   9  16
ATOM     16  C   UNL     1      -0.631   0.944   0.979  0.00  0.00    +0.189 C 
ATOM     17  C   UNL     1      -0.034   0.189  -0.211  0.00  0.00    +0.042 C 
BRANCH  16  18
ATOM     18  C   UNL     1      -0.468   2.427   0.765  0.00  0.00    +0.238 C 
ATOM     19  O   UNL     1       0.165   3.089   1.560  0.00  0.00    -0.273 OA
ATOM     20  N   UNL     1      -1.027   3.018  -0.310  0.00  0.00    -0.310 N 
ATOM     21  H   UNL     1      -1.534   2.490  -0.946  0.00  0.00    +0.149 HD
BRANCH  20  22
ATOM     22  C   UNL     1      -0.869   4.460  -0.517  0.00  0.00    +0.076 C 
ATOM     23  C   UNL     1      -1.945   5.210   0.271  0.00  0.00    +0.022 C 
ATOM     24  C   UNL     1      -1.780   6.715   0.054  0.00  0.00    +0.002 C 
ATOM     25  C   UNL     1      -1.924   7.035  -1.435  0.00  0.00    +0.003 C 
ATOM     26  C   UNL     1      -0.848   6.285  -2.224  0.00  0.00    -0.009 C 
ATOM     27  C   UNL     1      -1.013   4.780  -2.007  0.00  0.00    +0.009 C 
ATOM     28  C   UNL     1      -2.397   4.343  -2.491  0.00  0.00    +0.009 C 
ATOM     29  C   UNL     1      -0.992   6.605  -3.713  0.00  0.00    +0.008 C 
ENDBRANCH  20  22
ENDBRANCH  16  18
ENDBRANCH   9  16
TORSDOF 3
