REMARK  Name = ZINC12382675
REMARK  9 active torsions:
REMARK  status: ('A' for Active; 'I' for Inactive)
REMARK    1  A    between atoms: C_1  and  C_2
REMARK    2  A    between atoms: C_2  and  C_3
REMARK    3  A    between atoms: C_2  and  O_4
REMARK    4  A    between atoms: O_4  and  C_5
REMARK    5  A    between atoms: C_5  and  C_7
REMARK    6  A    between atoms: C_10  and  C_11
REMARK    7  A    between atoms: C_17  and  N_33
REMARK    8  A    between atoms: C_18  and  C_31
REMARK    9  A    between atoms: C_22  and  C_25
REMARK                            x       y       z     vdW  Elec       q    Type
REMARK                         _______ _______ _______ _____ _____    ______ ____
ROOT
ATOM      1  C   UNL     1      -3.788  -2.755  -0.742  0.00  0.00    +0.118 C 
ATOM      2  C   UNL     1      -2.433  -3.009  -0.634  0.00  0.00    +0.080 A 
ATOM      3  C   UNL     1      -1.334  -2.074  -0.900  0.00  0.00    +0.024 A 
ATOM      4  C   UNL     1      -1.428  -0.790  -1.399  0.00  0.00    +0.021 C 
ATOM      5  C   UNL     1      -0.107  -2.801  -0.526  0.00  0.00    +0.069 A 
ATOM      6  C   UNL     1      -0.486  -4.059  -0.125  0.00  0.00    +0.149 A 
ATOM      7  N   UNL     1      -1.872  -4.215  -0.245  0.00  0.00    -0.267 N 
ATOM      8  C   UNL     1      -2.541  -5.370  -0.056  0.00  0.00    +0.251 C 
ATOM      9  O   UNL     1      -2.004  -6.277   0.544  0.00  0.00    -0.271 OA
ATOM     10  C   UNL     1      -3.943  -5.553  -0.574  0.00  0.00    +0.172 C 
ATOM     11  S   UNL     1      -4.906  -4.043  -0.274  0.00  0.00    -0.098 S 
ENDROOT
BRANCH   4  12
ATOM     12  C   UNL     1      -0.214  -0.058  -1.771  0.00  0.00    -0.006 A 
ATOM     13  C   UNL     1      -0.075   1.305  -1.456  0.00  0.00    +0.011 A 
ATOM     14  C   UNL     1       1.090   1.948  -1.830  0.00  0.00    +0.020 A 
ATOM     15  C   UNL     1       2.073   1.237  -2.497  0.00  0.00    +0.111 A 
ATOM     16  N   UNL     1       1.918  -0.043  -2.781  0.00  0.00    -0.263 NA
ATOM     17  C   UNL     1       0.830  -0.703  -2.448  0.00  0.00    +0.118 A 
ENDBRANCH   4  12
BRANCH  10  18
ATOM     18  C   UNL     1      -4.593  -6.712   0.138  0.00  0.00    -0.007 A 
ATOM     19  C   UNL     1      -5.041  -7.813  -0.577  0.00  0.00    +0.008 A 
ATOM     20  C   UNL     1      -5.632  -8.855   0.119  0.00  0.00    +0.020 A 
ATOM     21  C   UNL     1      -5.755  -8.764   1.493  0.00  0.00    +0.111 A 
ATOM     22  N   UNL     1      -5.317  -7.702   2.140  0.00  0.00    -0.263 NA
ATOM     23  C   UNL     1      -4.744  -6.694   1.511  0.00  0.00    +0.116 A 
ENDBRANCH  10  18
BRANCH   5  24
ATOM     24  N   UNL     1       1.188  -2.306  -0.568  0.00  0.00    -0.355 N 
ATOM     25  H   UNL     1       2.030  -2.944  -0.263  0.00  0.00    +0.142 HD
ATOM     26  H   UNL     1       1.372  -1.276  -0.906  0.00  0.00    +0.142 HD
ENDBRANCH   5  24
BRANCH   1  27
ATOM     27  C   UNL     1      -4.264  -1.508  -1.211  0.00  0.00    +0.348 C 
ATOM     28  O   UNL     1      -4.583  -0.640  -0.418  0.00  0.00    -0.244 OA
BRANCH  27  29
ATOM     29  O   UNL     1      -4.365  -1.279  -2.538  0.00  0.00    -0.458 OA
BRANCH  29  31
ATOM     30  C   UNL     1      -4.239   0.381  -4.290  0.00  0.00    +0.052 C 
ATOM     31  C   UNL     1      -4.853   0.003  -2.941  0.00  0.00    +0.171 C 
ATOM     32  C   UNL     1      -6.376  -0.050  -3.070  0.00  0.00    +0.052 C 
ENDBRANCH  29  31
ENDBRANCH  27  29
ENDBRANCH   1  27
BRANCH   6  33
ATOM     33  C   UNL     1       0.411  -5.071   0.345  0.00  0.00    +0.120 C 
ATOM     34  N   UNL     1       1.123  -5.875   0.718  0.00  0.00    -0.189 NA
ENDBRANCH   6  33
TORSDOF 7
