REMARK  Name = ZINC39684638
REMARK  11 active torsions:
REMARK  status: ('A' for Active; 'I' for Inactive)
REMARK    1  A    between atoms: C_1  and  C_2
REMARK    2  A    between atoms: C_2  and  C_4
REMARK    3  A    between atoms: C_2  and  N_8
REMARK    4  A    between atoms: C_4  and  C_5
REMARK    5  A    between atoms: C_4  and  C_6
REMARK    6  A    between atoms: C_4  and  C_7
REMARK    7  A    between atoms: C_9  and  C_11
REMARK    8  A    between atoms: C_22  and  C_24
REMARK    9  A    between atoms: C_30  and  O_32
REMARK   10  A    between atoms: O_32  and  C_33
REMARK   11  A    between atoms: C_33  and  C_34
REMARK                            x       y       z     vdW  Elec       q    Type
REMARK                         _______ _______ _______ _____ _____    ______ ____
ROOT
ATOM      1  C   UNL     1       0.712  -1.094  -3.598  0.00  0.00    +0.100 C 
ATOM      2  C   UNL     1       1.342  -2.483  -3.349  0.00  0.00    +0.121 C 
ATOM      3  N   UNL     1       0.333  -3.447  -3.848  0.00  0.00    -0.300 N 
ATOM      4  C   UNL     1      -0.202  -2.817  -5.079  0.00  0.00    +0.115 C 
ATOM      5  C   UNL     1      -0.298  -1.317  -4.737  0.00  0.00    -0.004 C 
ATOM      6  C   UNL     1       0.078  -0.473  -5.950  0.00  0.00    -0.010 C 
ATOM      7  C   UNL     1      -0.973  -0.667  -7.047  0.00  0.00    -0.082 C 
ATOM      8  N   UNL     1      -2.291  -0.269  -6.540  0.00  0.00    +0.379 N 
ATOM      9  C   UNL     1      -2.687  -1.147  -5.431  0.00  0.00    -0.082 C 
ATOM     10  C   UNL     1      -1.709  -0.973  -4.266  0.00  0.00    -0.010 C 
ATOM     11  C   UNL     1      -0.019  -4.629  -3.304  0.00  0.00    +0.219 C 
ATOM     12  O   UNL     1      -0.870  -5.311  -3.836  0.00  0.00    -0.275 OA
ATOM     13  H   UNL     1      -2.251   0.685  -6.214  0.00  0.00    -0.086 HD
ATOM     14  H   UNL     1      -2.971  -0.340  -7.282  0.00  0.00    -0.086 HD
ENDROOT
BRANCH  11  15
ATOM     15  C   UNL     1       0.644  -5.103  -2.037  0.00  0.00    +0.078 C 
ATOM     16  C   UNL     1       2.151  -5.235  -2.269  0.00  0.00    +0.032 C 
ATOM     17  C   UNL     1       2.826  -5.684  -0.970  0.00  0.00    +0.112 C 
ATOM     18  N   UNL     1       2.178  -6.916  -0.501  0.00  0.00    -0.267 N 
ATOM     19  C   UNL     1       0.718  -6.926  -0.331  0.00  0.00    +0.112 C 
ATOM     20  C   UNL     1       0.067  -6.463  -1.638  0.00  0.00    +0.032 C 
ATOM     21  C   UNL     1       2.908  -8.017  -0.232  0.00  0.00    +0.403 C 
ATOM     22  O   UNL     1       4.114  -7.997  -0.377  0.00  0.00    -0.226 OA
BRANCH  21  23
ATOM     23  O   UNL     1       2.300  -9.139   0.197  0.00  0.00    -0.445 OA
BRANCH  23  24
ATOM     24  C   UNL     1       3.135 -10.268   0.462  0.00  0.00    +0.269 C 
BRANCH  24  25
ATOM     25  C   UNL     1       2.286 -11.422   0.929  0.00  0.00    -0.010 A 
ATOM     26  C   UNL     1       2.022 -11.586   2.276  0.00  0.00    +0.007 A 
ATOM     27  C   UNL     1       1.243 -12.645   2.704  0.00  0.00    +0.000 A 
ATOM     28  C   UNL     1       0.728 -13.540   1.785  0.00  0.00    +0.000 A 
ATOM     29  C   UNL     1       0.991 -13.376   0.438  0.00  0.00    +0.000 A 
ATOM     30  C   UNL     1       1.766 -12.315   0.010  0.00  0.00    +0.007 A 
ENDBRANCH  24  25
ENDBRANCH  23  24
ENDBRANCH  21  23
ENDBRANCH  11  15
BRANCH   1  32
ATOM     31  N   UNL     1      -0.108   0.714  -2.123  0.00  0.00    -0.312 N 
ATOM     32  C   UNL     1       0.006  -0.608  -2.358  0.00  0.00    +0.218 C 
ATOM     33  O   UNL     1      -0.459  -1.407  -1.573  0.00  0.00    -0.275 OA
ATOM     34  H   UNL     1       0.264   1.353  -2.751  0.00  0.00    +0.149 HD
BRANCH  31  36
ATOM     35  C   UNL     1      -2.299   1.252  -1.180  0.00  0.00    +0.028 C 
ATOM     36  C   UNL     1      -0.793   1.186  -0.917  0.00  0.00    +0.075 C 
BRANCH  36  37
ATOM     37  C   UNL     1      -0.278   2.579  -0.550  0.00  0.00    -0.020 C 
ATOM     38  C   UNL     1      -0.994   3.073   0.709  0.00  0.00    +0.012 C 
ATOM     39  C   UNL     1       1.228   2.513  -0.287  0.00  0.00    +0.012 C 
ATOM     40  C   UNL     1      -0.552   3.545  -1.705  0.00  0.00    +0.012 C 
ENDBRANCH  36  37
ENDBRANCH  31  36
ENDBRANCH   1  32
TORSDOF 7
