REMARK  Name = ZINC23749071
REMARK  8 active torsions:
REMARK  status: ('A' for Active; 'I' for Inactive)
REMARK    1  A    between atoms: C_1  and  C_2
REMARK    2  A    between atoms: C_5  and  C_7
REMARK    3  A    between atoms: C_7  and  C_9
REMARK    4  A    between atoms: C_7  and  N_19
REMARK    5  A    between atoms: C_15  and  C_17
REMARK    6  A    between atoms: C_22  and  C_25
REMARK    7  A    between atoms: C_25  and  O_27
REMARK    8  A    between atoms: O_27  and  C_28
REMARK                            x       y       z     vdW  Elec       q    Type
REMARK                         _______ _______ _______ _____ _____    ______ ____
ROOT
ATOM      1  C   UNL     1      -2.492   1.074   4.400  0.00  0.00    +0.042 C 
ENDROOT
BRANCH   1   2
ATOM      2  C   UNL     1      -3.901   0.664   4.057  0.00  0.00    +0.053 A 
ATOM      3  C   UNL     1      -5.052   1.295   4.317  0.00  0.00    +0.282 A 
ATOM      4  N   UNL     1      -6.252   0.758   3.915  0.00  0.00    -0.170 N 
ATOM      5  C   UNL     1      -6.212  -0.434   3.260  0.00  0.00    +0.199 A 
ATOM      6  S   UNL     1      -4.474  -0.797   3.203  0.00  0.00    -0.050 S 
ATOM      7  N   UNL     1      -7.426  -0.806   2.954  0.00  0.00    -0.205 NA
ATOM      8  C   UNL     1      -8.289   0.110   3.388  0.00  0.00    +0.150 A 
ATOM      9  N   UNL     1      -7.634   1.075   3.975  0.00  0.00    -0.147 NA
ATOM     10  C   UNL     1      -9.786   0.043   3.228  0.00  0.00    +0.090 C 
ATOM     11  O   UNL     1      -5.034   2.482   4.982  0.00  0.00    -0.265 OA
ENDBRANCH   1   2
BRANCH   1  12
ATOM     12  N   UNL     1      -1.765  -0.080   4.944  0.00  0.00    +0.390 N 
ATOM     13  C   UNL     1      -2.470  -0.650   6.100  0.00  0.00    -0.077 C 
ATOM     14  C   UNL     1      -1.764  -1.932   6.548  0.00  0.00    -0.004 C 
ATOM     15  C   UNL     1      -0.315  -1.607   6.921  0.00  0.00    +0.094 C 
ATOM     16  C   UNL     1       0.383  -0.971   5.715  0.00  0.00    -0.004 C 
ATOM     17  C   UNL     1      -0.385   0.283   5.291  0.00  0.00    -0.077 C 
ATOM     18  H   UNL     1      -1.722  -0.854   4.163  0.00  0.00    -0.080 HD
BRANCH  15  19
ATOM     19  C   UNL     1       0.403  -2.875   7.307  0.00  0.00    +0.310 C 
ATOM     20  O   UNL     1       1.373  -3.233   6.683  0.00  0.00    -0.251 OA
BRANCH  19  21
ATOM     21  O   UNL     1      -0.036  -3.605   8.344  0.00  0.00    -0.468 OA
ATOM     22  C   UNL     1       0.704  -4.814   8.659  0.00  0.00    +0.280 C 
ENDBRANCH  19  21
ENDBRANCH  15  19
ENDBRANCH   1  12
BRANCH   1  27
ATOM     23  C   UNL     1      -0.013   1.086   0.008  0.00  0.00    +0.086 C 
ATOM     24  C   UNL     1      -0.718   1.572   1.248  0.00  0.00    +0.102 A 
ATOM     25  C   UNL     1      -0.917   2.858   1.587  0.00  0.00    +0.044 A 
ATOM     26  C   UNL     1      -1.616   2.855   2.815  0.00  0.00    +0.043 A 
ATOM     27  C   UNL     1      -1.796   1.567   3.158  0.00  0.00    +0.097 A 
ATOM     28  O   UNL     1      -1.250   0.794   2.205  0.00  0.00    -0.466 OA
ENDBRANCH   1  27
TORSDOF 5
