REMARK  Name = ZINC20502079
REMARK  6 active torsions:
REMARK  status: ('A' for Active; 'I' for Inactive)
REMARK    1  A    between atoms: C_1  and  C_2
REMARK    2  A    between atoms: C_4  and  C_17
REMARK    3  A    between atoms: C_5  and  C_16
REMARK    4  A    between atoms: N_6  and  C_7
REMARK    5  A    between atoms: C_12  and  O_13
REMARK    6  A    between atoms: O_13  and  C_14
REMARK                            x       y       z     vdW  Elec       q    Type
REMARK                         _______ _______ _______ _____ _____    ______ ____
ROOT
ATOM      1  C   UNL     1      -0.336   1.556  -0.142  0.00  0.00    +0.064 C 
ATOM      2  C   UNL     1      -0.223   0.054  -0.104  0.00  0.00    +0.022 A 
ATOM      3  C   UNL     1      -0.175  -0.750  -1.178  0.00  0.00    +0.031 A 
ATOM      4  C   UNL     1      -0.067  -2.123  -0.665  0.00  0.00    -0.003 A 
ATOM      5  C   UNL     1      -0.060  -2.013   0.716  0.00  0.00    +0.028 A 
ATOM      6  N   UNL     1      -0.149  -0.705   1.031  0.00  0.00    -0.314 N 
ATOM      7  C   UNL     1       0.035  -3.155   1.695  0.00  0.00    +0.064 C 
ENDROOT
BRANCH   4   8
ATOM      8  C   UNL     1       0.014  -3.317  -1.427  0.00  0.00    +0.026 C 
ATOM      9  C   UNL     1       0.526  -3.284  -2.709  0.00  0.00    +0.079 C 
ATOM     10  C   UNL     1       1.181  -2.066  -3.261  0.00  0.00    +0.132 C 
ATOM     11  N   UNL     1       1.873  -1.230  -2.531  0.00  0.00    -0.385 N 
ATOM     12  N   UNL     1       0.982  -1.902  -4.648  0.00  0.00    -0.154 N 
ATOM     13  C   UNL     1       0.688  -3.029  -5.386  0.00  0.00    +0.180 C 
ATOM     14  N   UNL     1       0.473  -4.241  -4.939  0.00  0.00    -0.152 NA
ATOM     15  C   UNL     1       0.458  -4.461  -3.607  0.00  0.00    +0.273 C 
ATOM     16  O   UNL     1       0.386  -5.593  -3.155  0.00  0.00    -0.268 OA
ATOM     17  S   UNL     1       0.661  -2.393  -7.041  0.00  0.00    -0.041 S 
ATOM     18  C   UNL     1       0.938  -0.675  -6.636  0.00  0.00    +0.179 C 
ATOM     19  N   UNL     1       1.067  -0.713  -5.341  0.00  0.00    -0.173 NA
ATOM     20  H   UNL     1       2.051  -1.432  -1.599  0.00  0.00    +0.157 HD
ATOM     21  H   UNL     1       2.208  -0.408  -2.922  0.00  0.00    +0.157 HD
ENDBRANCH   4   8
BRANCH   6  22
ATOM     22  C   UNL     1      -0.166  -0.196   2.338  0.00  0.00    +0.090 A 
ATOM     23  C   UNL     1      -1.371  -0.039   3.007  0.00  0.00    +0.049 A 
ATOM     24  C   UNL     1      -1.385   0.463   4.295  0.00  0.00    +0.043 A 
ATOM     25  C   UNL     1      -0.199   0.809   4.919  0.00  0.00    +0.024 A 
ATOM     26  C   UNL     1       1.005   0.655   4.258  0.00  0.00    +0.049 A 
ATOM     27  C   UNL     1       1.028   0.147   2.969  0.00  0.00    +0.144 A 
ATOM     28 CL   UNL     1      -2.893   0.659   5.132  0.00  0.00    -0.083 Cl
BRANCH  27  29
ATOM     29  O   UNL     1       2.212  -0.010   2.319  0.00  0.00    -0.493 OA
ATOM     30  C   UNL     1       3.395   0.363   3.028  0.00  0.00    +0.277 C 
ENDBRANCH  27  29
ENDBRANCH   6  22
TORSDOF 3
