REMARK  Name = ZINC12833756
REMARK  4 active torsions:
REMARK  status: ('A' for Active; 'I' for Inactive)
REMARK    1  A    between atoms: C_1  and  C_2
REMARK    2  A    between atoms: C_14  and  S_18
REMARK    3  A    between atoms: S_18  and  C_19
REMARK    4  A    between atoms: C_19  and  C_20
REMARK                            x       y       z     vdW  Elec       q    Type
REMARK                         _______ _______ _______ _____ _____    ______ ____
ROOT
ATOM      1  C   UNL     1       4.260  -1.939 -10.103  0.00  0.00    +0.008 C 
ATOM      2  C   UNL     1       3.202  -1.573  -9.060  0.00  0.00    -0.009 C 
ATOM      3  C   UNL     1       3.887  -1.026  -7.804  0.00  0.00    +0.008 C 
ATOM      4  C   UNL     1       2.868  -0.892  -6.672  0.00  0.00    +0.037 C 
ATOM      5  C   UNL     1       1.677  -0.078  -7.174  0.00  0.00    -0.024 A 
ATOM      6  C   UNL     1       1.460   0.071  -8.501  0.00  0.00    -0.004 A 
ATOM      7  S   UNL     1      -0.000   1.071  -8.605  0.00  0.00    -0.073 S 
ATOM      8  C   UNL     1      -0.287   1.268  -6.863  0.00  0.00    +0.114 A 
ATOM      9  C   UNL     1       0.767   0.546  -6.284  0.00  0.00    +0.056 A 
ATOM     10  C   UNL     1       0.775   0.540  -4.805  0.00  0.00    +0.173 A 
ATOM     11  N   UNL     1       1.557   0.003  -3.901  0.00  0.00    -0.128 NA
ATOM     12  N   UNL     1       1.125   0.300  -2.724  0.00  0.00    -0.122 NA
ATOM     13  C   UNL     1       0.045   1.043  -2.809  0.00  0.00    +0.198 A 
ATOM     14  N   UNL     1      -0.222   1.218  -4.139  0.00  0.00    -0.260 N 
ATOM     15  C   UNL     1      -1.188   1.887  -4.832  0.00  0.00    +0.208 A 
ATOM     16  N   UNL     1      -1.205   1.898  -6.135  0.00  0.00    -0.230 NA
ATOM     17  C   UNL     1       2.274  -0.488  -9.627  0.00  0.00    +0.046 C 
ENDROOT
BRANCH  13  18
ATOM     18  S   UNL     1      -0.890   1.687  -1.462  0.00  0.00    -0.076 S 
BRANCH  18  19
ATOM     19  C   UNL     1      -0.013   1.086   0.008  0.00  0.00    +0.173 C 
BRANCH  19  20
ATOM     20  C   UNL     1      -0.718   1.572   1.248  0.00  0.00    +0.229 C 
ATOM     21  O   UNL     1      -1.715   2.256   1.150  0.00  0.00    -0.275 OA
ATOM     22  N   UNL     1      -0.242   1.246   2.466  0.00  0.00    -0.264 N 
ATOM     23  C   UNL     1      -0.892   1.694   3.609  0.00  0.00    +0.165 A 
ATOM     24  N   UNL     1      -1.971   2.443   3.708  0.00  0.00    -0.229 NA
ATOM     25  C   UNL     1      -2.487   2.792   4.884  0.00  0.00    +0.054 A 
ATOM     26  C   UNL     1      -1.826   2.339   5.982  0.00  0.00    +0.014 A 
ATOM     27  S   UNL     1      -0.486   1.417   5.277  0.00  0.00    -0.057 S 
ATOM     28  C   UNL     1      -2.164   2.575   7.415  0.00  0.00    +0.044 C 
ATOM     29  C   UNL     1      -3.184   3.723   7.486  0.00  0.00    +0.006 C 
ATOM     30  C   UNL     1      -4.287   3.466   6.455  0.00  0.00    +0.006 C 
ATOM     31  C   UNL     1      -3.737   3.650   5.040  0.00  0.00    +0.056 C 
ATOM     32  H   UNL     1       0.555   0.699   2.544  0.00  0.00    +0.157 HD
ENDBRANCH  19  20
ENDBRANCH  18  19
ENDBRANCH  13  18
TORSDOF 3
