REMARK  Name = ZINC57753718
REMARK  3 active torsions:
REMARK  status: ('A' for Active; 'I' for Inactive)
REMARK    1  A    between atoms: C_8  and  C_27
REMARK    2  A    between atoms: N_10  and  C_12
REMARK    3  A    between atoms: C_12  and  C_13
REMARK                            x       y       z     vdW  Elec       q    Type
REMARK                         _______ _______ _______ _____ _____    ______ ____
ROOT
ATOM      1  C   UNL     1       0.638   1.637   0.577  0.00  0.00    +0.000 A 
ATOM      2  C   UNL     1       1.822   2.196   0.134  0.00  0.00    +0.000 A 
ATOM      3  C   UNL     1       2.873   1.380  -0.233  0.00  0.00    +0.005 A 
ATOM      4  C   UNL     1       2.748  -0.000  -0.159  0.00  0.00    -0.030 A 
ATOM      5  C   UNL     1       1.569  -0.557   0.287  0.00  0.00    -0.041 A 
ATOM      6  C   UNL     1       0.512   0.264   0.653  0.00  0.00    +0.004 A 
ATOM      7  C   UNL     1       1.390  -2.050   0.396  0.00  0.00    +0.063 C 
ATOM      8  C   UNL     1       2.466  -2.765  -0.422  0.00  0.00    +0.148 C 
ATOM      9  N   UNL     1       3.778  -2.212  -0.053  0.00  0.00    -0.280 NA
ATOM     10  C   UNL     1       3.920  -0.849  -0.575  0.00  0.00    +0.121 C 
ENDROOT
BRANCH   8  11
ATOM     11  C   UNL     1       2.431  -4.241  -0.122  0.00  0.00    +0.228 C 
ATOM     12  O   UNL     1       3.036  -4.680   0.833  0.00  0.00    -0.274 OA
ATOM     13  N   UNL     1       1.728  -5.074  -0.915  0.00  0.00    -0.328 N 
ATOM     14  H   UNL     1       1.245  -4.723  -1.679  0.00  0.00    +0.145 HD
ATOM     15  H   UNL     1       1.706  -6.024  -0.722  0.00  0.00    +0.145 HD
ENDBRANCH   8  11
BRANCH   9  16
ATOM     16  C   UNL     1       4.867  -3.075  -0.531  0.00  0.00    +0.159 C 
BRANCH  16  17
ATOM     17  C   UNL     1       6.144  -2.715   0.183  0.00  0.00    +0.125 A 
ATOM     18  N   UNL     1       7.285  -3.390  -0.112  0.00  0.00    -0.309 N 
ATOM     19  H   UNL     1       7.262  -4.093  -0.779  0.00  0.00    +0.170 HD
ATOM     20  C   UNL     1       8.448  -3.101   0.502  0.00  0.00    +0.260 A 
ATOM     21  O   UNL     1       9.465  -3.714   0.227  0.00  0.00    -0.267 OA
ATOM     22  C   UNL     1       8.468  -2.058   1.484  0.00  0.00    +0.075 A 
ATOM     23  C   UNL     1       9.612  -1.577   2.273  0.00  0.00    -0.023 A 
ATOM     24  C   UNL     1       9.375  -0.578   3.140  0.00  0.00    -0.004 A 
ATOM     25  S   UNL     1       7.643  -0.218   2.964  0.00  0.00    -0.073 S 
ATOM     26  C   UNL     1       7.244  -1.419   1.722  0.00  0.00    +0.116 A 
ATOM     27  N   UNL     1       6.134  -1.756   1.070  0.00  0.00    -0.225 NA
ATOM     28  C   UNL     1      10.614  -0.173   3.893  0.00  0.00    +0.043 C 
ATOM     29  C   UNL     1      11.593  -1.350   3.691  0.00  0.00    +0.010 C 
ATOM     30  C   UNL     1      11.096  -1.946   2.359  0.00  0.00    +0.037 C 
ENDBRANCH  16  17
ENDBRANCH   9  16
TORSDOF 3
