REMARK  Name = ZINC00134421
REMARK  4 active torsions:
REMARK  status: ('A' for Active; 'I' for Inactive)
REMARK    1  A    between atoms: C_1  and  C_2
REMARK    2  A    between atoms: C_6  and  O_8
REMARK    3  A    between atoms: O_8  and  C_9
REMARK    4  A    between atoms: C_9  and  C_10
REMARK                            x       y       z     vdW  Elec       q    Type
REMARK                         _______ _______ _______ _____ _____    ______ ____
ROOT
ATOM      1  C   UNL     1      -3.945   4.108   6.267  0.00  0.00    +0.044 C 
ATOM      2  C   UNL     1      -3.327   3.713   4.951  0.00  0.00    -0.043 A 
ATOM      3  C   UNL     1      -2.431   2.663   4.905  0.00  0.00    +0.050 A 
ATOM      4  C   UNL     1      -1.857   2.292   3.698  0.00  0.00    +0.143 A 
ATOM      5  C   UNL     1      -2.192   2.990   2.528  0.00  0.00    +0.063 A 
ATOM      6  C   UNL     1      -3.107   4.054   2.584  0.00  0.00    +0.132 A 
ATOM      7  C   UNL     1      -3.665   4.406   3.800  0.00  0.00    +0.050 A 
ATOM      8  C   UNL     1      -1.583   2.593   1.253  0.00  0.00    -0.023 A 
ATOM      9  C   UNL     1      -0.706   1.566   1.256  0.00  0.00    +0.041 A 
ATOM     10  C   UNL     1      -0.416   0.904   2.475  0.00  0.00    +0.341 A 
ATOM     11  O   UNL     1       0.371  -0.026   2.467  0.00  0.00    -0.245 OA
ATOM     12  O   UNL     1      -0.978   1.268   3.635  0.00  0.00    -0.422 OA
ATOM     13  C   UNL     1      -0.013   1.086   0.008  0.00  0.00    +0.042 C 
ATOM     14  C   UNL     1      -0.740   1.586  -1.238  0.00  0.00    +0.005 C 
ATOM     15  C   UNL     1      -0.946   3.100  -1.103  0.00  0.00    +0.005 C 
ATOM     16  C   UNL     1      -1.964   3.346   0.010  0.00  0.00    +0.036 C 
ENDROOT
BRANCH   6  17
ATOM     17  O   UNL     1      -3.439   4.733   1.457  0.00  0.00    -0.482 OA
BRANCH  17  18
ATOM     18  C   UNL     1      -4.375   5.804   1.596  0.00  0.00    +0.324 C 
BRANCH  18  19
ATOM     19  C   UNL     1      -4.620   6.435   0.250  0.00  0.00    +0.248 C 
ATOM     20  O   UNL     1      -4.050   6.010  -0.733  0.00  0.00    -0.272 OA
ATOM     21  N   UNL     1      -5.473   7.472   0.137  0.00  0.00    -0.327 N 
ATOM     22  H   UNL     1      -5.930   7.812   0.922  0.00  0.00    +0.145 HD
ATOM     23  H   UNL     1      -5.631   7.878  -0.730  0.00  0.00    +0.145 HD
ENDBRANCH  18  19
ENDBRANCH  17  18
ENDBRANCH   6  17
TORSDOF 3
