REMARK  Name = ZINC14996441
REMARK  12 active torsions:
REMARK  status: ('A' for Active; 'I' for Inactive)
REMARK    1  A    between atoms: C_1  and  C_2
REMARK    2  A    between atoms: C_3  and  C_14
REMARK    3  A    between atoms: C_14  and  C_15
REMARK    4  A    between atoms: C_15  and  N_16
REMARK    5  A    between atoms: C_17  and  C_23
REMARK    6  A    between atoms: C_23  and  C_24
REMARK    7  A    between atoms: C_24  and  N_62
REMARK    8  A    between atoms: C_25  and  C_26
REMARK    9  A    between atoms: C_25  and  N_62
REMARK   10  A    between atoms: C_29  and  C_32
REMARK   11  A    between atoms: C_32  and  O_34
REMARK   12  A    between atoms: O_34  and  C_35
REMARK                            x       y       z     vdW  Elec       q    Type
REMARK                         _______ _______ _______ _____ _____    ______ ____
ROOT
ATOM      1  N   UNL     1      -3.185   3.021  -1.944  0.00  0.00    -0.298 N 
ATOM      2  C   UNL     1      -3.055   1.576  -2.169  0.00  0.00    +0.075 C 
ATOM      3  C   UNL     1      -4.496   1.021  -2.123  0.00  0.00    +0.031 C 
ATOM      4  C   UNL     1      -5.212   2.073  -1.245  0.00  0.00    +0.098 C 
ATOM      5  C   UNL     1      -4.384   3.328  -1.421  0.00  0.00    +0.216 C 
ATOM      6  O   UNL     1      -4.750   4.447  -1.131  0.00  0.00    -0.276 OA
ENDROOT
BRANCH   1   7
ATOM      7  C   UNL     1      -2.141   4.002  -2.251  0.00  0.00    +0.113 C 
BRANCH   7   8
ATOM      8  C   UNL     1      -2.394   4.600  -3.636  0.00  0.00    +0.056 C 
BRANCH   8  11
ATOM      9  C   UNL     1       0.305   4.016  -5.054  0.00  0.00    +0.063 C 
ATOM     10  C   UNL     1      -0.151   5.366  -4.564  0.00  0.00    +0.017 A 
ATOM     11  C   UNL     1      -1.321   5.609  -3.952  0.00  0.00    -0.018 A 
ATOM     12  C   UNL     1      -1.358   7.043  -3.654  0.00  0.00    +0.009 A 
ATOM     13  C   UNL     1      -2.288   7.880  -3.031  0.00  0.00    +0.048 A 
ATOM     14  C   UNL     1      -2.014   9.223  -2.896  0.00  0.00    +0.127 A 
ATOM     15  C   UNL     1      -0.816   9.746  -3.369  0.00  0.00    +0.078 A 
ATOM     16  C   UNL     1       0.114   8.931  -3.980  0.00  0.00    +0.150 A 
ATOM     17  C   UNL     1      -0.145   7.571  -4.127  0.00  0.00    +0.083 A 
ATOM     18  N   UNL     1       0.566   6.525  -4.678  0.00  0.00    -0.356 N 
ATOM     19  H   UNL     1       1.442   6.601  -5.087  0.00  0.00    +0.166 HD
ATOM     20  F   UNL     1       1.274   9.452  -4.436  0.00  0.00    -0.203 F 
ATOM     21  F   UNL     1      -2.913  10.036  -2.300  0.00  0.00    -0.205 F 
ENDBRANCH   8  11
ENDBRANCH   7   8
ENDBRANCH   1   7
BRANCH   2  22
ATOM     22  C   UNL     1      -2.208   0.943  -1.064  0.00  0.00    +0.003 C 
BRANCH  22  23
ATOM     23  C   UNL     1      -0.754   1.396  -1.212  0.00  0.00    -0.080 C 
BRANCH  23  24
ATOM     24  N   UNL     1       0.080   0.675  -0.232  0.00  0.00    +0.382 N 
ATOM     25  H   UNL     1       0.010  -0.335  -0.406  0.00  0.00    -0.085 HD
ATOM     26  H   UNL     1      -0.256   0.883   0.716  0.00  0.00    -0.085 HD
BRANCH  24  27
ATOM     27  C   UNL     1       1.489   1.093  -0.352  0.00  0.00    -0.047 C 
BRANCH  27  28
ATOM     28  C   UNL     1       2.315   0.341   0.659  0.00  0.00    -0.064 A 
ATOM     29  C   UNL     1       2.508   0.872   1.923  0.00  0.00    +0.002 A 
ATOM     30  C   UNL     1       3.259   0.186   2.855  0.00  0.00    +0.015 A 
ATOM     31  C   UNL     1       3.835  -1.040   2.517  0.00  0.00    +0.059 A 
ATOM     32  C   UNL     1       3.641  -1.567   1.239  0.00  0.00    +0.015 A 
ATOM     33  C   UNL     1       2.883  -0.874   0.318  0.00  0.00    +0.002 A 
BRANCH  31  34
ATOM     34  C   UNL     1       4.645  -1.778   3.508  0.00  0.00    +0.339 C 
ATOM     35  O   UNL     1       5.144  -2.845   3.212  0.00  0.00    -0.245 OA
BRANCH  34  36
ATOM     36  O   UNL     1       4.830  -1.266   4.741  0.00  0.00    -0.464 OA
ATOM     37  C   UNL     1       5.637  -2.045   5.663  0.00  0.00    +0.280 C 
ENDBRANCH  34  36
ENDBRANCH  31  34
ENDBRANCH  27  28
ENDBRANCH  24  27
ENDBRANCH  23  24
ENDBRANCH  22  23
ENDBRANCH   2  22
TORSDOF 10
