REMARK  Name = ZINC20150764
REMARK  8 active torsions:
REMARK  status: ('A' for Active; 'I' for Inactive)
REMARK    1  A    between atoms: C_1  and  O_2
REMARK    2  A    between atoms: O_2  and  C_3
REMARK    3  A    between atoms: C_3  and  C_5
REMARK    4  A    between atoms: C_5  and  C_33
REMARK    5  A    between atoms: C_10  and  C_13
REMARK    6  A    between atoms: N_20  and  C_23
REMARK    7  A    between atoms: C_33  and  C_34
REMARK    8  A    between atoms: C_37  and  O_40
REMARK                            x       y       z     vdW  Elec       q    Type
REMARK                         _______ _______ _______ _____ _____    ______ ____
ROOT
ATOM      1  C   UNL     1      -1.329   1.940   0.019  0.00  0.00    +0.133 C 
ATOM      2  C   UNL     1      -2.392   1.110  -0.605  0.00  0.00    +0.121 C 
ATOM      3  C   UNL     1      -3.384   2.229  -1.120  0.00  0.00    +0.112 C 
ATOM      4  C   UNL     1      -2.373   3.092  -1.836  0.00  0.00    +0.104 C 
ATOM      5  N   UNL     1      -1.250   3.166  -0.841  0.00  0.00    -0.293 NA
ATOM      6  C   UNL     1      -4.378   1.331  -1.750  0.00  0.00    +0.232 C 
ATOM      7  O   UNL     1      -5.014   1.533  -2.762  0.00  0.00    -0.274 OA
ATOM      8  N   UNL     1      -4.427   0.224  -0.945  0.00  0.00    -0.210 N 
ATOM      9  C   UNL     1      -3.359   0.150  -0.086  0.00  0.00    +0.232 C 
ATOM     10  O   UNL     1      -3.244  -0.559   0.891  0.00  0.00    -0.274 OA
ATOM     11  H   UNL     1      -1.351   4.062  -0.212  0.00  0.00    +0.124 HD
ENDROOT
BRANCH   8  12
ATOM     12  C   UNL     1      -5.455  -0.730  -0.993  0.00  0.00    +0.048 A 
ATOM     13  C   UNL     1      -5.425  -1.828  -0.144  0.00  0.00    +0.028 A 
ATOM     14  C   UNL     1      -6.439  -2.765  -0.188  0.00  0.00    +0.051 A 
ATOM     15  C   UNL     1      -7.484  -2.618  -1.088  0.00  0.00    +0.162 A 
ATOM     16  C   UNL     1      -7.516  -1.521  -1.941  0.00  0.00    +0.164 A 
ATOM     17  C   UNL     1      -6.500  -0.579  -1.893  0.00  0.00    +0.073 A 
ATOM     18  O   UNL     1      -8.539  -1.355  -2.824  0.00  0.00    -0.485 OA
ATOM     19  C   UNL     1      -9.343  -2.507  -3.102  0.00  0.00    +0.270 C 
ATOM     20  C   UNL     1      -9.692  -3.182  -1.769  0.00  0.00    +0.270 C 
ATOM     21  O   UNL     1      -8.471  -3.556  -1.123  0.00  0.00    -0.485 OA
ENDBRANCH   8  12
BRANCH   4  22
ATOM     22  C   UNL     1      -2.937   4.463  -2.110  0.00  0.00    +0.007 A 
ATOM     23  C   UNL     1      -3.369   4.989  -3.282  0.00  0.00    +0.013 A 
ATOM     24  C   UNL     1      -3.853   6.284  -3.296  0.00  0.00    +0.008 A 
ATOM     25  C   UNL     1      -3.882   6.988  -2.139  0.00  0.00    +0.045 A 
ATOM     26  S   UNL     1      -3.217   5.811  -0.973  0.00  0.00    -0.100 S 
ENDBRANCH   4  22
BRANCH   1  27
ATOM     27  C   UNL     1      -0.014   1.204   0.009  0.00  0.00    +0.328 C 
ATOM     28  O   UNL     1       0.002  -0.004   0.002  0.00  0.00    -0.249 OA
BRANCH  27  30
ATOM     29  C   UNL     1       2.367   1.117  -0.015  0.00  0.00    +0.280 C 
ATOM     30  O   UNL     1       1.139   1.891   0.001  0.00  0.00    -0.467 OA
ENDBRANCH  27  30
ENDBRANCH   1  27
BRANCH   1  31
ATOM     31  C   UNL     1      -1.718   2.316   1.450  0.00  0.00    +0.069 C 
BRANCH  31  32
ATOM     32  C   UNL     1      -0.709   3.288   2.005  0.00  0.00    -0.045 A 
ATOM     33  C   UNL     1       0.402   2.818   2.682  0.00  0.00    +0.007 A 
ATOM     34  C   UNL     1       1.331   3.706   3.187  0.00  0.00    +0.045 A 
ATOM     35  C   UNL     1       1.144   5.071   3.025  0.00  0.00    +0.117 A 
ATOM     36  C   UNL     1       0.026   5.540   2.350  0.00  0.00    +0.045 A 
ATOM     37  C   UNL     1      -0.897   4.648   1.842  0.00  0.00    +0.007 A 
BRANCH  35  38
ATOM     38  O   UNL     1       2.055   5.947   3.525  0.00  0.00    -0.507 OA
ATOM     39  H   UNL     1       1.905   7.030   3.396  0.00  0.00    +0.292 HD
ENDBRANCH  35  38
ENDBRANCH  31  32
ENDBRANCH   1  31
TORSDOF 7
