REMARK  Name = ZINC16249526
REMARK  9 active torsions:
REMARK  status: ('A' for Active; 'I' for Inactive)
REMARK    1  A    between atoms: C_1  and  C_2
REMARK    2  A    between atoms: C_3  and  C_26
REMARK    3  A    between atoms: C_4  and  N_25
REMARK    4  A    between atoms: C_9  and  C_10
REMARK    5  A    between atoms: C_12  and  O_18
REMARK    6  A    between atoms: C_13  and  O_17
REMARK    7  A    between atoms: O_18  and  C_19
REMARK    8  A    between atoms: C_20  and  C_24
REMARK    9  A    between atoms: C_21  and  C_22
REMARK                            x       y       z     vdW  Elec       q    Type
REMARK                         _______ _______ _______ _____ _____    ______ ____
ROOT
ATOM      1  C   UNL     1      -0.465  -3.217   0.229  0.00  0.00    +0.046 C 
ATOM      2  C   UNL     1       1.035  -3.141   0.110  0.00  0.00    -0.020 A 
ATOM      3  C   UNL     1       1.781  -4.256  -0.288  0.00  0.00    +0.095 A 
ATOM      4  C   UNL     1       3.182  -4.143  -0.387  0.00  0.00    +0.135 A 
ATOM      5  N   UNL     1       3.794  -3.006  -0.110  0.00  0.00    -0.230 NA
ATOM      6  C   UNL     1       3.120  -1.923   0.271  0.00  0.00    +0.092 A 
ATOM      7  C   UNL     1       1.715  -1.965   0.397  0.00  0.00    +0.013 A 
ATOM      8  C   UNL     1       1.279  -0.621   0.827  0.00  0.00    -0.011 C 
ATOM      9  C   UNL     1      -0.024  -0.224   1.067  0.00  0.00    +0.017 C 
ATOM     10  C   UNL     1       2.432   0.185   0.955  0.00  0.00    -0.023 C 
ATOM     11  C   UNL     1       3.547  -0.561   0.631  0.00  0.00    +0.081 C 
ATOM     12  C   UNL     1       2.443   1.631   1.379  0.00  0.00    +0.046 C 
ENDROOT
BRANCH   9  13
ATOM     13  C   UNL     1      -0.289   1.033   1.766  0.00  0.00    -0.020 A 
ATOM     14  C   UNL     1       0.432   1.359   2.925  0.00  0.00    +0.057 A 
ATOM     15  C   UNL     1       0.180   2.549   3.576  0.00  0.00    +0.163 A 
ATOM     16  C   UNL     1      -0.796   3.419   3.090  0.00  0.00    +0.172 A 
ATOM     17  C   UNL     1      -1.514   3.096   1.944  0.00  0.00    +0.059 A 
ATOM     18  C   UNL     1      -1.268   1.914   1.283  0.00  0.00    +0.026 A 
ATOM     19  I   UNL     1      -2.977   4.411   1.223  0.00  0.00    -0.040 I 
BRANCH  16  20
ATOM     20  O   UNL     1      -1.045   4.587   3.737  0.00  0.00    -0.503 OA
ATOM     21  H   UNL     1      -1.814   5.274   3.355  0.00  0.00    +0.292 HD
ENDBRANCH  16  20
BRANCH  15  22
ATOM     22  O   UNL     1       0.880   2.871   4.697  0.00  0.00    -0.491 OA
ATOM     23  C   UNL     1       1.913   1.969   5.099  0.00  0.00    +0.277 C 
ENDBRANCH  15  22
ENDBRANCH   9  13
BRANCH   4  24
ATOM     24  N   UNL     1       3.929  -5.241  -0.779  0.00  0.00    -0.342 N 
ATOM     25  H   UNL     1       5.023  -5.162  -0.858  0.00  0.00    +0.144 HD
ATOM     26  H   UNL     1       3.428  -6.193  -1.010  0.00  0.00    +0.144 HD
ENDBRANCH   4  24
BRANCH  11  27
ATOM     27  C   UNL     1       4.898  -0.087   0.643  0.00  0.00    +0.102 C 
ATOM     28  N   UNL     1       5.970   0.289   0.652  0.00  0.00    -0.191 NA
ENDBRANCH  11  27
BRANCH   3  29
ATOM     29  C   UNL     1       1.130  -5.495  -0.591  0.00  0.00    +0.103 C 
ATOM     30  N   UNL     1       0.614  -6.478  -0.831  0.00  0.00    -0.191 NA
ENDBRANCH   3  29
TORSDOF 6
