REMARK  Name = ZINC06409885
REMARK  8 active torsions:
REMARK  status: ('A' for Active; 'I' for Inactive)
REMARK    1  A    between atoms: C_1  and  C_2
REMARK    2  A    between atoms: C_7  and  C_14
REMARK    3  A    between atoms: C_14  and  C_16
REMARK    4  A    between atoms: C_14  and  N_71
REMARK    5  A    between atoms: N_20  and  C_21
REMARK    6  A    between atoms: C_21  and  C_22
REMARK    7  A    between atoms: C_30  and  C_33
REMARK    8  A    between atoms: C_33  and  C_34
REMARK                            x       y       z     vdW  Elec       q    Type
REMARK                         _______ _______ _______ _____ _____    ______ ____
ROOT
ATOM      1  C   UNL     1       2.849   4.724   1.887  0.00  0.00    +0.039 C 
ENDROOT
BRANCH   1   8
ATOM      2  C   UNL     1       3.924  -0.520   7.800  0.00  0.00    +0.044 C 
ATOM      3  C   UNL     1       3.839   0.319   6.551  0.00  0.00    -0.048 A 
ATOM      4  C   UNL     1       4.423  -0.137   5.377  0.00  0.00    +0.004 A 
ATOM      5  C   UNL     1       4.359   0.608   4.234  0.00  0.00    +0.010 A 
ATOM      6  C   UNL     1       3.698   1.841   4.246  0.00  0.00    -0.001 A 
ATOM      7  C   UNL     1       3.610   2.665   3.039  0.00  0.00    +0.017 A 
ATOM      8  C   UNL     1       2.958   3.852   3.111  0.00  0.00    +0.011 A 
ATOM      9  C   UNL     1       2.385   4.275   4.329  0.00  0.00    +0.251 A 
ATOM     10  O   UNL     1       1.807   5.347   4.373  0.00  0.00    -0.268 OA
ATOM     11  N   UNL     1       2.456   3.523   5.441  0.00  0.00    -0.322 N 
ATOM     12  H   UNL     1       2.047   3.842   6.261  0.00  0.00    +0.169 HD
ATOM     13  C   UNL     1       3.105   2.307   5.434  0.00  0.00    +0.049 A 
ATOM     14  C   UNL     1       3.184   1.531   6.586  0.00  0.00    +0.029 A 
ENDBRANCH   1   8
BRANCH   1  20
ATOM     15  C   UNL     1       4.708   5.976   2.801  0.00  0.00    -0.077 C 
ATOM     16  C   UNL     1       5.162   7.372   3.235  0.00  0.00    -0.015 C 
ATOM     17  C   UNL     1       5.198   8.294   2.014  0.00  0.00    -0.010 C 
ATOM     18  C   UNL     1       3.810   8.328   1.368  0.00  0.00    -0.015 C 
ATOM     19  C   UNL     1       3.395   6.904   0.988  0.00  0.00    -0.077 C 
ATOM     20  N   UNL     1       3.356   6.073   2.210  0.00  0.00    +0.389 N 
ATOM     21  H   UNL     1       2.726   6.512   2.891  0.00  0.00    -0.080 HD
BRANCH  17  22
ATOM     22  C   UNL     1       5.592   9.706   2.451  0.00  0.00    +0.038 C 
BRANCH  22  23
ATOM     23  C   UNL     1       7.006   9.694   2.974  0.00  0.00    -0.047 A 
ATOM     24  C   UNL     1       7.244   9.467   4.317  0.00  0.00    +0.003 A 
ATOM     25  C   UNL     1       8.541   9.451   4.796  0.00  0.00    +0.000 A 
ATOM     26  C   UNL     1       9.598   9.672   3.933  0.00  0.00    +0.000 A 
ATOM     27  C   UNL     1       9.360   9.904   2.592  0.00  0.00    +0.000 A 
ATOM     28  C   UNL     1       8.063   9.915   2.112  0.00  0.00    +0.003 A 
ENDBRANCH  22  23
ENDBRANCH  17  22
ENDBRANCH   1  20
BRANCH   1  29
ATOM     29  C   UNL     1       1.403   4.835   1.476  0.00  0.00    +0.143 A 
ATOM     30  N   UNL     1       0.475   5.550   2.063  0.00  0.00    -0.115 NA
ATOM     31  N   UNL     1      -0.626   5.381   1.416  0.00  0.00    -0.023 NA
ATOM     32  N   UNL     1      -0.424   4.581   0.428  0.00  0.00    -0.044 NA
ATOM     33  N   UNL     1       0.814   4.218   0.434  0.00  0.00    -0.228 N 
BRANCH  33  34
ATOM     34  C   UNL     1       1.459   3.310  -0.517  0.00  0.00    +0.178 C 
BRANCH  34  35
ATOM     35  C   UNL     1       1.358   1.873  -0.001  0.00  0.00    +0.140 C 
ATOM     36  C   UNL     1       2.044   0.890  -0.983  0.00  0.00    +0.035 C 
ATOM     37  C   UNL     1       1.318  -0.441  -0.670  0.00  0.00    +0.031 C 
ATOM     38  C   UNL     1       0.002  -0.004   0.002  0.00  0.00    +0.160 C 
ATOM     39  O   UNL     1      -0.017   1.433   0.010  0.00  0.00    -0.375 OA
ENDBRANCH  34  35
ENDBRANCH  33  34
ENDBRANCH   1  29
TORSDOF 7
