REMARK  Name = ZINC66503720
REMARK  4 active torsions:
REMARK  status: ('A' for Active; 'I' for Inactive)
REMARK    1  A    between atoms: C_4  and  C_7
REMARK    2  A    between atoms: C_10  and  C_12
REMARK    3  A    between atoms: N_14  and  S_15
REMARK    4  A    between atoms: S_15  and  C_18
REMARK                            x       y       z     vdW  Elec       q    Type
REMARK                         _______ _______ _______ _____ _____    ______ ____
ROOT
ATOM      1  S   UNL     1       7.767  -2.810   1.654  0.00  0.00    +0.102 S 
ATOM      2  O   UNL     1       8.439  -1.658   1.163  0.00  0.00    -0.146 OA
ATOM      3  O   UNL     1       7.722  -3.134   3.037  0.00  0.00    -0.146 OA
ENDROOT
BRANCH   1   4
ATOM      4  C   UNL     1       8.482  -4.197   0.836  0.00  0.00    +0.113 A 
ATOM      5  C   UNL     1       8.407  -5.457   1.427  0.00  0.00    +0.029 A 
ATOM      6  C   UNL     1       8.949  -6.549   0.822  0.00  0.00    +0.010 A 
ATOM      7  C   UNL     1       9.595  -6.407  -0.419  0.00  0.00    -0.018 A 
ATOM      8  C   UNL     1      10.166  -7.511  -1.074  0.00  0.00    +0.008 A 
ATOM      9  C   UNL     1      10.783  -7.336  -2.275  0.00  0.00    +0.001 A 
ATOM     10  C   UNL     1      10.858  -6.076  -2.866  0.00  0.00    +0.001 A 
ATOM     11  C   UNL     1      10.317  -4.984  -2.260  0.00  0.00    +0.008 A 
ATOM     12  C   UNL     1       9.671  -5.126  -1.020  0.00  0.00    -0.016 A 
ATOM     13  C   UNL     1       9.095  -4.023  -0.367  0.00  0.00    +0.037 A 
ENDBRANCH   1   4
BRANCH   1  16
ATOM     14  C   UNL     1       5.438  -1.755   1.594  0.00  0.00    +0.268 C 
ATOM     15  O   UNL     1       5.924  -0.864   2.482  0.00  0.00    -0.269 OA
ATOM     16  N   UNL     1       6.196  -2.696   1.143  0.00  0.00    -0.090 NA
BRANCH  14  19
ATOM     17  C   UNL     1       3.711  -0.707  -0.038  0.00  0.00    +0.032 C 
ATOM     18  C   UNL     1       3.671  -2.222  -0.251  0.00  0.00    +0.022 C 
ATOM     19  C   UNL     1       4.008  -1.652   1.129  0.00  0.00    +0.089 C 
BRANCH  17  23
ATOM     20  C   UNL     1      -0.017   1.378   0.010  0.00  0.00    +0.000 A 
ATOM     21  C   UNL     1       1.171   2.086   0.002  0.00  0.00    +0.000 A 
ATOM     22  C   UNL     1       2.377   1.411  -0.013  0.00  0.00    +0.004 A 
ATOM     23  C   UNL     1       2.396   0.029  -0.020  0.00  0.00    -0.044 A 
ATOM     24  C   UNL     1       1.208  -0.679  -0.012  0.00  0.00    +0.004 A 
ATOM     25  C   UNL     1       0.002  -0.004   0.002  0.00  0.00    +0.000 A 
ENDBRANCH  17  23
ENDBRANCH  14  19
ENDBRANCH   1  16
TORSDOF 4
