REMARK  Name = ZINC05270711
REMARK  8 active torsions:
REMARK  status: ('A' for Active; 'I' for Inactive)
REMARK    1  A    between atoms: C_1  and  C_2
REMARK    2  A    between atoms: C_2  and  C_4
REMARK    3  A    between atoms: C_2  and  N_10
REMARK    4  A    between atoms: C_11  and  C_13
REMARK    5  A    between atoms: C_13  and  C_15
REMARK    6  A    between atoms: C_13  and  N_16
REMARK    7  A    between atoms: C_17  and  C_19
REMARK    8  A    between atoms: N_24  and  C_26
REMARK                            x       y       z     vdW  Elec       q    Type
REMARK                         _______ _______ _______ _____ _____    ______ ____
ROOT
ATOM      1  N   UNL     1      -0.250  -1.180  -4.705  0.00  0.00    -0.304 N 
ATOM      2  C   UNL     1      -0.034  -2.012  -5.743  0.00  0.00    +0.219 C 
ATOM      3  O   UNL     1       0.945  -2.729  -5.752  0.00  0.00    -0.275 OA
ATOM      4  H   UNL     1      -1.032  -0.607  -4.698  0.00  0.00    +0.149 HD
ENDROOT
BRANCH   2   5
ATOM      5  C   UNL     1      -1.007  -2.053  -6.892  0.00  0.00    +0.101 C 
ATOM      6  C   UNL     1      -1.034  -0.701  -7.642  0.00  0.00    +0.110 C 
ATOM      7  C   UNL     1      -0.033  -0.878  -8.762  0.00  0.00    +0.221 C 
ATOM      8  O   UNL     1       0.452   0.026  -9.410  0.00  0.00    -0.275 OA
ATOM      9  N   UNL     1       0.241  -2.182  -8.936  0.00  0.00    -0.271 N 
ATOM     10  C   UNL     1      -0.520  -3.017  -7.996  0.00  0.00    +0.127 C 
BRANCH   9  11
ATOM     11  C   UNL     1       1.137  -2.682  -9.889  0.00  0.00    +0.040 A 
ATOM     12  C   UNL     1       1.438  -4.037  -9.916  0.00  0.00    +0.027 A 
ATOM     13  C   UNL     1       2.321  -4.532 -10.857  0.00  0.00    +0.051 A 
ATOM     14  C   UNL     1       2.909  -3.677 -11.775  0.00  0.00    +0.166 A 
ATOM     15  C   UNL     1       2.609  -2.317 -11.751  0.00  0.00    +0.168 A 
ATOM     16  C   UNL     1       1.720  -1.823 -10.811  0.00  0.00    +0.073 A 
ATOM     17  O   UNL     1       3.310  -1.698 -12.745  0.00  0.00    -0.453 OA
ATOM     18  C   UNL     1       4.351  -2.621 -13.115  0.00  0.00    +0.466 C 
ATOM     19  O   UNL     1       3.799  -3.909 -12.786  0.00  0.00    -0.453 OA
ENDBRANCH   9  11
ENDBRANCH   2   5
BRANCH   1  20
ATOM     20  C   UNL     1       0.697  -1.141  -3.588  0.00  0.00    +0.156 C 
ATOM     21  C   UNL     1       1.844  -0.186  -3.925  0.00  0.00    +0.038 C 
BRANCH  20  23
ATOM     22  N   UNL     1       0.668  -0.542  -1.188  0.00  0.00    -0.307 N 
ATOM     23  C   UNL     1      -0.010  -0.658  -2.347  0.00  0.00    +0.234 C 
ATOM     24  O   UNL     1      -1.188  -0.375  -2.392  0.00  0.00    -0.274 OA
ATOM     25  H   UNL     1       1.610  -0.768  -1.152  0.00  0.00    +0.149 HD
BRANCH  22  27
ATOM     26  C   UNL     1      -0.027   1.457   0.038  0.00  0.00    +0.033 C 
ATOM     27  C   UNL     1      -0.019  -0.073   0.018  0.00  0.00    +0.100 C 
BRANCH  27  28
ATOM     28  C   UNL     1       0.700  -0.588   1.238  0.00  0.00    -0.027 A 
ATOM     29  C   UNL     1       2.082  -0.611   1.268  0.00  0.00    +0.005 A 
ATOM     30  C   UNL     1       2.741  -1.083   2.387  0.00  0.00    +0.000 A 
ATOM     31  C   UNL     1       2.019  -1.533   3.477  0.00  0.00    +0.000 A 
ATOM     32  C   UNL     1       0.637  -1.509   3.447  0.00  0.00    +0.000 A 
ATOM     33  C   UNL     1      -0.022  -1.033   2.330  0.00  0.00    +0.005 A 
ENDBRANCH  27  28
ENDBRANCH  22  27
ENDBRANCH  20  23
ENDBRANCH   1  20
TORSDOF 6
