REMARK  Name = ZINC14458385
REMARK  3 active torsions:
REMARK  status: ('A' for Active; 'I' for Inactive)
REMARK    1  A    between atoms: C_1  and  C_2
REMARK    2  A    between atoms: C_5  and  C_8
REMARK    3  A    between atoms: C_18  and  N_25
REMARK                            x       y       z     vdW  Elec       q    Type
REMARK                         _______ _______ _______ _____ _____    ______ ____
ROOT
ATOM      1  C   UNL     1      -1.377   6.143   0.410  0.00  0.00    +0.105 C 
ATOM      2  C   UNL     1      -0.152   5.942  -0.458  0.00  0.00    +0.029 C 
ATOM      3  C   UNL     1       1.022   6.911  -0.281  0.00  0.00    +0.033 C 
ATOM      4  C   UNL     1       2.209   6.024  -0.665  0.00  0.00    -0.030 C 
ATOM      5  C   UNL     1       1.911   4.748  -0.444  0.00  0.00    -0.023 C 
ATOM      6  C   UNL     1       0.545   4.676   0.129  0.00  0.00    +0.051 C 
ATOM      7  C   UNL     1      -0.365   3.536  -0.119  0.00  0.00    +0.014 A 
ATOM      8  C   UNL     1       0.113   2.263  -0.353  0.00  0.00    +0.132 A 
ATOM      9  C   UNL     1      -0.759   1.211  -0.554  0.00  0.00    +0.036 A 
ATOM     10  C   UNL     1      -2.123   1.436  -0.509  0.00  0.00    +0.042 A 
ATOM     11  C   UNL     1      -2.611   2.705  -0.282  0.00  0.00    +0.145 A 
ATOM     12  C   UNL     1      -1.740   3.782  -0.090  0.00  0.00    +0.069 A 
ATOM     13  N   UNL     1      -2.305   5.041   0.110  0.00  0.00    -0.334 N 
ATOM     14  F   UNL     1      -3.945   2.911  -0.246  0.00  0.00    -0.204 F 
ATOM     15  H   UNL     1      -2.922   5.285  -0.649  0.00  0.00    +0.147 HD
ENDROOT
BRANCH   1  20
ATOM     16  C   UNL     1       0.121   5.993   5.990  0.00  0.00    +0.044 C 
ATOM     17  C   UNL     1      -0.270   6.032   4.535  0.00  0.00    -0.050 A 
ATOM     18  C   UNL     1      -0.204   7.221   3.833  0.00  0.00    +0.004 A 
ATOM     19  C   UNL     1      -0.562   7.257   2.499  0.00  0.00    +0.006 A 
ATOM     20  C   UNL     1      -0.986   6.104   1.865  0.00  0.00    -0.027 A 
ATOM     21  C   UNL     1      -1.057   4.916   2.568  0.00  0.00    +0.006 A 
ATOM     22  C   UNL     1      -0.695   4.879   3.902  0.00  0.00    +0.004 A 
ENDBRANCH   1  20
BRANCH   8  23
ATOM     23  N   UNL     1       1.573   2.025  -0.396  0.00  0.00    +0.057 N 
ATOM     24  O   UNL     1       2.068   1.445  -1.346  0.00  0.00    -0.126 OA
ATOM     25  O   UNL     1       2.280   2.412   0.517  0.00  0.00    -0.126 OA
ENDBRANCH   8  23
TORSDOF 2
