REMARK  Name = ZINC12702705
REMARK  10 active torsions:
REMARK  status: ('A' for Active; 'I' for Inactive)
REMARK    1  A    between atoms: C_6  and  C_7
REMARK    2  A    between atoms: N_10  and  C_12
REMARK    3  A    between atoms: C_12  and  C_13
REMARK    4  A    between atoms: N_15  and  C_16
REMARK    5  A    between atoms: N_15  and  C_23
REMARK    6  A    between atoms: C_16  and  C_17
REMARK    7  A    between atoms: C_23  and  C_25
REMARK    8  A    between atoms: C_23  and  C_32
REMARK    9  A    between atoms: C_28  and  O_31
REMARK   10  A    between atoms: N_34  and  C_35
REMARK                            x       y       z     vdW  Elec       q    Type
REMARK                         _______ _______ _______ _____ _____    ______ ____
ROOT
ATOM      1  C   UNL     1      -3.100   2.792   1.494  0.00  0.00    +0.240 C 
ATOM      2  O   UNL     1      -3.168   1.628   1.827  0.00  0.00    -0.273 OA
ATOM      3  N   UNL     1      -2.091   3.209   0.704  0.00  0.00    -0.282 N 
ENDROOT
BRANCH   1   4
ATOM      4  C   UNL     1      -4.144   3.772   1.963  0.00  0.00    +0.264 C 
BRANCH   4   8
ATOM      5  C   UNL     1      -6.824   1.996   3.418  0.00  0.00    +0.205 A 
ATOM      6  N   UNL     1      -6.072   2.274   4.492  0.00  0.00    -0.108 NA
ATOM      7  N   UNL     1      -5.043   2.934   4.079  0.00  0.00    -0.045 NA
ATOM      8  N   UNL     1      -5.124   3.077   2.802  0.00  0.00    -0.154 N 
ATOM      9  N   UNL     1      -6.205   2.518   2.378  0.00  0.00    -0.130 NA
BRANCH   5  15
ATOM     10  C   UNL     1      -8.783   1.045   2.203  0.00  0.00    +0.014 A 
ATOM     11  C   UNL     1      -9.973   0.347   2.193  0.00  0.00    +0.039 A 
ATOM     12  C   UNL     1     -10.503  -0.138   3.378  0.00  0.00    +0.123 A 
ATOM     13  C   UNL     1      -9.838   0.070   4.575  0.00  0.00    +0.039 A 
ATOM     14  C   UNL     1      -8.645   0.762   4.593  0.00  0.00    +0.014 A 
ATOM     15  C   UNL     1      -8.108   1.251   3.404  0.00  0.00    +0.023 A 
ATOM     16  F   UNL     1     -11.672  -0.816   3.365  0.00  0.00    -0.205 F 
ENDBRANCH   5  15
ENDBRANCH   4   8
ENDBRANCH   1   4
BRANCH   3  17
ATOM     17  C   UNL     1      -2.010   4.616   0.301  0.00  0.00    +0.140 C 
BRANCH  17  18
ATOM     18  C   UNL     1      -2.943   4.861  -0.886  0.00  0.00    +0.136 C 
ATOM     19  C   UNL     1      -2.688   6.260  -1.490  0.00  0.00    +0.035 C 
ATOM     20  C   UNL     1      -4.095   6.757  -1.892  0.00  0.00    +0.031 C 
ATOM     21  C   UNL     1      -5.032   5.600  -1.484  0.00  0.00    +0.160 C 
ATOM     22  O   UNL     1      -4.318   4.891  -0.447  0.00  0.00    -0.375 OA
ENDBRANCH  17  18
ENDBRANCH   3  17
BRANCH   3  23
ATOM     23  C   UNL     1      -1.076   2.257   0.247  0.00  0.00    +0.192 C 
BRANCH  23  24
ATOM     24  C   UNL     1       0.172   2.416   1.078  0.00  0.00    -0.018 A 
ATOM     25  C   UNL     1       0.616   3.680   1.421  0.00  0.00    +0.009 A 
ATOM     26  C   UNL     1       1.762   3.828   2.177  0.00  0.00    +0.046 A 
ATOM     27  C   UNL     1       2.468   2.708   2.592  0.00  0.00    +0.117 A 
ATOM     28  C   UNL     1       2.020   1.442   2.247  0.00  0.00    +0.046 A 
ATOM     29  C   UNL     1       0.873   1.298   1.490  0.00  0.00    +0.009 A 
BRANCH  27  30
ATOM     30  O   UNL     1       3.596   2.852   3.337  0.00  0.00    -0.507 OA
ATOM     31  H   UNL     1       4.406   2.924   2.814  0.00  0.00    +0.292 HD
ENDBRANCH  27  30
ENDBRANCH  23  24
BRANCH  23  32
ATOM     32  C   UNL     1      -0.753   2.522  -1.200  0.00  0.00    +0.238 C 
ATOM     33  O   UNL     1      -0.627   3.662  -1.595  0.00  0.00    -0.273 OA
ATOM     34  N   UNL     1      -0.603   1.492  -2.057  0.00  0.00    -0.311 N 
ATOM     35  H   UNL     1      -0.704   0.581  -1.742  0.00  0.00    +0.149 HD
BRANCH  34  36
ATOM     36  C   UNL     1      -0.289   1.750  -3.465  0.00  0.00    +0.073 C 
ATOM     37  C   UNL     1      -1.591   1.947  -4.269  0.00  0.00    +0.022 C 
ATOM     38  C   UNL     1      -1.299   1.275  -5.634  0.00  0.00    +0.002 C 
ATOM     39  C   UNL     1      -0.466   0.033  -5.232  0.00  0.00    +0.002 C 
ATOM     40  C   UNL     1       0.426   0.533  -4.077  0.00  0.00    +0.022 C 
ENDBRANCH  34  36
ENDBRANCH  23  32
ENDBRANCH   3  23
TORSDOF 10
