REMARK  Name = ZINC02971262
REMARK  5 active torsions:
REMARK  status: ('A' for Active; 'I' for Inactive)
REMARK    1  A    between atoms: N_9  and  C_22
REMARK    2  A    between atoms: C_10  and  S_12
REMARK    3  A    between atoms: S_12  and  C_13
REMARK    4  A    between atoms: C_13  and  C_14
REMARK    5  A    between atoms: C_22  and  C_23
REMARK                            x       y       z     vdW  Elec       q    Type
REMARK                         _______ _______ _______ _____ _____    ______ ____
ROOT
ATOM      1  C   UNL     1       7.430  -1.740  -3.956  0.00  0.00    +0.001 A 
ATOM      2  C   UNL     1       7.328  -1.121  -5.195  0.00  0.00    +0.002 A 
ATOM      3  C   UNL     1       6.518  -0.035  -5.373  0.00  0.00    +0.028 A 
ATOM      4  C   UNL     1       5.777   0.461  -4.296  0.00  0.00    +0.079 A 
ATOM      5  C   UNL     1       5.884  -0.172  -3.037  0.00  0.00    +0.065 A 
ATOM      6  C   UNL     1       6.719  -1.278  -2.883  0.00  0.00    +0.015 A 
ATOM      7  C   UNL     1       5.100   0.370  -1.919  0.00  0.00    +0.263 A 
ATOM      8  O   UNL     1       5.153  -0.129  -0.810  0.00  0.00    -0.267 OA
ATOM      9  N   UNL     1       4.315   1.444  -2.169  0.00  0.00    -0.284 N 
ATOM     10  C   UNL     1       4.272   1.994  -3.418  0.00  0.00    +0.173 A 
ATOM     11  N   UNL     1       4.965   1.529  -4.428  0.00  0.00    -0.223 NA
ENDROOT
BRANCH  10  12
ATOM     12  S   UNL     1       3.236   3.394  -3.685  0.00  0.00    -0.083 S 
BRANCH  12  13
ATOM     13  C   UNL     1       3.556   3.692  -5.441  0.00  0.00    +0.118 C 
BRANCH  13  14
ATOM     14  C   UNL     1       2.752   4.880  -5.903  0.00  0.00    +0.033 A 
ATOM     15  C   UNL     1       1.477   4.699  -6.410  0.00  0.00    +0.130 A 
ATOM     16  C   UNL     1       0.738   5.792  -6.830  0.00  0.00    +0.039 A 
ATOM     17  C   UNL     1       1.276   7.062  -6.754  0.00  0.00    +0.006 A 
ATOM     18  C   UNL     1       2.551   7.244  -6.252  0.00  0.00    +0.039 A 
ATOM     19  C   UNL     1       3.291   6.153  -5.827  0.00  0.00    +0.130 A 
ATOM     20  F   UNL     1       4.537   6.331  -5.337  0.00  0.00    -0.205 F 
ATOM     21  F   UNL     1       0.952   3.457  -6.490  0.00  0.00    -0.205 F 
ENDBRANCH  13  14
ENDBRANCH  12  13
ENDBRANCH  10  12
BRANCH   9  22
ATOM     22  C   UNL     1       3.509   2.023  -1.091  0.00  0.00    +0.175 C 
BRANCH  22  23
ATOM     23  C   UNL     1       2.135   1.351  -1.063  0.00  0.00    +0.231 C 
ATOM     24  C   UNL     1       1.254   2.018   0.001  0.00  0.00    +0.275 C 
ATOM     25  O   UNL     1      -0.016   1.357   0.009  0.00  0.00    -0.485 OA
ATOM     26  C   UNL     1       0.002  -0.004   0.002  0.00  0.00    +0.162 A 
ATOM     27  C   UNL     1      -1.139  -0.703   0.368  0.00  0.00    +0.049 A 
ATOM     28  C   UNL     1      -1.137  -2.084   0.362  0.00  0.00    +0.004 A 
ATOM     29  C   UNL     1       0.003  -2.775  -0.008  0.00  0.00    +0.004 A 
ATOM     30  C   UNL     1       1.144  -2.085  -0.372  0.00  0.00    +0.049 A 
ATOM     31  C   UNL     1       1.148  -0.698  -0.368  0.00  0.00    +0.163 A 
ATOM     32  O   UNL     1       2.281  -0.032  -0.723  0.00  0.00    -0.480 OA
ENDBRANCH  22  23
ENDBRANCH   9  22
TORSDOF 5
