REMARK  Name = ZINC23354061
REMARK  9 active torsions:
REMARK  status: ('A' for Active; 'I' for Inactive)
REMARK    1  A    between atoms: C_1  and  C_2
REMARK    2  A    between atoms: C_2  and  N_3
REMARK    3  A    between atoms: C_6  and  C_8
REMARK    4  A    between atoms: C_17  and  N_21
REMARK    5  A    between atoms: N_21  and  C_22
REMARK    6  A    between atoms: C_22  and  C_23
REMARK    7  A    between atoms: C_23  and  C_24
REMARK    8  A    between atoms: C_23  and  C_25
REMARK    9  A    between atoms: C_23  and  N_26
REMARK                            x       y       z     vdW  Elec       q    Type
REMARK                         _______ _______ _______ _____ _____    ______ ____
ROOT
ATOM      1  N   UNL     1      -2.075  -0.773  -0.640  0.00  0.00    -0.268 N 
ATOM      2  C   UNL     1      -2.456  -1.147   0.593  0.00  0.00    +0.043 A 
ATOM      3  C   UNL     1      -3.621  -1.828   0.464  0.00  0.00    +0.004 A 
ATOM      4  C   UNL     1      -3.913  -1.836  -0.910  0.00  0.00    +0.151 A 
ATOM      5  N   UNL     1      -2.937  -1.176  -1.509  0.00  0.00    -0.166 NA
ATOM      6  C   UNL     1      -4.390  -2.429   1.608  0.00  0.00    +0.023 C 
ATOM      7  C   UNL     1      -3.462  -2.500   2.828  0.00  0.00    -0.067 C 
ATOM      8  C   UNL     1      -2.786  -1.142   3.036  0.00  0.00    -0.009 C 
ATOM      9  C   UNL     1      -1.772  -0.893   1.912  0.00  0.00    +0.054 C 
ENDROOT
BRANCH   4  10
ATOM     10  C   UNL     1      -5.086  -2.457  -1.559  0.00  0.00    +0.267 C 
ATOM     11  O   UNL     1      -5.970  -2.943  -0.880  0.00  0.00    -0.268 OA
ATOM     12  N   UNL     1      -5.177  -2.485  -2.904  0.00  0.00    -0.296 N 
ATOM     13  C   UNL     1      -4.050  -2.046  -3.739  0.00  0.00    +0.108 C 
ATOM     14  C   UNL     1      -3.709  -3.160  -4.733  0.00  0.00    +0.019 C 
ATOM     15  C   UNL     1      -4.966  -3.538  -5.520  0.00  0.00    +0.003 C 
ATOM     16  C   UNL     1      -6.036  -4.060  -4.558  0.00  0.00    +0.019 C 
ATOM     17  C   UNL     1      -6.401  -2.961  -3.562  0.00  0.00    +0.108 C 
ENDBRANCH   4  10
BRANCH   7  18
ATOM     18  N   UNL     1      -4.247  -2.844   4.021  0.00  0.00    +0.382 N 
ATOM     19  H   UNL     1      -4.896  -2.099   4.223  0.00  0.00    -0.085 HD
ATOM     20  H   UNL     1      -4.756  -3.699   3.853  0.00  0.00    -0.085 HD
BRANCH  18  21
ATOM     21  C   UNL     1      -3.343  -3.030   5.164  0.00  0.00    -0.060 C 
BRANCH  21  22
ATOM     22  C   UNL     1      -4.143  -3.526   6.371  0.00  0.00    +0.001 C 
ATOM     23  C   UNL     1      -4.664  -4.937   6.092  0.00  0.00    +0.025 C 
ATOM     24  C   UNL     1      -3.241  -3.550   7.606  0.00  0.00    +0.025 C 
BRANCH  22  25
ATOM     25  N   UNL     1      -5.278  -2.624   6.610  0.00  0.00    -0.295 NA
ATOM     26  C   UNL     1      -4.817  -1.246   6.835  0.00  0.00    +0.113 C 
ATOM     27  C   UNL     1      -6.031  -0.332   7.021  0.00  0.00    +0.175 C 
ATOM     28  O   UNL     1      -6.828  -0.820   8.103  0.00  0.00    -0.377 OA
ATOM     29  C   UNL     1      -7.294  -2.159   7.917  0.00  0.00    +0.175 C 
ATOM     30  C   UNL     1      -6.093  -3.092   7.740  0.00  0.00    +0.113 C 
ENDBRANCH  22  25
ENDBRANCH  21  22
ENDBRANCH  18  21
ENDBRANCH   7  18
BRANCH   1  32
ATOM     31  C   UNL     1      -1.173   1.485  -0.904  0.00  0.00    +0.029 C 
ATOM     32  C   UNL     1      -0.862  -0.013  -0.950  0.00  0.00    +0.140 C 
ENDBRANCH   1  32
TORSDOF 6
