REMARK  Name = ZINC22626764
REMARK  7 active torsions:
REMARK  status: ('A' for Active; 'I' for Inactive)
REMARK    1  A    between atoms: C_1  and  C_2
REMARK    2  A    between atoms: C_7  and  O_29
REMARK    3  A    between atoms: C_8  and  C_10
REMARK    4  A    between atoms: C_10  and  C_12
REMARK    5  A    between atoms: C_10  and  N_19
REMARK    6  A    between atoms: C_21  and  C_28
REMARK    7  A    between atoms: C_24  and  C_27
REMARK                            x       y       z     vdW  Elec       q    Type
REMARK                         _______ _______ _______ _____ _____    ______ ____
ROOT
ATOM      1  C   UNL     1       2.490   1.047  -0.015  0.00  0.00    +0.131 C 
ENDROOT
BRANCH   1   9
ATOM      2  C   UNL     1       5.944   1.752  -6.588  0.00  0.00    +0.090 C 
ATOM      3  C   UNL     1       5.152   1.498  -5.332  0.00  0.00    +0.150 A 
ATOM      4  N   UNL     1       4.146   0.634  -5.216  0.00  0.00    -0.205 NA
ATOM      5  C   UNL     1       3.687   0.667  -3.995  0.00  0.00    +0.199 A 
ATOM      6  N   UNL     1       4.395   1.572  -3.265  0.00  0.00    -0.173 N 
ATOM      7  N   UNL     1       5.344   2.091  -4.184  0.00  0.00    -0.147 NA
ATOM      8  C   UNL     1       4.037   1.738  -1.949  0.00  0.00    +0.228 A 
ATOM      9  C   UNL     1       3.036   1.024  -1.419  0.00  0.00    +0.076 A 
ATOM     10  S   UNL     1       2.513   0.042  -2.817  0.00  0.00    -0.047 S 
BRANCH   8  11
ATOM     11  O   UNL     1       4.708   2.634  -1.176  0.00  0.00    -0.492 OA
ATOM     12  H   UNL     1       4.425   2.771  -0.122  0.00  0.00    +0.294 HD
ENDBRANCH   8  11
ENDBRANCH   1   9
BRANCH   1  13
ATOM     13  N   UNL     1       2.287  -0.330   0.454  0.00  0.00    -0.286 NA
ATOM     14  C   UNL     1       1.673  -0.346   1.790  0.00  0.00    +0.116 C 
ATOM     15  C   UNL     1       1.425  -1.796   2.214  0.00  0.00    +0.130 C 
ATOM     16  O   UNL     1       2.659  -2.517   2.176  0.00  0.00    -0.371 OA
ATOM     17  C   UNL     1       3.284  -2.522   0.890  0.00  0.00    +0.130 C 
ATOM     18  C   UNL     1       3.551  -1.079   0.452  0.00  0.00    +0.116 C 
ATOM     19  C   UNL     1       4.607  -3.286   0.966  0.00  0.00    +0.039 C 
ATOM     20  C   UNL     1       0.424  -2.445   1.255  0.00  0.00    +0.039 C 
ENDBRANCH   1  13
BRANCH   1  21
ATOM     21  C   UNL     1       1.175   1.783   0.000  0.00  0.00    -0.007 A 
ATOM     22  C   UNL     1      -0.013   1.076   0.008  0.00  0.00    +0.007 A 
ATOM     23  C   UNL     1      -1.219   1.750   0.017  0.00  0.00    +0.000 A 
ATOM     24  C   UNL     1      -1.238   3.133   0.030  0.00  0.00    +0.001 A 
ATOM     25  C   UNL     1      -0.052   3.841   0.022  0.00  0.00    +0.020 A 
ATOM     26  C   UNL     1       1.156   3.166   0.008  0.00  0.00    +0.046 A 
ATOM     27 CL   UNL     1       2.647   4.055  -0.003  0.00  0.00    -0.083 Cl
ENDBRANCH   1  21
TORSDOF 4
