REMARK  Name = ZINC08896486
REMARK  8 active torsions:
REMARK  status: ('A' for Active; 'I' for Inactive)
REMARK    1  A    between atoms: C_1  and  C_2
REMARK    2  A    between atoms: C_2  and  C_4
REMARK    3  A    between atoms: C_2  and  S_14
REMARK    4  A    between atoms: N_6  and  C_7
REMARK    5  A    between atoms: C_7  and  C_8
REMARK    6  A    between atoms: S_14  and  C_15
REMARK    7  A    between atoms: C_18  and  C_27
REMARK    8  A    between atoms: N_19  and  C_20
REMARK                            x       y       z     vdW  Elec       q    Type
REMARK                         _______ _______ _______ _____ _____    ______ ____
ROOT
ATOM      1  C   UNL     1      -5.141   0.755   0.658  0.00  0.00    +0.197 A 
ATOM      2  N   UNL     1      -5.075  -0.512   0.323  0.00  0.00    -0.122 NA
ATOM      3  N   UNL     1      -6.221  -1.072   0.477  0.00  0.00    -0.128 NA
ATOM      4  C   UNL     1      -7.096  -0.194   0.912  0.00  0.00    +0.171 A 
ATOM      5  N   UNL     1      -6.432   1.006   1.042  0.00  0.00    -0.270 N 
ENDROOT
BRANCH   4   6
ATOM      6  C   UNL     1      -8.521  -0.445   1.206  0.00  0.00    +0.045 A 
ATOM      7  C   UNL     1      -9.429   0.459   1.655  0.00  0.00    +0.095 A 
ATOM      8  N   UNL     1     -10.643  -0.145   1.810  0.00  0.00    -0.360 N 
ATOM      9  H   UNL     1     -11.448   0.299   2.120  0.00  0.00    +0.165 HD
ATOM     10  C   UNL     1     -10.561  -1.476   1.462  0.00  0.00    +0.047 A 
ATOM     11  C   UNL     1      -9.236  -1.725   1.062  0.00  0.00    +0.010 A 
ATOM     12  C   UNL     1      -8.862  -3.001   0.646  0.00  0.00    +0.011 A 
ATOM     13  C   UNL     1      -9.795  -4.013   0.625  0.00  0.00    +0.001 A 
ATOM     14  C   UNL     1     -11.104  -3.767   1.016  0.00  0.00    +0.002 A 
ATOM     15  C   UNL     1     -11.487  -2.513   1.437  0.00  0.00    +0.026 A 
ENDBRANCH   4   6
BRANCH   5  16
ATOM     16  C   UNL     1      -6.966   2.228   1.476  0.00  0.00    +0.051 A 
ATOM     17  C   UNL     1      -7.433   2.360   2.777  0.00  0.00    +0.028 A 
ATOM     18  C   UNL     1      -7.953   3.566   3.204  0.00  0.00    +0.022 A 
ATOM     19  C   UNL     1      -8.019   4.639   2.333  0.00  0.00    +0.041 A 
ATOM     20  C   UNL     1      -7.559   4.509   1.035  0.00  0.00    +0.022 A 
ATOM     21  C   UNL     1      -7.033   3.307   0.605  0.00  0.00    +0.028 A 
ATOM     22 CL   UNL     1      -8.680   6.152   2.871  0.00  0.00    -0.084 Cl
ENDBRANCH   5  16
BRANCH   1  23
ATOM     23  S   UNL     1      -3.818   1.918   0.614  0.00  0.00    -0.073 S 
BRANCH  23  25
ATOM     24  C   UNL     1      -2.799   0.384  -1.403  0.00  0.00    +0.029 C 
ATOM     25  C   UNL     1      -2.482   0.853   0.018  0.00  0.00    +0.137 C 
BRANCH  25  26
ATOM     26  C   UNL     1      -1.187   1.624   0.017  0.00  0.00    +0.226 C 
ATOM     27  O   UNL     1      -1.204   2.837   0.023  0.00  0.00    -0.275 OA
ATOM     28  N   UNL     1      -0.011   0.966   0.007  0.00  0.00    -0.312 N 
ATOM     29  H   UNL     1       0.002  -0.004   0.002  0.00  0.00    +0.149 HD
BRANCH  28  30
ATOM     30  C   UNL     1       1.248   1.716  -0.001  0.00  0.00    +0.135 C 
BRANCH  30  31
ATOM     31  C   UNL     1       2.424   0.737  -0.017  0.00  0.00    +0.135 C 
ATOM     32  C   UNL     1       3.761   1.502   0.100  0.00  0.00    +0.035 C 
ATOM     33  C   UNL     1       4.723   0.719  -0.821  0.00  0.00    +0.031 C 
ATOM     34  C   UNL     1       3.853  -0.425  -1.386  0.00  0.00    +0.160 C 
ATOM     35  O   UNL     1       2.497   0.060  -1.291  0.00  0.00    -0.375 OA
ENDBRANCH  30  31
ENDBRANCH  28  30
ENDBRANCH  25  26
ENDBRANCH  23  25
ENDBRANCH   1  23
TORSDOF 7
