REMARK  Name = ZINC09111549
REMARK  5 active torsions:
REMARK  status: ('A' for Active; 'I' for Inactive)
REMARK    1  A    between atoms: C_10  and  N_11
REMARK    2  A    between atoms: C_15  and  N_16
REMARK    3  A    between atoms: N_16  and  N_17
REMARK    4  A    between atoms: C_22  and  C_24
REMARK    5  A    between atoms: C_30  and  O_34
REMARK                            x       y       z     vdW  Elec       q    Type
REMARK                         _______ _______ _______ _____ _____    ______ ____
ROOT
ATOM      1  N   UNL     1      -2.348   4.175   0.056  0.00  0.00    -0.188 N 
ATOM      2  C   UNL     1      -3.043   4.271  -1.098  0.00  0.00    +0.265 C 
ATOM      3  O   UNL     1      -2.637   3.751  -2.121  0.00  0.00    -0.269 OA
ATOM      4  C   UNL     1      -4.311   5.021  -1.077  0.00  0.00    +0.111 C 
ATOM      5  C   UNL     1      -5.088   5.163  -2.217  0.00  0.00    +0.102 C 
ATOM      6  C   UNL     1      -4.713   5.616   0.205  0.00  0.00    +0.219 C 
ATOM      7  N   UNL     1      -3.927   5.444   1.255  0.00  0.00    -0.127 NA
ATOM      8  C   UNL     1      -2.793   4.753   1.182  0.00  0.00    +0.340 C 
ATOM      9  O   UNL     1      -2.123   4.637   2.193  0.00  0.00    -0.250 OA
ENDROOT
BRANCH   1  19
ATOM     10  C   UNL     1       2.491   5.379  -0.729  0.00  0.00    +0.001 A 
ATOM     11  C   UNL     1       1.301   6.103  -0.755  0.00  0.00    +0.001 A 
ATOM     12  C   UNL     1       0.109   5.499  -0.495  0.00  0.00    +0.010 A 
ATOM     13  C   UNL     1       0.074   4.128  -0.197  0.00  0.00    +0.004 A 
ATOM     14  C   UNL     1       1.284   3.391  -0.172  0.00  0.00    -0.016 A 
ATOM     15  C   UNL     1       2.496   4.048  -0.445  0.00  0.00    +0.008 A 
ATOM     16  C   UNL     1       1.252   2.018   0.126  0.00  0.00    +0.008 A 
ATOM     17  C   UNL     1       0.063   1.407   0.386  0.00  0.00    +0.002 A 
ATOM     18  C   UNL     1      -1.132   2.119   0.358  0.00  0.00    +0.024 A 
ATOM     19  C   UNL     1      -1.142   3.468   0.077  0.00  0.00    +0.053 A 
ENDBRANCH   1  19
BRANCH   5  20
ATOM     20  N   UNL     1      -6.316   5.707  -2.131  0.00  0.00    -0.283 N 
ATOM     21  H   UNL     1      -6.696   5.912  -1.263  0.00  0.00    +0.166 HD
BRANCH  20  22
ATOM     22  N   UNL     1      -7.027   5.972  -3.267  0.00  0.00    -0.222 NA
ATOM     23  C   UNL     1      -8.250   5.161  -3.324  0.00  0.00    +0.106 C 
ATOM     24  C   UNL     1      -9.090   5.586  -4.530  0.00  0.00    +0.017 C 
ATOM     25  C   UNL     1      -8.270   5.397  -5.810  0.00  0.00    +0.003 C 
ATOM     26  C   UNL     1      -6.979   6.213  -5.705  0.00  0.00    +0.025 C 
ATOM     27  C   UNL     1      -6.200   5.770  -4.464  0.00  0.00    +0.107 C 
BRANCH  27  28
ATOM     28  C   UNL     1      -4.938   6.585  -4.346  0.00  0.00    -0.011 A 
ATOM     29  C   UNL     1      -3.722   6.062  -4.761  0.00  0.00    +0.008 A 
ATOM     30  C   UNL     1      -2.588   6.849  -4.637  0.00  0.00    +0.020 A 
ATOM     31  C   UNL     1      -2.704   8.117  -4.099  0.00  0.00    +0.111 A 
ATOM     32  N   UNL     1      -3.876   8.581  -3.711  0.00  0.00    -0.263 NA
ATOM     33  C   UNL     1      -4.976   7.861  -3.817  0.00  0.00    +0.116 A 
ENDBRANCH  27  28
ENDBRANCH  20  22
ENDBRANCH   5  20
BRANCH   6  34
ATOM     34  O   UNL     1      -5.859   6.322   0.308  0.00  0.00    -0.493 OA
ATOM     35  H   UNL     1      -6.028   6.669   1.195  0.00  0.00    +0.294 HD
ENDBRANCH   6  34
TORSDOF 5
