REMARK  Name = ZINC66739398
REMARK  4 active torsions:
REMARK  status: ('A' for Active; 'I' for Inactive)
REMARK    1  A    between atoms: C_1  and  C_2
REMARK    2  A    between atoms: C_2  and  N_3
REMARK    3  A    between atoms: C_4  and  C_15
REMARK    4  A    between atoms: C_18  and  C_20
REMARK                            x       y       z     vdW  Elec       q    Type
REMARK                         _______ _______ _______ _____ _____    ______ ____
ROOT
ATOM      1  N   UNL     1       0.717  -0.466   1.175  0.00  0.00    -0.279 N 
ATOM      2  C   UNL     1       2.134  -0.846   1.238  0.00  0.00    +0.195 C 
ATOM      3  N   UNL     1       2.285  -1.675   2.457  0.00  0.00    -0.280 NA
ATOM      4  C   UNL     1       1.191  -1.193   3.327  0.00  0.00    +0.098 C 
ATOM      5  C   UNL     1       0.147  -0.645   2.385  0.00  0.00    +0.237 C 
ATOM      6  O   UNL     1      -1.009  -0.408   2.667  0.00  0.00    -0.274 OA
ATOM      7  C   UNL     1       1.703  -0.089   4.247  0.00  0.00    +0.031 C 
ATOM      8  C   UNL     1       0.560   0.410   5.134  0.00  0.00    +0.002 C 
ATOM      9  C   UNL     1       0.014  -0.753   5.964  0.00  0.00    +0.000 C 
ATOM     10  C   UNL     1      -0.516  -1.843   5.029  0.00  0.00    +0.002 C 
ATOM     11  C   UNL     1       0.624  -2.351   4.142  0.00  0.00    +0.031 C 
ATOM     12  H   UNL     1       2.173  -2.654   2.244  0.00  0.00    +0.125 HD
ENDROOT
BRANCH   2  13
ATOM     13  C   UNL     1       2.511  -1.644   0.017  0.00  0.00    +0.084 A 
ATOM     14  C   UNL     1       3.541  -1.236  -0.771  0.00  0.00    +0.074 A 
ATOM     15  S   UNL     1       3.531  -2.517  -2.019  0.00  0.00    -0.072 S 
ATOM     16  C   UNL     1       2.160  -3.455  -1.357  0.00  0.00    +0.144 A 
ATOM     17  N   UNL     1       1.850  -2.737  -0.283  0.00  0.00    -0.238 NA
BRANCH  16  18
ATOM     18  C   UNL     1       1.545  -4.692  -1.862  0.00  0.00    +0.160 A 
ATOM     19  C   UNL     1       1.929  -5.381  -2.973  0.00  0.00    +0.052 A 
ATOM     20  C   UNL     1       1.070  -6.492  -3.078  0.00  0.00    +0.042 A 
ATOM     21  C   UNL     1       0.214  -6.430  -2.038  0.00  0.00    +0.196 A 
ATOM     22  O   UNL     1       0.507  -5.345  -1.303  0.00  0.00    -0.461 OA
ENDBRANCH  16  18
ENDBRANCH   2  13
BRANCH   1  24
ATOM     23  C   UNL     1       0.123   1.564  -0.053  0.00  0.00    +0.024 C 
ATOM     24  C   UNL     1       0.030   0.037  -0.017  0.00  0.00    +0.106 C 
ENDBRANCH   1  24
TORSDOF 3
