REMARK  Name = ZINC50931945
REMARK  6 active torsions:
REMARK  status: ('A' for Active; 'I' for Inactive)
REMARK    1  A    between atoms: C_1  and  C_2
REMARK    2  A    between atoms: C_4  and  N_22
REMARK    3  A    between atoms: N_6  and  C_7
REMARK    4  A    between atoms: N_8  and  C_9
REMARK    5  A    between atoms: N_12  and  C_15
REMARK    6  A    between atoms: C_15  and  C_16
REMARK                            x       y       z     vdW  Elec       q    Type
REMARK                         _______ _______ _______ _____ _____    ______ ____
ROOT
ATOM      1  C   UNL     1      -1.179   5.798  -2.019  0.00  0.00    +0.083 C 
ATOM      2  C   UNL     1      -1.996   6.370  -0.858  0.00  0.00    +0.040 C 
ATOM      3  C   UNL     1      -1.396   7.711  -0.430  0.00  0.00    +0.086 C 
ATOM      4  N   UNL     1      -1.411   8.640  -1.567  0.00  0.00    -0.302 NA
ATOM      5  C   UNL     1      -0.594   8.134  -2.677  0.00  0.00    +0.086 C 
ATOM      6  C   UNL     1      -1.170   6.805  -3.172  0.00  0.00    +0.040 C 
ENDROOT
BRANCH   1  14
ATOM      7  C   UNL     1       2.155   2.217  -4.190  0.00  0.00    +0.083 C 
ATOM      8  C   UNL     1       0.723   2.496  -3.815  0.00  0.00    +0.097 C 
ATOM      9  N   UNL     1      -0.236   1.662  -4.016  0.00  0.00    -0.234 NA
ATOM     10  C   UNL     1      -1.483   2.270  -3.529  0.00  0.00    +0.347 C 
ATOM     11  C   UNL     1      -1.046   3.625  -3.005  0.00  0.00    +0.128 C 
ATOM     12  N   UNL     1       0.314   3.657  -3.223  0.00  0.00    -0.279 N 
ATOM     13  C   UNL     1       1.194   4.776  -2.873  0.00  0.00    +0.138 C 
ATOM     14  N   UNL     1      -1.784   4.542  -2.471  0.00  0.00    -0.370 N 
ATOM     15  H   UNL     1      -2.738   4.399  -2.369  0.00  0.00    +0.161 HD
BRANCH  10  16
ATOM     16  N   UNL     1      -2.442   2.427  -4.625  0.00  0.00    +0.055 N 
ATOM     17  O   UNL     1      -2.075   2.306  -5.771  0.00  0.00    -0.129 OA
ATOM     18  O   UNL     1      -3.600   2.677  -4.384  0.00  0.00    -0.129 OA
ENDBRANCH  10  16
ENDBRANCH   1  14
BRANCH   4  19
ATOM     19  C   UNL     1      -0.970   9.980  -1.158  0.00  0.00    +0.088 C 
BRANCH  19  20
ATOM     20  C   UNL     1      -2.101  10.681  -0.404  0.00  0.00    +0.003 C 
ATOM     21  C   UNL     1      -3.265  10.946  -1.361  0.00  0.00    +0.005 C 
ATOM     22  C   UNL     1      -4.396  11.647  -0.606  0.00  0.00    +0.000 C 
ATOM     23  C   UNL     1      -3.887  12.975  -0.043  0.00  0.00    +0.000 C 
ATOM     24  C   UNL     1      -2.724  12.711   0.914  0.00  0.00    +0.000 C 
ATOM     25  C   UNL     1      -1.592  12.010   0.160  0.00  0.00    +0.005 C 
ENDBRANCH  19  20
ENDBRANCH   4  19
TORSDOF 4
