REMARK  Name = ZINC41394507
REMARK  4 active torsions:
REMARK  status: ('A' for Active; 'I' for Inactive)
REMARK    1  A    between atoms: C_1  and  C_2
REMARK    2  A    between atoms: C_2  and  C_3
REMARK    3  A    between atoms: C_3  and  N_4
REMARK    4  A    between atoms: N_14  and  C_15
REMARK                            x       y       z     vdW  Elec       q    Type
REMARK                         _______ _______ _______ _____ _____    ______ ____
ROOT
ATOM      1  N   UNL     1       0.646  -1.992   1.010  0.00  0.00    -0.280 N 
ATOM      2  C   UNL     1      -0.377  -2.672   1.559  0.00  0.00    +0.264 A 
ATOM      3  O   UNL     1      -1.383  -2.088   1.922  0.00  0.00    -0.267 OA
ATOM      4  C   UNL     1      -0.267  -4.091   1.710  0.00  0.00    +0.076 A 
ATOM      5  C   UNL     1      -1.246  -5.022   2.276  0.00  0.00    -0.023 A 
ATOM      6  C   UNL     1      -0.903  -6.326   2.307  0.00  0.00    -0.004 A 
ATOM      7  S   UNL     1       0.719  -6.393   1.595  0.00  0.00    -0.073 S 
ATOM      8  C   UNL     1       0.934  -4.663   1.258  0.00  0.00    +0.117 A 
ATOM      9  N   UNL     1       1.907  -3.934   0.724  0.00  0.00    -0.208 NA
ATOM     10  C   UNL     1       1.778  -2.630   0.592  0.00  0.00    +0.204 A 
ATOM     11  N   UNL     1       2.798  -1.901   0.031  0.00  0.00    -0.285 N 
ATOM     12  C   UNL     1      -1.720  -7.467   2.831  0.00  0.00    +0.043 C 
ATOM     13  C   UNL     1      -2.866  -6.894   3.676  0.00  0.00    +0.005 C 
ATOM     14  C   UNL     1      -3.536  -5.762   2.891  0.00  0.00    +0.005 C 
ATOM     15  C   UNL     1      -2.597  -4.558   2.811  0.00  0.00    +0.037 C 
ATOM     16  H   UNL     1       2.745  -0.933   0.005  0.00  0.00    +0.155 HD
ENDROOT
BRANCH  11  17
ATOM     17  C   UNL     1       3.914  -2.555  -0.503  0.00  0.00    +0.034 A 
ATOM     18  C   UNL     1       3.769  -3.798  -1.106  0.00  0.00    +0.026 A 
ATOM     19  C   UNL     1       4.871  -4.442  -1.633  0.00  0.00    +0.040 A 
ATOM     20  C   UNL     1       6.120  -3.850  -1.559  0.00  0.00    +0.124 A 
ATOM     21  C   UNL     1       6.268  -2.611  -0.958  0.00  0.00    +0.040 A 
ATOM     22  C   UNL     1       5.167  -1.961  -0.435  0.00  0.00    +0.026 A 
ATOM     23  F   UNL     1       7.198  -4.482  -2.075  0.00  0.00    -0.205 F 
ENDBRANCH  11  17
BRANCH   1  24
ATOM     24  C   UNL     1       0.541  -0.539   0.853  0.00  0.00    +0.128 C 
BRANCH  24  26
ATOM     25  C   UNL     1      -0.192   1.300  -0.672  0.00  0.00    +0.005 C 
ATOM     26  C   UNL     1      -0.082  -0.217  -0.507  0.00  0.00    +0.018 C 
ENDBRANCH  24  26
ENDBRANCH   1  24
TORSDOF 3
