REMARK  Name = ZINC03654552
REMARK  10 active torsions:
REMARK  status: ('A' for Active; 'I' for Inactive)
REMARK    1  A    between atoms: C_1  and  C_2
REMARK    2  A    between atoms: C_2  and  C_37
REMARK    3  A    between atoms: C_6  and  C_22
REMARK    4  A    between atoms: C_8  and  C_20
REMARK    5  A    between atoms: C_24  and  O_32
REMARK    6  A    between atoms: C_25  and  O_30
REMARK    7  A    between atoms: C_27  and  O_28
REMARK    8  A    between atoms: O_28  and  C_29
REMARK    9  A    between atoms: O_30  and  C_31
REMARK   10  A    between atoms: O_32  and  C_33
REMARK                            x       y       z     vdW  Elec       q    Type
REMARK                         _______ _______ _______ _____ _____    ______ ____
ROOT
ATOM      1  C   UNL     1      -2.557  -0.709   7.017  0.00  0.00    +0.011 C 
ATOM      2  C   UNL     1      -1.903  -1.906   7.705  0.00  0.00    -0.023 C 
ATOM      3  C   UNL     1      -0.906  -1.428   8.763  0.00  0.00    +0.058 C 
ATOM      4  C   UNL     1       0.176  -0.593   8.120  0.00  0.00    +0.025 C 
ATOM      5  C   UNL     1       0.545  -0.884   6.848  0.00  0.00    +0.025 C 
ATOM      6  C   UNL     1       1.525   0.034   6.151  0.00  0.00    +0.101 C 
ATOM      7  C   UNL     1       1.883   1.312   6.881  0.00  0.00    +0.082 C 
ATOM      8  C   UNL     1       1.431   1.462   8.187  0.00  0.00    +0.146 C 
ATOM      9  N   UNL     1       0.719   0.458   8.814  0.00  0.00    -0.256 N 
ATOM     10  C   UNL     1       0.540   0.542  10.192  0.00  0.00    +0.050 A 
ATOM     11  C   UNL     1       0.212  -0.547  10.980  0.00  0.00    +0.024 A 
ATOM     12  C   UNL     1      -0.139  -0.368  12.305  0.00  0.00    +0.002 A 
ATOM     13  C   UNL     1      -0.071   0.886  12.889  0.00  0.00    +0.001 A 
ATOM     14  C   UNL     1       0.383   1.964  12.158  0.00  0.00    +0.013 A 
ATOM     15  C   UNL     1       0.732   1.790  10.820  0.00  0.00    +0.036 A 
ATOM     16  C   UNL     1       1.349   2.873  10.039  0.00  0.00    +0.127 C 
ATOM     17  N   UNL     1       1.679   2.637   8.787  0.00  0.00    -0.215 NA
ATOM     18  N   UNL     1       1.579   4.105  10.599  0.00  0.00    -0.343 N 
ATOM     19  C   UNL     1       0.063  -2.023   6.193  0.00  0.00    +0.162 C 
ATOM     20  O   UNL     1       0.624  -2.436   5.194  0.00  0.00    -0.292 OA
ATOM     21  C   UNL     1      -1.154  -2.763   6.683  0.00  0.00    +0.086 C 
ATOM     22  C   UNL     1      -2.985  -2.755   8.382  0.00  0.00    +0.011 C 
ATOM     23  H   UNL     1       1.334   4.271  11.523  0.00  0.00    +0.144 HD
ATOM     24  H   UNL     1       1.987   4.809  10.071  0.00  0.00    +0.144 HD
ENDROOT
BRANCH   6  25
ATOM     25  C   UNL     1       0.934   0.440   4.822  0.00  0.00    +0.011 A 
ATOM     26  C   UNL     1      -0.205   1.223   4.784  0.00  0.00    +0.057 A 
ATOM     27  C   UNL     1      -0.749   1.596   3.566  0.00  0.00    +0.162 A 
ATOM     28  C   UNL     1      -0.148   1.182   2.380  0.00  0.00    +0.165 A 
ATOM     29  C   UNL     1       0.989   0.393   2.421  0.00  0.00    +0.095 A 
ATOM     30  C   UNL     1       1.534   0.026   3.643  0.00  0.00    +0.128 A 
BRANCH  30  31
ATOM     31  O   UNL     1       2.653  -0.745   3.683  0.00  0.00    -0.495 OA
ATOM     32  C   UNL     1       3.218  -1.135   2.430  0.00  0.00    +0.277 C 
ENDBRANCH  30  31
BRANCH  28  33
ATOM     33  O   UNL     1      -0.682   1.547   1.184  0.00  0.00    -0.491 OA
ATOM     34  C   UNL     1      -0.013   1.086   0.008  0.00  0.00    +0.277 C 
ENDBRANCH  28  33
BRANCH  27  35
ATOM     35  O   UNL     1      -1.870   2.366   3.528  0.00  0.00    -0.491 OA
ATOM     36  C   UNL     1      -2.433   2.754   4.783  0.00  0.00    +0.277 C 
ENDBRANCH  27  35
ENDBRANCH   6  25
BRANCH   7  37
ATOM     37  C   UNL     1       2.666   2.328   6.245  0.00  0.00    +0.099 C 
ATOM     38  N   UNL     1       3.287   3.135   5.740  0.00  0.00    -0.191 NA
ENDBRANCH   7  37
TORSDOF 5
