REMARK  Name = ZINC22340838
REMARK  4 active torsions:
REMARK  status: ('A' for Active; 'I' for Inactive)
REMARK    1  A    between atoms: C_8  and  C_10
REMARK    2  A    between atoms: N_13  and  C_16
REMARK    3  A    between atoms: C_16  and  N_17
REMARK    4  A    between atoms: C_21  and  C_23
REMARK                            x       y       z     vdW  Elec       q    Type
REMARK                         _______ _______ _______ _____ _____    ______ ____
ROOT
ATOM      1  C   UNL     1       3.642  -3.377  -0.051  0.00  0.00    +0.078 C 
ATOM      2  C   UNL     1       4.543  -3.448   1.185  0.00  0.00    +0.028 C 
ATOM      3  C   UNL     1       5.370  -4.734   1.134  0.00  0.00    +0.087 C 
ATOM      4  N   UNL     1       6.185  -4.745  -0.088  0.00  0.00    -0.284 NA
ATOM      5  C   UNL     1       5.341  -4.725  -1.289  0.00  0.00    +0.087 C 
ATOM      6  C   UNL     1       4.512  -3.439  -1.310  0.00  0.00    +0.028 C 
ENDROOT
BRANCH   1  14
ATOM      7  C   UNL     1      -0.017   1.373   0.010  0.00  0.00    +0.002 A 
ATOM      8  C   UNL     1       1.170   2.091   0.002  0.00  0.00    +0.004 A 
ATOM      9  C   UNL     1       2.384   1.437  -0.013  0.00  0.00    +0.048 A 
ATOM     10  C   UNL     1       2.421   0.051  -0.021  0.00  0.00    +0.155 A 
ATOM     11  C   UNL     1       1.223  -0.680  -0.013  0.00  0.00    +0.110 A 
ATOM     12  C   UNL     1       0.002  -0.004   0.002  0.00  0.00    +0.031 A 
ATOM     13  N   UNL     1       1.572  -1.995  -0.024  0.00  0.00    -0.213 NA
ATOM     14  C   UNL     1       2.868  -2.084  -0.037  0.00  0.00    +0.200 A 
ATOM     15  O   UNL     1       3.419  -0.860  -0.036  0.00  0.00    -0.439 OA
ENDBRANCH   1  14
BRANCH   4  16
ATOM     16  C   UNL     1       7.095  -5.898  -0.104  0.00  0.00    +0.233 C 
BRANCH  16  17
ATOM     17  N   UNL     1       8.252  -5.595  -0.950  0.00  0.00    -0.226 N 
ATOM     18  C   UNL     1       8.478  -6.071  -2.192  0.00  0.00    +0.177 A 
ATOM     19  S   UNL     1       7.464  -7.138  -3.066  0.00  0.00    -0.011 S 
ATOM     20  N   UNL     1       9.646  -5.553  -2.622  0.00  0.00    -0.317 N 
ATOM     21  C   UNL     1      10.152  -4.741  -1.626  0.00  0.00    +0.160 A 
ATOM     22  N   UNL     1       9.323  -4.754  -0.620  0.00  0.00    -0.150 NA
ATOM     23  H   UNL     1      10.060  -5.721  -3.482  0.00  0.00    +0.169 HD
BRANCH  21  24
ATOM     24  C   UNL     1      11.420  -3.981  -1.692  0.00  0.00    +0.019 A 
ATOM     25  C   UNL     1      12.215  -4.043  -2.836  0.00  0.00    +0.013 A 
ATOM     26  C   UNL     1      13.396  -3.332  -2.892  0.00  0.00    +0.021 A 
ATOM     27  C   UNL     1      13.791  -2.556  -1.815  0.00  0.00    +0.041 A 
ATOM     28  C   UNL     1      13.006  -2.490  -0.677  0.00  0.00    +0.021 A 
ATOM     29  C   UNL     1      11.821  -3.193  -0.612  0.00  0.00    +0.013 A 
ATOM     30 CL   UNL     1      15.278  -1.664  -1.893  0.00  0.00    -0.084 Cl
ENDBRANCH  21  24
ENDBRANCH  16  17
ENDBRANCH   4  16
TORSDOF 4
