REMARK  Name = ZINC03839019
REMARK  6 active torsions:
REMARK  status: ('A' for Active; 'I' for Inactive)
REMARK    1  A    between atoms: C_1  and  C_2
REMARK    2  A    between atoms: C_2  and  C_3
REMARK    3  A    between atoms: C_2  and  N_4
REMARK    4  A    between atoms: N_7  and  C_8
REMARK    5  A    between atoms: C_19  and  C_26
REMARK    6  A    between atoms: C_27  and  C_28
REMARK                            x       y       z     vdW  Elec       q    Type
REMARK                         _______ _______ _______ _____ _____    ______ ____
ROOT
ATOM      1  C   UNL     1      -1.073   0.571   4.735  0.00  0.00    +0.094 C 
ATOM      2  C   UNL     1      -1.311   1.498   5.956  0.00  0.00    +0.056 C 
ATOM      3  C   UNL     1      -1.799   0.519   7.043  0.00  0.00    +0.164 C 
ATOM      4  C   UNL     1      -2.902   1.166   7.839  0.00  0.00    +0.238 C 
ATOM      5  O   UNL     1      -3.224   2.308   7.587  0.00  0.00    -0.273 OA
ATOM      6  N   UNL     1      -3.532   0.514   8.811  0.00  0.00    -0.283 N 
ATOM      7  C   UNL     1      -3.260  -0.763   9.262  0.00  0.00    +0.046 A 
ATOM      8  C   UNL     1      -3.281  -0.961  10.649  0.00  0.00    +0.024 A 
ATOM      9  C   UNL     1      -3.036  -2.198  11.190  0.00  0.00    +0.010 A 
ATOM     10  C   UNL     1      -2.760  -3.288  10.355  0.00  0.00    -0.024 A 
ATOM     11  C   UNL     1      -2.730  -3.106   8.977  0.00  0.00    +0.022 A 
ATOM     12  C   UNL     1      -2.973  -1.841   8.423  0.00  0.00    +0.059 A 
ATOM     13  C   UNL     1      -2.900  -1.719   6.959  0.00  0.00    +0.249 C 
ATOM     14  O   UNL     1      -3.341  -2.622   6.274  0.00  0.00    -0.270 OA
ATOM     15  N   UNL     1      -2.345  -0.662   6.351  0.00  0.00    -0.284 N 
ATOM     16  C   UNL     1      -2.219  -0.459   4.898  0.00  0.00    +0.131 C 
ATOM     17  H   UNL     1      -4.259   0.984   9.249  0.00  0.00    +0.155 HD
ENDROOT
BRANCH   1  21
ATOM     18  N   UNL     1      -0.698   1.558   1.213  0.00  0.00    -0.297 N 
ATOM     19  C   UNL     1      -0.575   0.877   2.369  0.00  0.00    +0.300 C 
ATOM     20  O   UNL     1       0.105  -0.130   2.412  0.00  0.00    -0.253 OA
ATOM     21  N   UNL     1      -1.206   1.311   3.478  0.00  0.00    -0.295 N 
ATOM     22  H   UNL     1      -1.241   2.362   1.179  0.00  0.00    +0.150 HD
ATOM     23  H   UNL     1      -1.749   2.115   3.444  0.00  0.00    +0.151 HD
BRANCH  18  25
ATOM     24  C   UNL     1       1.423   1.615  -0.003  0.00  0.00    +0.027 C 
ATOM     25  C   UNL     1      -0.013   1.086   0.008  0.00  0.00    +0.068 C 
ATOM     26  C   UNL     1      -0.753   1.593  -1.232  0.00  0.00    +0.027 C 
ENDBRANCH  18  25
ENDBRANCH   1  21
BRANCH  10  27
ATOM     27  C   UNL     1      -2.503  -4.619  10.932  0.00  0.00    +0.009 C 
ATOM     28  C   UNL     1      -2.533  -4.790  12.264  0.00  0.00    +0.014 C 
BRANCH  28  29
ATOM     29  C   UNL     1      -2.276  -6.120  12.842  0.00  0.00    +0.051 A 
ATOM     30  C   UNL     1      -2.965  -7.240  12.361  0.00  0.00    +0.171 A 
ATOM     31  C   UNL     1      -2.716  -8.487  12.904  0.00  0.00    +0.197 A 
ATOM     32  C   UNL     1      -1.793  -8.628  13.931  0.00  0.00    +0.199 A 
ATOM     33  C   UNL     1      -1.111  -7.521  14.415  0.00  0.00    +0.197 A 
ATOM     34  C   UNL     1      -1.347  -6.269  13.877  0.00  0.00    +0.171 A 
ATOM     35  F   UNL     1      -0.682  -5.193  14.351  0.00  0.00    -0.202 F 
ATOM     36  F   UNL     1      -0.214  -7.667  15.415  0.00  0.00    -0.199 F 
ATOM     37  F   UNL     1      -1.557  -9.848  14.460  0.00  0.00    -0.199 F 
ATOM     38  F   UNL     1      -3.376  -9.569  12.438  0.00  0.00    -0.199 F 
ATOM     39  F   UNL     1      -3.867  -7.104  11.365  0.00  0.00    -0.202 F 
ENDBRANCH  28  29
ENDBRANCH  10  27
TORSDOF 4
