REMARK  Name = ZINC64580457
REMARK  7 active torsions:
REMARK  status: ('A' for Active; 'I' for Inactive)
REMARK    1  A    between atoms: C_1  and  O_2
REMARK    2  A    between atoms: O_2  and  C_3
REMARK    3  A    between atoms: C_6  and  C_20
REMARK    4  A    between atoms: C_8  and  S_9
REMARK    5  A    between atoms: S_9  and  N_12
REMARK    6  A    between atoms: N_12  and  C_13
REMARK    7  A    between atoms: C_13  and  C_14
REMARK                            x       y       z     vdW  Elec       q    Type
REMARK                         _______ _______ _______ _____ _____    ______ ____
ROOT
ATOM      1  C   UNL     1       0.606  -0.607  -1.056  0.00  0.00    +0.146 A 
ATOM      2  C   UNL     1       1.386   0.141  -1.927  0.00  0.00    +0.048 A 
ATOM      3  C   UNL     1       2.000  -0.468  -3.001  0.00  0.00    +0.014 A 
ATOM      4  C   UNL     1       1.837  -1.836  -3.211  0.00  0.00    +0.004 A 
ATOM      5  C   UNL     1       1.053  -2.584  -2.334  0.00  0.00    +0.042 A 
ATOM      6  C   UNL     1       0.446  -1.970  -1.259  0.00  0.00    +0.147 A 
ENDROOT
BRANCH   4   7
ATOM      7  C   UNL     1       2.495  -2.494  -4.366  0.00  0.00    +0.095 A 
ATOM      8  C   UNL     1       3.839  -2.174  -4.689  0.00  0.00    -0.011 A 
ATOM      9  C   UNL     1       4.562  -1.153  -3.855  0.00  0.00    +0.038 C 
ATOM     10  C   UNL     1       6.072  -1.260  -4.068  0.00  0.00    +0.005 C 
ATOM     11  C   UNL     1       6.351  -1.249  -5.576  0.00  0.00    +0.005 C 
ATOM     12  C   UNL     1       5.829  -2.555  -6.174  0.00  0.00    +0.041 C 
ATOM     13  C   UNL     1       4.411  -2.801  -5.744  0.00  0.00    +0.024 A 
ATOM     14  H   UNL     1       1.825  -4.603  -6.593  0.00  0.00    +0.192 HD
ATOM     15  C   UNL     1       3.626  -3.731  -6.469  0.00  0.00    +0.268 A 
ATOM     16  O   UNL     1       4.099  -4.314  -7.431  0.00  0.00    -0.266 OA
ATOM     17  N   UNL     1       2.357  -3.966  -6.091  0.00  0.00    -0.242 N 
ATOM     18  N   UNL     1       1.834  -3.373  -5.080  0.00  0.00    -0.171 NA
ENDBRANCH   4   7
BRANCH   6  19
ATOM     19  S   UNL     1      -0.540  -2.917  -0.147  0.00  0.00    +0.062 S 
ATOM     20  O   UNL     1      -1.765  -2.213   0.010  0.00  0.00    -0.153 OA
ATOM     21  O   UNL     1      -0.488  -4.262  -0.602  0.00  0.00    -0.153 OA
BRANCH  19  22
ATOM     22  N   UNL     1       0.216  -2.885   1.326  0.00  0.00    -0.187 NA
ATOM     23  H   UNL     1       0.569  -3.704   1.707  0.00  0.00    +0.148 HD
BRANCH  22  24
ATOM     24  C   UNL     1       0.351  -1.621   2.053  0.00  0.00    +0.137 C 
BRANCH  24  25
ATOM     25  C   UNL     1       0.731  -1.906   3.507  0.00  0.00    +0.134 C 
ATOM     26  C   UNL     1       0.845  -0.582   4.303  0.00  0.00    +0.035 C 
ATOM     27  C   UNL     1       0.581  -1.084   5.749  0.00  0.00    +0.031 C 
ATOM     28  C   UNL     1      -0.438  -2.221   5.521  0.00  0.00    +0.160 C 
ATOM     29  O   UNL     1      -0.311  -2.650   4.158  0.00  0.00    -0.375 OA
ENDBRANCH  24  25
ENDBRANCH  22  24
ENDBRANCH  19  22
ENDBRANCH   6  19
BRANCH   1  31
ATOM     30  C   UNL     1       0.209   1.402   0.152  0.00  0.00    +0.277 C 
ATOM     31  O   UNL     1       0.002  -0.004   0.002  0.00  0.00    -0.493 OA
ENDBRANCH   1  31
TORSDOF 6
