REMARK  Name = ZINC13702230
REMARK  12 active torsions:
REMARK  status: ('A' for Active; 'I' for Inactive)
REMARK    1  A    between atoms: C_1  and  C_2
REMARK    2  A    between atoms: C_2  and  N_3
REMARK    3  A    between atoms: C_6  and  C_8
REMARK    4  A    between atoms: N_10  and  C_11
REMARK    5  A    between atoms: C_12  and  C_23
REMARK    6  A    between atoms: C_16  and  C_21
REMARK    7  A    between atoms: C_16  and  C_22
REMARK    8  A    between atoms: C_17  and  C_19
REMARK    9  A    between atoms: C_17  and  C_20
REMARK   10  A    between atoms: C_23  and  O_25
REMARK   11  A    between atoms: O_25  and  C_26
REMARK   12  A    between atoms: C_26  and  C_27
REMARK                            x       y       z     vdW  Elec       q    Type
REMARK                         _______ _______ _______ _____ _____    ______ ____
ROOT
ATOM      1  C   UNL     1      -0.017   1.387   0.010  0.00  0.00    +0.087 A 
ATOM      2  C   UNL     1       0.002  -0.004   0.002  0.00  0.00    +0.091 A 
ATOM      3  C   UNL     1       1.298  -0.652  -0.014  0.00  0.00    -0.024 A 
ATOM      4  C   UNL     1       2.364   0.180  -0.024  0.00  0.00    -0.016 A 
ATOM      5  S   UNL     1       1.664   1.806  -0.004  0.00  0.00    -0.079 S 
ATOM      6  C   UNL     1       3.805  -0.213  -0.054  0.00  0.00    -0.041 C 
ATOM      7  C   UNL     1       2.872  -2.436  -0.693  0.00  0.00    -0.069 C 
ATOM      8  C   UNL     1       1.533  -2.156  -0.004  0.00  0.00    +0.024 C 
ATOM      9  C   UNL     1       2.733  -2.168  -2.194  0.00  0.00    -0.010 C 
ATOM     10  C   UNL     1       3.189  -3.934  -0.512  0.00  0.00    -0.010 C 
ATOM     11  C   UNL     1       4.500   0.461  -1.243  0.00  0.00    -0.005 C 
ATOM     12  C   UNL     1       4.471   0.302   1.238  0.00  0.00    -0.005 C 
ATOM     13  N   UNL     1       4.007  -1.689  -0.094  0.00  0.00    +0.389 N 
ATOM     14  H   UNL     1       4.142  -2.023   0.868  0.00  0.00    -0.084 HD
ATOM     15  H   UNL     1       4.851  -1.886  -0.646  0.00  0.00    -0.084 HD
ENDROOT
BRANCH   1  18
ATOM     16  C   UNL     1      -0.938   3.567   0.026  0.00  0.00    +0.269 C 
ATOM     17  O   UNL     1       0.186   4.031   0.023  0.00  0.00    -0.268 OA
ATOM     18  N   UNL     1      -1.115   2.231   0.020  0.00  0.00    -0.274 N 
ATOM     19  H   UNL     1      -2.011   1.861   0.022  0.00  0.00    +0.156 HD
BRANCH  16  23
ATOM     20  N   UNL     1      -4.131   5.145   0.051  0.00  0.00    -0.271 N 
ATOM     21  C   UNL     1      -3.380   6.267   0.053  0.00  0.00    +0.109 A 
ATOM     22  C   UNL     1      -2.083   5.882   0.050  0.00  0.00    +0.054 A 
ATOM     23  C   UNL     1      -2.108   4.467   0.037  0.00  0.00    +0.147 A 
ATOM     24  N   UNL     1      -3.376   4.105   0.042  0.00  0.00    -0.167 NA
BRANCH  20  26
ATOM     25  C   UNL     1      -6.096   4.285  -1.124  0.00  0.00    +0.029 C 
ATOM     26  C   UNL     1      -5.596   5.116   0.059  0.00  0.00    +0.140 C 
ENDBRANCH  20  26
ENDBRANCH  16  23
ENDBRANCH   1  18
BRANCH   2  27
ATOM     27  C   UNL     1      -1.244  -0.773   0.012  0.00  0.00    +0.342 C 
ATOM     28  O   UNL     1      -1.774  -1.087  -1.037  0.00  0.00    -0.245 OA
BRANCH  27  29
ATOM     29  O   UNL     1      -1.805  -1.133   1.185  0.00  0.00    -0.461 OA
BRANCH  29  30
ATOM     30  C   UNL     1      -3.040  -1.894   1.119  0.00  0.00    +0.229 C 
ATOM     31  C   UNL     1      -3.522  -2.208   2.537  0.00  0.00    +0.048 C 
ENDBRANCH  29  30
ENDBRANCH  27  29
ENDBRANCH   2  27
TORSDOF 6
