REMARK  Name = ZINC08890532
REMARK  5 active torsions:
REMARK  status: ('A' for Active; 'I' for Inactive)
REMARK    1  A    between atoms: C_4  and  S_7
REMARK    2  A    between atoms: S_7  and  C_8
REMARK    3  A    between atoms: C_13  and  N_14
REMARK    4  A    between atoms: C_15  and  C_17
REMARK    5  A    between atoms: C_17  and  N_18
REMARK                            x       y       z     vdW  Elec       q    Type
REMARK                         _______ _______ _______ _____ _____    ______ ____
ROOT
ATOM      1  N   UNL     1      -1.109   8.256  -0.199  0.00  0.00    -0.283 N 
ATOM      2  C   UNL     1      -1.489   9.549  -0.218  0.00  0.00    +0.235 C 
ATOM      3  O   UNL     1      -2.664   9.835  -0.311  0.00  0.00    -0.274 OA
ATOM      4  H   UNL     1      -0.167   8.027  -0.191  0.00  0.00    +0.155 HD
ENDROOT
BRANCH   1  10
ATOM      5  C   UNL     1      -1.846   6.060   0.511  0.00  0.00    +0.034 A 
ATOM      6  C   UNL     1      -2.807   5.058   0.509  0.00  0.00    +0.017 A 
ATOM      7  C   UNL     1      -3.991   5.238  -0.179  0.00  0.00    +0.001 A 
ATOM      8  C   UNL     1      -4.220   6.410  -0.876  0.00  0.00    +0.002 A 
ATOM      9  C   UNL     1      -3.266   7.412  -0.885  0.00  0.00    +0.024 A 
ATOM     10  C   UNL     1      -2.077   7.242  -0.193  0.00  0.00    +0.047 A 
BRANCH   5  11
ATOM     11  S   UNL     1      -0.337   5.836   1.393  0.00  0.00    -0.088 S 
BRANCH  11  15
ATOM     12  C   UNL     1      -0.574   1.574   2.907  0.00  0.00    +0.000 A 
ATOM     13  C   UNL     1      -0.978   2.619   3.720  0.00  0.00    +0.001 A 
ATOM     14  C   UNL     1      -0.901   3.920   3.263  0.00  0.00    +0.015 A 
ATOM     15  C   UNL     1      -0.429   4.178   1.982  0.00  0.00    +0.013 A 
ATOM     16  C   UNL     1      -0.030   3.126   1.166  0.00  0.00    +0.015 A 
ATOM     17  C   UNL     1      -0.104   1.828   1.631  0.00  0.00    +0.001 A 
ENDBRANCH  11  15
ENDBRANCH   5  11
ENDBRANCH   1  10
BRANCH   2  18
ATOM     18  C   UNL     1      -0.453  10.640  -0.124  0.00  0.00    +0.214 C 
BRANCH  18  19
ATOM     19  N   UNL     1      -1.114  11.946  -0.166  0.00  0.00    -0.215 N 
ATOM     20  C   UNL     1      -1.548  12.614   0.926  0.00  0.00    +0.251 C 
ATOM     21  O   UNL     1      -1.468  12.261   2.083  0.00  0.00    -0.272 OA
ATOM     22  C   UNL     1      -2.151  13.889   0.397  0.00  0.00    +0.138 C 
ATOM     23  C   UNL     1      -1.439  15.121   0.970  0.00  0.00    +0.045 C 
ATOM     24  C   UNL     1      -2.588  16.152   1.050  0.00  0.00    +0.038 C 
ATOM     25  C   UNL     1      -3.854  15.329   1.164  0.00  0.00    -0.042 A 
ATOM     26  C   UNL     1      -3.599  14.021   0.784  0.00  0.00    -0.012 A 
ATOM     27  C   UNL     1      -4.621  13.088   0.811  0.00  0.00    +0.006 A 
ATOM     28  C   UNL     1      -5.891  13.455   1.212  0.00  0.00    +0.000 A 
ATOM     29  C   UNL     1      -6.145  14.760   1.590  0.00  0.00    +0.000 A 
ATOM     30  C   UNL     1      -5.127  15.694   1.566  0.00  0.00    +0.004 A 
ATOM     31  N   UNL     1      -1.982  13.803  -1.054  0.00  0.00    -0.281 N 
ATOM     32  C   UNL     1      -1.359  12.631  -1.291  0.00  0.00    +0.310 C 
ATOM     33  O   UNL     1      -1.057  12.238  -2.401  0.00  0.00    -0.252 OA
ATOM     34  H   UNL     1      -2.260  14.459  -1.712  0.00  0.00    +0.152 HD
ENDBRANCH  18  19
ENDBRANCH   2  18
TORSDOF 5
