REMARK  Name = ZINC10109657
REMARK  5 active torsions:
REMARK  status: ('A' for Active; 'I' for Inactive)
REMARK    1  A    between atoms: C_6  and  S_7
REMARK    2  A    between atoms: S_7  and  C_8
REMARK    3  A    between atoms: C_8  and  C_9
REMARK    4  A    between atoms: N_11  and  C_12
REMARK    5  A    between atoms: C_13  and  C_21
REMARK                            x       y       z     vdW  Elec       q    Type
REMARK                         _______ _______ _______ _____ _____    ______ ____
ROOT
ATOM      1  C   UNL     1       4.691  -3.451  -0.081  0.00  0.00    +0.228 C 
ATOM      2  O   UNL     1       5.789  -2.935  -0.092  0.00  0.00    -0.275 OA
ATOM      3  N   UNL     1       4.577  -4.793  -0.088  0.00  0.00    -0.279 N 
ATOM      4  H   UNL     1       3.699  -5.205  -0.080  0.00  0.00    +0.155 HD
ENDROOT
BRANCH   3   5
ATOM      5  C   UNL     1       5.715  -5.586  -0.109  0.00  0.00    +0.084 A 
ATOM      6  C   UNL     1       5.801  -6.971  -0.114  0.00  0.00    +0.068 A 
ATOM      7  C   UNL     1       7.128  -7.561  -0.140  0.00  0.00    -0.023 A 
ATOM      8  C   UNL     1       8.150  -6.678  -0.147  0.00  0.00    -0.004 A 
ATOM      9  S   UNL     1       7.374  -5.088  -0.127  0.00  0.00    -0.077 S 
ATOM     10  C   UNL     1       9.614  -6.992  -0.167  0.00  0.00    +0.043 C 
ATOM     11  C   UNL     1       9.797  -8.472   0.200  0.00  0.00    +0.005 C 
ATOM     12  C   UNL     1       8.820  -9.310  -0.630  0.00  0.00    +0.005 C 
ATOM     13  C   UNL     1       7.388  -9.063  -0.154  0.00  0.00    +0.037 C 
BRANCH   6  14
ATOM     14  C   UNL     1       4.596  -7.808  -0.097  0.00  0.00    +0.244 C 
ATOM     15  O   UNL     1       4.081  -8.152  -1.144  0.00  0.00    -0.270 OA
ATOM     16  N   UNL     1       4.061  -8.195   1.077  0.00  0.00    -0.325 N 
ATOM     17  H   UNL     1       4.472  -7.920   1.912  0.00  0.00    +0.145 HD
ATOM     18  H   UNL     1       3.264  -8.748   1.089  0.00  0.00    +0.145 HD
ENDBRANCH   6  14
ENDBRANCH   3   5
BRANCH   1  19
ATOM     19  C   UNL     1       3.455  -2.589  -0.059  0.00  0.00    +0.170 C 
BRANCH  19  20
ATOM     20  S   UNL     1       3.936  -0.840  -0.053  0.00  0.00    -0.116 S 
BRANCH  20  26
ATOM     21  C   UNL     1       1.206  -0.682  -0.016  0.00  0.00    +0.018 A 
ATOM     22  C   UNL     1       0.002  -0.004   0.002  0.00  0.00    +0.050 A 
ATOM     23  C   UNL     1      -0.017   1.382   0.010  0.00  0.00    +0.162 A 
ATOM     24  C   UNL     1       1.178   2.093   0.002  0.00  0.00    +0.163 A 
ATOM     25  C   UNL     1       2.386   1.413  -0.018  0.00  0.00    +0.064 A 
ATOM     26  C   UNL     1       2.401   0.024  -0.027  0.00  0.00    +0.012 A 
ATOM     27  O   UNL     1       1.179   3.454   0.018  0.00  0.00    -0.485 OA
ATOM     28  C   UNL     1      -0.045   4.103  -0.340  0.00  0.00    +0.270 C 
ATOM     29  C   UNL     1      -1.193   3.411   0.408  0.00  0.00    +0.270 C 
ATOM     30  O   UNL     1      -1.214   2.033   0.019  0.00  0.00    -0.485 OA
ENDBRANCH  20  26
ENDBRANCH  19  20
ENDBRANCH   1  19
TORSDOF 5
