REMARK  Name = ZINC37542773
REMARK  5 active torsions:
REMARK  status: ('A' for Active; 'I' for Inactive)
REMARK    1  A    between atoms: C_6  and  S_7
REMARK    2  A    between atoms: S_7  and  N_10
REMARK    3  A    between atoms: N_10  and  C_11
REMARK    4  A    between atoms: N_10  and  C_15
REMARK    5  A    between atoms: C_11  and  C_12
REMARK                            x       y       z     vdW  Elec       q    Type
REMARK                         _______ _______ _______ _____ _____    ______ ____
ROOT
ATOM      1  N   UNL     1      -1.948  -1.148  -1.567  0.00  0.00    -0.165 NA
ENDROOT
BRANCH   1   2
ATOM      2  C   UNL     1      -2.790  -0.165  -2.253  0.00  0.00    +0.077 C 
ATOM      3  C   UNL     1      -4.083  -0.838  -2.724  0.00  0.00    +0.001 C 
ATOM      4  C   UNL     1      -4.921   0.174  -3.509  0.00  0.00    -0.081 C 
ATOM      5  N   UNL     1      -4.162   0.647  -4.672  0.00  0.00    +0.379 N 
ATOM      6  C   UNL     1      -2.957   1.357  -4.225  0.00  0.00    -0.081 C 
ATOM      7  C   UNL     1      -2.043   0.391  -3.469  0.00  0.00    +0.001 C 
ATOM      8  H   UNL     1      -3.894  -0.142  -5.242  0.00  0.00    -0.086 HD
ATOM      9  H   UNL     1      -4.737   1.273  -5.216  0.00  0.00    -0.086 HD
ENDBRANCH   1   2
BRANCH   1  10
ATOM     10  S   UNL     1      -1.512  -0.906   0.012  0.00  0.00    +0.062 S 
ATOM     11  O   UNL     1      -1.218  -2.186   0.553  0.00  0.00    -0.153 OA
ATOM     12  O   UNL     1      -2.492  -0.046   0.578  0.00  0.00    -0.153 OA
BRANCH  10  18
ATOM     13  C   UNL     1      -0.017   1.378   0.010  0.00  0.00    +0.029 A 
ATOM     14  C   UNL     1       1.171   2.086   0.002  0.00  0.00    +0.016 A 
ATOM     15  C   UNL     1       2.378   1.411  -0.013  0.00  0.00    +0.013 A 
ATOM     16  C   UNL     1       2.396   0.028  -0.021  0.00  0.00    +0.016 A 
ATOM     17  C   UNL     1       1.208  -0.679  -0.013  0.00  0.00    +0.029 A 
ATOM     18  C   UNL     1       0.002  -0.004   0.002  0.00  0.00    +0.106 A 
ATOM     19  I   UNL     1       4.178   2.482  -0.025  0.00  0.00    -0.044 I 
ENDBRANCH  10  18
ENDBRANCH   1  10
BRANCH   1  20
ATOM     20  C   UNL     1      -1.492  -2.345  -2.277  0.00  0.00    +0.205 C 
BRANCH  20  21
ATOM     21  C   UNL     1      -2.553  -3.412  -2.197  0.00  0.00    +0.226 C 
ATOM     22  O   UNL     1      -3.589  -3.194  -1.604  0.00  0.00    -0.275 OA
ATOM     23  N   UNL     1      -2.352  -4.608  -2.783  0.00  0.00    -0.328 N 
ATOM     24  H   UNL     1      -1.524  -4.783  -3.257  0.00  0.00    +0.145 HD
ATOM     25  H   UNL     1      -3.035  -5.295  -2.731  0.00  0.00    +0.145 HD
ENDBRANCH  20  21
ENDBRANCH   1  20
TORSDOF 5
