REMARK  Name = ZINC21219770
REMARK  13 active torsions:
REMARK  status: ('A' for Active; 'I' for Inactive)
REMARK    1  A    between atoms: C_1  and  C_2
REMARK    2  A    between atoms: C_2  and  O_3
REMARK    3  A    between atoms: O_3  and  C_4
REMARK    4  A    between atoms: C_5  and  C_12
REMARK    5  A    between atoms: C_9  and  O_10
REMARK    6  A    between atoms: O_10  and  C_11
REMARK    7  A    between atoms: C_17  and  C_22
REMARK    8  A    between atoms: C_24  and  O_32
REMARK    9  A    between atoms: C_25  and  O_30
REMARK   10  A    between atoms: C_26  and  O_28
REMARK   11  A    between atoms: O_28  and  C_29
REMARK   12  A    between atoms: O_30  and  C_31
REMARK   13  A    between atoms: O_32  and  C_33
REMARK                            x       y       z     vdW  Elec       q    Type
REMARK                         _______ _______ _______ _____ _____    ______ ____
ROOT
ATOM      1  C   UNL     1       1.160  -2.168   0.214  0.00  0.00    +0.140 C 
ATOM      2  C   UNL     1       1.477  -2.552   1.640  0.00  0.00    +0.037 C 
ATOM      3  C   UNL     1       0.608  -3.051   2.534  0.00  0.00    +0.017 C 
ATOM      4  C   UNL     1       1.058  -3.371   3.950  0.00  0.00    +0.059 C 
ATOM      5  C   UNL     1       2.517  -3.824   3.943  0.00  0.00    +0.032 C 
ATOM      6  C   UNL     1       3.358  -2.681   3.362  0.00  0.00    +0.088 C 
ATOM      7  C   UNL     1       2.830  -2.344   2.000  0.00  0.00    +0.163 C 
ATOM      8  O   UNL     1       3.591  -1.877   1.175  0.00  0.00    -0.292 OA
ATOM      9  N   UNL     1      -0.701  -3.307   2.284  0.00  0.00    -0.316 N 
ATOM     10  C   UNL     1      -1.571  -2.432   1.644  0.00  0.00    +0.052 A 
ATOM     11  C   UNL     1      -2.663  -1.873   2.285  0.00  0.00    +0.025 A 
ATOM     12  C   UNL     1      -3.516  -1.044   1.575  0.00  0.00    +0.002 A 
ATOM     13  C   UNL     1      -3.280  -0.781   0.238  0.00  0.00    +0.002 A 
ATOM     14  C   UNL     1      -2.178  -1.325  -0.399  0.00  0.00    +0.025 A 
ATOM     15  C   UNL     1      -1.312  -2.137   0.314  0.00  0.00    +0.049 A 
ATOM     16  N   UNL     1      -0.135  -2.617  -0.251  0.00  0.00    -0.331 N 
ATOM     17  H   UNL     1      -1.144  -4.264   2.596  0.00  0.00    +0.152 HD
ATOM     18  H   UNL     1      -0.202  -3.353  -1.066  0.00  0.00    +0.147 HD
ENDROOT
BRANCH   1  20
ATOM     19  C   UNL     1       1.387  -0.071  -1.139  0.00  0.00    +0.167 A 
ATOM     20  C   UNL     1       1.214  -0.666   0.100  0.00  0.00    +0.023 A 
ATOM     21  C   UNL     1       1.092   0.118   1.232  0.00  0.00    +0.009 A 
ATOM     22  C   UNL     1       1.142   1.496   1.131  0.00  0.00    +0.004 A 
ATOM     23  C   UNL     1       1.314   2.096  -0.102  0.00  0.00    +0.049 A 
ATOM     24  C   UNL     1       1.436   1.316  -1.241  0.00  0.00    +0.162 A 
BRANCH  24  25
ATOM     25  O   UNL     1       1.606   1.905  -2.455  0.00  0.00    -0.491 OA
ATOM     26  C   UNL     1       1.647   3.333  -2.483  0.00  0.00    +0.277 C 
ENDBRANCH  24  25
BRANCH  19  27
ATOM     27  O   UNL     1       1.506  -0.841  -2.254  0.00  0.00    -0.488 OA
BRANCH  27  29
ATOM     28  C   UNL     1       0.624  -2.039  -4.158  0.00  0.00    +0.048 C 
ATOM     29  C   UNL     1       0.319  -1.067  -3.017  0.00  0.00    +0.226 C 
ENDBRANCH  27  29
ENDBRANCH  19  27
ENDBRANCH   1  20
BRANCH   5  30
ATOM     30  C   UNL     1       2.965  -4.123   5.350  0.00  0.00    -0.036 A 
ATOM     31  C   UNL     1       2.938  -3.128   6.309  0.00  0.00    +0.053 A 
ATOM     32  C   UNL     1       3.345  -3.401   7.606  0.00  0.00    +0.165 A 
ATOM     33  C   UNL     1       3.790  -4.675   7.939  0.00  0.00    +0.204 A 
ATOM     34  C   UNL     1       3.821  -5.672   6.971  0.00  0.00    +0.165 A 
ATOM     35  C   UNL     1       3.408  -5.391   5.677  0.00  0.00    +0.053 A 
BRANCH  34  36
ATOM     36  O   UNL     1       4.256  -6.920   7.292  0.00  0.00    -0.491 OA
ATOM     37  C   UNL     1       4.260  -7.894   6.246  0.00  0.00    +0.277 C 
ENDBRANCH  34  36
BRANCH  33  38
ATOM     38  O   UNL     1       4.194  -4.946   9.210  0.00  0.00    -0.488 OA
ATOM     39  C   UNL     1       5.576  -4.740   9.510  0.00  0.00    +0.277 C 
ENDBRANCH  33  38
BRANCH  32  40
ATOM     40  O   UNL     1       3.312  -2.423   8.550  0.00  0.00    -0.491 OA
ATOM     41  C   UNL     1       2.842  -1.138   8.137  0.00  0.00    +0.277 C 
ENDBRANCH  32  40
ENDBRANCH   5  30
TORSDOF 8
