REMARK  Name = ZINC26133134
REMARK  5 active torsions:
REMARK  status: ('A' for Active; 'I' for Inactive)
REMARK    1  A    between atoms: C_7  and  C_11
REMARK    2  A    between atoms: C_17  and  C_19
REMARK    3  A    between atoms: C_19  and  N_20
REMARK    4  A    between atoms: N_23  and  S_26
REMARK    5  A    between atoms: S_26  and  C_29
REMARK                            x       y       z     vdW  Elec       q    Type
REMARK                         _______ _______ _______ _____ _____    ______ ____
ROOT
ATOM      1  C   UNL     1      -8.950   3.251  -4.011  0.00  0.00    -0.039 C 
ATOM      2  C   UNL     1      -8.276   4.334  -3.702  0.00  0.00    -0.004 C 
ATOM      3  C   UNL     1      -6.821   4.526  -4.030  0.00  0.00    +0.135 C 
ATOM      4  N   UNL     1      -6.257   3.246  -4.483  0.00  0.00    -0.299 N 
ATOM      5  C   UNL     1      -7.060   2.447  -5.423  0.00  0.00    +0.112 C 
ATOM      6  C   UNL     1      -8.365   2.061  -4.711  0.00  0.00    +0.054 C 
ATOM      7  C   UNL     1      -5.049   2.824  -4.058  0.00  0.00    +0.199 C 
ATOM      8  O   UNL     1      -4.606   1.764  -4.446  0.00  0.00    -0.278 OA
ENDROOT
BRANCH   1  15
ATOM      9  C   UNL     1     -11.184   2.627   0.049  0.00  0.00    +0.001 A 
ATOM     10  C   UNL     1     -12.565   2.657  -0.091  0.00  0.00    +0.002 A 
ATOM     11  C   UNL     1     -13.141   2.854  -1.327  0.00  0.00    +0.026 A 
ATOM     12  C   UNL     1     -12.333   3.025  -2.447  0.00  0.00    +0.047 A 
ATOM     13  C   UNL     1     -10.936   2.994  -2.298  0.00  0.00    +0.007 A 
ATOM     14  C   UNL     1     -10.373   2.794  -1.039  0.00  0.00    +0.010 A 
ATOM     15  C   UNL     1     -10.380   3.202  -3.645  0.00  0.00    +0.003 A 
ATOM     16  C   UNL     1     -11.437   3.345  -4.485  0.00  0.00    +0.091 A 
ATOM     17  N   UNL     1     -12.601   3.235  -3.782  0.00  0.00    -0.360 N 
ATOM     18  H   UNL     1     -13.643   3.291  -4.131  0.00  0.00    +0.165 HD
ENDBRANCH   1  15
BRANCH   7  19
ATOM     19  C   UNL     1      -4.250   3.669  -3.100  0.00  0.00    +0.019 C 
BRANCH  19  20
ATOM     20  N   UNL     1      -2.981   2.994  -2.793  0.00  0.00    +0.387 N 
ATOM     21  C   UNL     1      -2.076   3.886  -2.056  0.00  0.00    -0.061 C 
ATOM     22  C   UNL     1      -0.706   3.213  -1.915  0.00  0.00    +0.091 C 
ATOM     23  N   UNL     1      -0.897   1.885  -1.312  0.00  0.00    -0.180 NA
ATOM     24  C   UNL     1      -1.887   0.982  -1.919  0.00  0.00    +0.091 C 
ATOM     25  C   UNL     1      -3.215   1.745  -2.057  0.00  0.00    -0.061 C 
ATOM     26  H   UNL     1      -2.495   2.736  -3.745  0.00  0.00    -0.081 HD
BRANCH  23  27
ATOM     27  S   UNL     1      -0.017   1.417   0.010  0.00  0.00    +0.061 S 
ATOM     28  O   UNL     1       0.002  -0.004   0.002  0.00  0.00    -0.153 OA
ATOM     29  O   UNL     1       1.172   2.195   0.003  0.00  0.00    -0.153 OA
BRANCH  27  30
ATOM     30  C   UNL     1      -0.927   1.900   1.439  0.00  0.00    +0.106 A 
ATOM     31  C   UNL     1      -0.717   3.145   2.003  0.00  0.00    +0.031 A 
ATOM     32  C   UNL     1      -1.433   3.527   3.122  0.00  0.00    +0.040 A 
ATOM     33  C   UNL     1      -2.354   2.659   3.684  0.00  0.00    +0.124 A 
ATOM     34  C   UNL     1      -2.559   1.410   3.121  0.00  0.00    +0.040 A 
ATOM     35  C   UNL     1      -1.846   1.032   2.000  0.00  0.00    +0.031 A 
ATOM     36  F   UNL     1      -3.051   3.029   4.780  0.00  0.00    -0.205 F 
ENDBRANCH  27  30
ENDBRANCH  23  27
ENDBRANCH  19  20
ENDBRANCH   7  19
TORSDOF 5
