REMARK  Name = ZINC35228441
REMARK  5 active torsions:
REMARK  status: ('A' for Active; 'I' for Inactive)
REMARK    1  A    between atoms: C_12  and  C_28
REMARK    2  A    between atoms: C_15  and  C_17
REMARK    3  A    between atoms: C_17  and  N_18
REMARK    4  A    between atoms: N_18  and  C_19
REMARK    5  A    between atoms: C_22  and  C_24
REMARK                            x       y       z     vdW  Elec       q    Type
REMARK                         _______ _______ _______ _____ _____    ______ ____
ROOT
ATOM      1  C   UNL     1      -0.009   1.394  -0.017  0.00  0.00    +0.002 A 
ATOM      2  C   UNL     1       1.181   2.099  -0.028  0.00  0.00    +0.002 A 
ATOM      3  C   UNL     1       2.391   1.431  -0.029  0.00  0.00    +0.025 A 
ATOM      4  C   UNL     1       2.415   0.045  -0.021  0.00  0.00    +0.061 A 
ATOM      5  C   UNL     1       1.209  -0.664  -0.018  0.00  0.00    +0.068 A 
ATOM      6  C   UNL     1       0.004   0.010  -0.011  0.00  0.00    +0.028 A 
ATOM      7  N   UNL     1       1.274  -2.065  -0.036  0.00  0.00    -0.316 N 
ATOM      8  C   UNL     1       0.307  -2.986   0.190  0.00  0.00    +0.092 A 
ATOM      9  C   UNL     1       0.859  -4.215   0.065  0.00  0.00    +0.020 A 
ATOM     10  C   UNL     1       2.224  -4.038  -0.253  0.00  0.00    +0.025 A 
ATOM     11  C   UNL     1       2.453  -2.722  -0.311  0.00  0.00    +0.049 A 
ATOM     12  C   UNL     1       3.733  -1.982  -0.619  0.00  0.00    +0.159 C 
ATOM     13  N   UNL     1       3.635  -0.645  -0.009  0.00  0.00    -0.255 N 
ATOM     14  C   UNL     1       4.720  -0.085   0.562  0.00  0.00    +0.238 C 
ATOM     15  O   UNL     1       4.662   1.047   0.993  0.00  0.00    -0.273 OA
ENDROOT
BRANCH  12  16
ATOM     16  C   UNL     1       3.902  -1.853  -2.111  0.00  0.00    -0.021 A 
ATOM     17  C   UNL     1       3.219  -0.869  -2.801  0.00  0.00    +0.007 A 
ATOM     18  C   UNL     1       3.374  -0.750  -4.169  0.00  0.00    +0.020 A 
ATOM     19  C   UNL     1       4.213  -1.615  -4.848  0.00  0.00    +0.041 A 
ATOM     20  C   UNL     1       4.896  -2.600  -4.157  0.00  0.00    +0.020 A 
ATOM     21  C   UNL     1       4.745  -2.714  -2.788  0.00  0.00    +0.007 A 
ATOM     22 CL   UNL     1       4.407  -1.467  -6.567  0.00  0.00    -0.084 Cl
ENDBRANCH  12  16
BRANCH  14  23
ATOM     23  C   UNL     1       6.004  -0.866   0.666  0.00  0.00    +0.204 C 
BRANCH  23  24
ATOM     24  N   UNL     1       6.987  -0.091   1.429  0.00  0.00    -0.289 N 
ATOM     25  C   UNL     1       7.817   0.757   0.791  0.00  0.00    +0.219 C 
ATOM     26  O   UNL     1       7.752   0.879  -0.414  0.00  0.00    -0.275 OA
BRANCH  25  27
ATOM     27  C   UNL     1       8.827   1.554   1.575  0.00  0.00    +0.075 C 
ATOM     28  C   UNL     1       8.249   2.832   2.206  0.00  0.00    +0.013 C 
ATOM     29  C   UNL     1       9.564   3.526   1.816  0.00  0.00    +0.001 C 
ATOM     30  C   UNL     1       9.698   2.474   0.703  0.00  0.00    +0.013 C 
ENDBRANCH  25  27
BRANCH  24  31
ATOM     31  C   UNL     1       7.066  -0.239   2.884  0.00  0.00    +0.077 C 
ATOM     32  C   UNL     1       6.243  -1.357   3.526  0.00  0.00    +0.024 C 
ATOM     33  C   UNL     1       5.816   0.102   3.698  0.00  0.00    +0.024 C 
ENDBRANCH  24  31
ENDBRANCH  23  24
ENDBRANCH  14  23
TORSDOF 5
