REMARK  Name = ZINC47877354
REMARK  7 active torsions:
REMARK  status: ('A' for Active; 'I' for Inactive)
REMARK    1  A    between atoms: C_8  and  C_12
REMARK    2  A    between atoms: C_12  and  N_13
REMARK    3  A    between atoms: N_16  and  C_17
REMARK    4  A    between atoms: C_22  and  O_23
REMARK    5  A    between atoms: O_23  and  C_24
REMARK    6  A    between atoms: C_24  and  C_25
REMARK    7  A    between atoms: C_25  and  C_26
REMARK                            x       y       z     vdW  Elec       q    Type
REMARK                         _______ _______ _______ _____ _____    ______ ____
ROOT
ATOM      1  N   UNL     1       3.877  -4.764  -0.735  0.00  0.00    -0.299 N 
ATOM      2  C   UNL     1       4.176  -6.070  -0.592  0.00  0.00    +0.304 C 
ATOM      3  O   UNL     1       3.401  -6.811  -0.018  0.00  0.00    -0.253 OA
ATOM      4  N   UNL     1       5.332  -6.556  -1.085  0.00  0.00    -0.266 N 
ATOM      5  H   UNL     1       4.495  -4.173  -1.193  0.00  0.00    +0.150 HD
ATOM      6  H   UNL     1       5.920  -5.980  -1.598  0.00  0.00    +0.156 HD
ENDROOT
BRANCH   4   7
ATOM      7  C   UNL     1       5.686  -7.893  -0.855  0.00  0.00    +0.077 A 
ATOM      8  C   UNL     1       4.705  -8.872  -0.803  0.00  0.00    +0.027 A 
ATOM      9  C   UNL     1       5.056 -10.190  -0.576  0.00  0.00    +0.002 A 
ATOM     10  C   UNL     1       6.384 -10.534  -0.400  0.00  0.00    +0.004 A 
ATOM     11  C   UNL     1       7.367  -9.563  -0.450  0.00  0.00    +0.047 A 
ATOM     12  C   UNL     1       7.023  -8.241  -0.683  0.00  0.00    +0.142 A 
BRANCH  12  13
ATOM     13  O   UNL     1       7.989  -7.286  -0.738  0.00  0.00    -0.490 OA
BRANCH  13  14
ATOM     14  C   UNL     1       9.339  -7.717  -0.552  0.00  0.00    +0.238 C 
BRANCH  14  15
ATOM     15  C   UNL     1      10.277  -6.511  -0.647  0.00  0.00    +0.136 C 
BRANCH  15  16
ATOM     16  C   UNL     1      11.700  -6.966  -0.451  0.00  0.00    +0.214 C 
ATOM     17  O   UNL     1      11.941  -8.138  -0.256  0.00  0.00    -0.276 OA
ATOM     18  N   UNL     1      12.706  -6.069  -0.494  0.00  0.00    -0.329 N 
ATOM     19  H   UNL     1      12.513  -5.131  -0.650  0.00  0.00    +0.145 HD
ATOM     20  H   UNL     1      13.622  -6.362  -0.368  0.00  0.00    +0.145 HD
ENDBRANCH  15  16
ENDBRANCH  14  15
ENDBRANCH  13  14
ENDBRANCH  12  13
ENDBRANCH   4   7
BRANCH   1  21
ATOM     21  C   UNL     1       2.620  -4.236  -0.200  0.00  0.00    +0.113 C 
BRANCH  21  29
ATOM     22  C   UNL     1      -0.055   1.360  -0.056  0.00  0.00    +0.000 A 
ATOM     23  C   UNL     1       1.130   2.072  -0.065  0.00  0.00    +0.004 A 
ATOM     24  C   UNL     1       2.336   1.403  -0.075  0.00  0.00    +0.046 A 
ATOM     25  C   UNL     1       2.365   0.012  -0.074  0.00  0.00    +0.124 A 
ATOM     26  C   UNL     1       1.178  -0.699  -0.061  0.00  0.00    -0.005 A 
ATOM     27  C   UNL     1      -0.030  -0.021  -0.054  0.00  0.00    +0.007 A 
ATOM     28  C   UNL     1       1.165  -2.206  -0.049  0.00  0.00    +0.047 C 
ATOM     29  C   UNL     1       2.529  -2.738  -0.495  0.00  0.00    +0.048 C 
ATOM     30  C   UNL     1       3.617  -1.989   0.286  0.00  0.00    +0.234 C 
ATOM     31  O   UNL     1       3.572  -0.611  -0.089  0.00  0.00    -0.491 OA
ENDBRANCH  21  29
ENDBRANCH   1  21
TORSDOF 7
