REMARK  Name = ZINC66665893
REMARK  8 active torsions:
REMARK  status: ('A' for Active; 'I' for Inactive)
REMARK    1  A    between atoms: C_6  and  N_7
REMARK    2  A    between atoms: N_7  and  C_8
REMARK    3  A    between atoms: C_8  and  C_9
REMARK    4  A    between atoms: C_9  and  C_10
REMARK    5  A    between atoms: C_13  and  C_15
REMARK    6  A    between atoms: C_15  and  N_16
REMARK    7  A    between atoms: C_20  and  C_22
REMARK    8  A    between atoms: C_22  and  N_23
REMARK                            x       y       z     vdW  Elec       q    Type
REMARK                         _______ _______ _______ _____ _____    ______ ____
ROOT
ATOM      1  N   UNL     1      -1.200  -0.722   0.010  0.00  0.00    -0.272 N 
ATOM      2  C   UNL     1      -2.374  -0.069   0.127  0.00  0.00    +0.203 C 
ATOM      3  O   UNL     1      -2.395   1.144   0.134  0.00  0.00    -0.277 OA
ENDROOT
BRANCH   1   9
ATOM      4  C   UNL     1       0.428   0.657   1.143  0.00  0.00    +0.026 A 
ATOM      5  C   UNL     1       1.615   1.364   1.129  0.00  0.00    +0.040 A 
ATOM      6  C   UNL     1       2.378   1.415  -0.025  0.00  0.00    +0.124 A 
ATOM      7  C   UNL     1       1.955   0.757  -1.167  0.00  0.00    +0.040 A 
ATOM      8  C   UNL     1       0.769   0.049  -1.158  0.00  0.00    +0.026 A 
ATOM      9  C   UNL     1       0.002  -0.004  -0.002  0.00  0.00    +0.036 A 
ATOM     10  F   UNL     1       3.538   2.107  -0.036  0.00  0.00    -0.205 F 
ENDBRANCH   1   9
BRANCH   1  11
ATOM     11  C   UNL     1      -1.183  -2.182  -0.105  0.00  0.00    +0.123 C 
BRANCH  11  12
ATOM     12  C   UNL     1      -1.096  -2.802   1.291  0.00  0.00    +0.115 C 
BRANCH  12  13
ATOM     13  C   UNL     1      -1.078  -4.304   1.173  0.00  0.00    +0.212 C 
ATOM     14  O   UNL     1      -1.129  -4.828   0.080  0.00  0.00    -0.276 OA
ATOM     15  N   UNL     1      -1.004  -5.067   2.282  0.00  0.00    -0.329 N 
ATOM     16  H   UNL     1      -0.963  -4.649   3.156  0.00  0.00    +0.145 HD
ATOM     17  H   UNL     1      -0.993  -6.034   2.206  0.00  0.00    +0.145 HD
ENDBRANCH  12  13
ENDBRANCH  11  12
ENDBRANCH   1  11
BRANCH   2  18
ATOM     18  C   UNL     1      -3.659  -0.846   0.249  0.00  0.00    +0.019 C 
BRANCH  18  19
ATOM     19  N   UNL     1      -4.787   0.088   0.363  0.00  0.00    +0.386 N 
ATOM     20  C   UNL     1      -4.686   0.839   1.632  0.00  0.00    -0.078 C 
ATOM     21  C   UNL     1      -6.150   1.014   2.106  0.00  0.00    -0.020 C 
ATOM     22  C   UNL     1      -6.780  -0.339   1.685  0.00  0.00    -0.019 C 
ATOM     23  C   UNL     1      -6.056  -0.663   0.362  0.00  0.00    -0.085 C 
ATOM     24  H   UNL     1      -4.774   0.734  -0.413  0.00  0.00    -0.081 HD
BRANCH  23  25
ATOM     25  C   UNL     1      -6.918  -0.226  -0.824  0.00  0.00    -0.094 C 
BRANCH  25  26
ATOM     26  N   UNL     1      -6.153  -0.378  -2.069  0.00  0.00    +0.379 N 
ATOM     27  C   UNL     1      -5.932  -1.817  -2.362  0.00  0.00    -0.079 C 
ATOM     28  C   UNL     1      -5.654  -1.830  -3.886  0.00  0.00    -0.020 C 
ATOM     29  C   UNL     1      -6.620  -0.749  -4.422  0.00  0.00    -0.020 C 
ATOM     30  C   UNL     1      -6.928   0.152  -3.212  0.00  0.00    -0.079 C 
ATOM     31  H   UNL     1      -5.269   0.103  -1.995  0.00  0.00    -0.082 HD
ENDBRANCH  25  26
ENDBRANCH  23  25
ENDBRANCH  18  19
ENDBRANCH   2  18
TORSDOF 8
