REMARK  Name = ZINC12408794
REMARK  7 active torsions:
REMARK  status: ('A' for Active; 'I' for Inactive)
REMARK    1  A    between atoms: C_1  and  C_2
REMARK    2  A    between atoms: N_8  and  C_9
REMARK    3  A    between atoms: C_9  and  C_10
REMARK    4  A    between atoms: C_10  and  C_11
REMARK    5  A    between atoms: C_14  and  S_17
REMARK    6  A    between atoms: S_17  and  N_20
REMARK    7  A    between atoms: N_23  and  C_26
REMARK                            x       y       z     vdW  Elec       q    Type
REMARK                         _______ _______ _______ _____ _____    ______ ____
ROOT
ATOM      1  C   UNL     1      -2.417  -1.895   1.684  0.00  0.00    +0.064 C 
ATOM      2  C   UNL     1      -1.123  -2.656   1.550  0.00  0.00    +0.033 A 
ATOM      3  C   UNL     1      -1.103  -4.012   1.745  0.00  0.00    +0.085 A 
ATOM      4  C   UNL     1       0.170  -4.737   1.615  0.00  0.00    +0.075 A 
ATOM      5  C   UNL     1       1.300  -4.018   1.293  0.00  0.00    +0.098 A 
ATOM      6  C   UNL     1       1.190  -2.634   1.105  0.00  0.00    +0.254 A 
ATOM      7  O   UNL     1       2.187  -1.990   0.820  0.00  0.00    -0.268 OA
ATOM      8  N   UNL     1       0.013  -2.001   1.231  0.00  0.00    -0.311 N 
ATOM      9  N   UNL     1      -0.103  -6.059   1.866  0.00  0.00    -0.289 N 
ATOM     10  H   UNL     1       0.550  -6.776   1.852  0.00  0.00    +0.187 HD
ATOM     11  N   UNL     1      -1.463  -6.218   2.147  0.00  0.00    -0.219 N 
ATOM     12  C   UNL     1      -2.103  -5.033   2.088  0.00  0.00    +0.281 A 
ATOM     13  O   UNL     1      -3.289  -4.843   2.283  0.00  0.00    -0.265 OA
ENDROOT
BRANCH  11  14
ATOM     14  C   UNL     1      -2.076  -7.439   2.447  0.00  0.00    +0.067 A 
ATOM     15  C   UNL     1      -3.437  -7.486   2.718  0.00  0.00    +0.028 A 
ATOM     16  C   UNL     1      -4.040  -8.694   3.009  0.00  0.00    +0.002 A 
ATOM     17  C   UNL     1      -3.288  -9.854   3.043  0.00  0.00    +0.000 A 
ATOM     18  C   UNL     1      -1.931  -9.809   2.780  0.00  0.00    +0.002 A 
ATOM     19  C   UNL     1      -1.323  -8.605   2.482  0.00  0.00    +0.028 A 
ENDBRANCH  11  14
BRANCH   8  20
ATOM     20  C   UNL     1      -0.039  -0.552   1.022  0.00  0.00    +0.130 C 
BRANCH  20  21
ATOM     21  C   UNL     1       0.247   0.164   2.343  0.00  0.00    +0.057 C 
BRANCH  21  22
ATOM     22  C   UNL     1       0.194   1.655   2.128  0.00  0.00    -0.046 A 
ATOM     23  C   UNL     1       1.340   2.344   1.779  0.00  0.00    +0.005 A 
ATOM     24  C   UNL     1       1.290   3.711   1.577  0.00  0.00    +0.029 A 
ATOM     25  C   UNL     1       0.096   4.390   1.734  0.00  0.00    +0.105 A 
ATOM     26  C   UNL     1      -1.049   3.701   2.088  0.00  0.00    +0.029 A 
ATOM     27  C   UNL     1      -1.000   2.334   2.285  0.00  0.00    +0.005 A 
BRANCH  25  28
ATOM     28  S   UNL     1       0.034   6.132   1.481  0.00  0.00    +0.056 S 
ATOM     29  O   UNL     1       1.120   6.458   0.625  0.00  0.00    -0.153 OA
ATOM     30  O   UNL     1      -1.313   6.447   1.155  0.00  0.00    -0.153 OA
BRANCH  28  31
ATOM     31  N   UNL     1       0.349   6.850   2.939  0.00  0.00    -0.204 NA
ATOM     32  H   UNL     1       0.521   6.303   3.722  0.00  0.00    +0.144 HD
ATOM     33  H   UNL     1       0.360   7.817   3.012  0.00  0.00    +0.144 HD
ENDBRANCH  28  31
ENDBRANCH  25  28
ENDBRANCH  21  22
ENDBRANCH  20  21
ENDBRANCH   8  20
TORSDOF 6
