REMARK  Name = ZINC16048811
REMARK  6 active torsions:
REMARK  status: ('A' for Active; 'I' for Inactive)
REMARK    1  A    between atoms: C_1  and  N_2
REMARK    2  A    between atoms: N_2  and  C_3
REMARK    3  A    between atoms: C_3  and  C_4
REMARK    4  A    between atoms: N_6  and  C_7
REMARK    5  A    between atoms: C_14  and  C_16
REMARK    6  A    between atoms: C_16  and  N_17
REMARK                            x       y       z     vdW  Elec       q    Type
REMARK                         _______ _______ _______ _____ _____    ______ ____
ROOT
ATOM      1  C   UNL     1       5.424   2.711  -1.221  0.00  0.00    +0.213 C 
ENDROOT
BRANCH   1   2
ATOM      2  N   UNL     1       5.842   2.883  -2.615  0.00  0.00    -0.215 N 
ATOM      3  C   UNL     1       5.407   3.877  -3.421  0.00  0.00    +0.251 C 
ATOM      4  O   UNL     1       4.627   4.762  -3.143  0.00  0.00    -0.272 OA
ATOM      5  C   UNL     1       6.099   3.648  -4.739  0.00  0.00    +0.138 C 
ATOM      6  C   UNL     1       6.962   4.854  -5.131  0.00  0.00    +0.045 C 
ATOM      7  C   UNL     1       6.859   4.840  -6.674  0.00  0.00    +0.038 C 
ATOM      8  C   UNL     1       5.549   4.144  -6.978  0.00  0.00    -0.042 A 
ATOM      9  C   UNL     1       5.113   3.454  -5.859  0.00  0.00    -0.012 A 
ATOM     10  C   UNL     1       3.928   2.740  -5.912  0.00  0.00    +0.006 A 
ATOM     11  C   UNL     1       3.182   2.712  -7.074  0.00  0.00    +0.000 A 
ATOM     12  C   UNL     1       3.618   3.399  -8.190  0.00  0.00    +0.000 A 
ATOM     13  C   UNL     1       4.799   4.114  -8.141  0.00  0.00    +0.004 A 
ATOM     14  N   UNL     1       6.918   2.455  -4.524  0.00  0.00    -0.281 N 
ATOM     15  C   UNL     1       6.708   2.079  -3.246  0.00  0.00    +0.310 C 
ATOM     16  O   UNL     1       7.240   1.118  -2.727  0.00  0.00    -0.252 OA
ATOM     17  H   UNL     1       7.499   2.023  -5.170  0.00  0.00    +0.152 HD
ENDBRANCH   1   2
BRANCH   1  20
ATOM     18  C   UNL     1       4.210   2.065   1.257  0.00  0.00    +0.132 C 
ATOM     19  N   UNL     1       3.635   1.535   0.018  0.00  0.00    -0.294 N 
ATOM     20  C   UNL     1       4.200   1.833  -1.169  0.00  0.00    +0.234 C 
ATOM     21  O   UNL     1       3.724   1.395  -2.195  0.00  0.00    -0.274 OA
BRANCH  19  22
ATOM     22  C   UNL     1       2.445   0.682   0.069  0.00  0.00    +0.203 C 
BRANCH  22  23
ATOM     23  C   UNL     1       1.209   1.538  -0.020  0.00  0.00    +0.235 C 
ATOM     24  O   UNL     1       1.311   2.743  -0.117  0.00  0.00    -0.274 OA
ATOM     25  N   UNL     1      -0.011   0.966   0.007  0.00  0.00    -0.283 N 
ATOM     26  H   UNL     1      -0.093  -0.001   0.019  0.00  0.00    +0.155 HD
BRANCH  25  27
ATOM     27  C   UNL     1      -1.160   1.766   0.013  0.00  0.00    +0.052 A 
ATOM     28  C   UNL     1      -1.177   2.964  -0.688  0.00  0.00    +0.025 A 
ATOM     29  C   UNL     1      -2.314   3.749  -0.684  0.00  0.00    +0.002 A 
ATOM     30  C   UNL     1      -3.431   3.347   0.025  0.00  0.00    +0.002 A 
ATOM     31  C   UNL     1      -3.416   2.158   0.729  0.00  0.00    +0.022 A 
ATOM     32  C   UNL     1      -2.284   1.365   0.726  0.00  0.00    +0.062 A 
ATOM     33 CL   UNL     1      -2.265  -0.129   1.610  0.00  0.00    -0.082 Cl
ENDBRANCH  25  27
ENDBRANCH  22  23
ENDBRANCH  19  22
ENDBRANCH   1  20
TORSDOF 5
