REMARK  Name = ZINC54699399
REMARK  4 active torsions:
REMARK  status: ('A' for Active; 'I' for Inactive)
REMARK    1  A    between atoms: C_1  and  N_2
REMARK    2  A    between atoms: C_3  and  C_13
REMARK    3  A    between atoms: C_5  and  C_7
REMARK    4  A    between atoms: C_13  and  C_14
REMARK                            x       y       z     vdW  Elec       q    Type
REMARK                         _______ _______ _______ _____ _____    ______ ____
ROOT
ATOM      1  C   UNL     1      -0.018   1.461   0.010  0.00  0.00    +0.174 C 
ATOM      2  N   UNL     1       0.002  -0.004   0.002  0.00  0.00    -0.252 N 
ATOM      3  C   UNL     1       0.008  -0.804  -1.079  0.00  0.00    +0.133 A 
ATOM      4  N   UNL     1       0.028  -2.045  -0.665  0.00  0.00    -0.215 NA
ATOM      5  C   UNL     1       0.035  -2.077   0.667  0.00  0.00    +0.154 A 
ATOM      6  N   UNL     1       0.025  -0.852   1.122  0.00  0.00    -0.155 NA
ENDROOT
BRANCH   5   7
ATOM      7  C   UNL     1       0.056  -3.325   1.513  0.00  0.00    +0.059 C 
ATOM      8  C   UNL     1      -1.188  -3.360   2.402  0.00  0.00    +0.011 C 
ATOM      9  C   UNL     1      -1.167  -4.626   3.260  0.00  0.00    +0.001 C 
ATOM     10  C   UNL     1       0.087  -4.626   4.137  0.00  0.00    +0.000 C 
ATOM     11  C   UNL     1       1.332  -4.591   3.248  0.00  0.00    +0.001 C 
ATOM     12  C   UNL     1       1.310  -3.325   2.390  0.00  0.00    +0.011 C 
ENDBRANCH   5   7
BRANCH   3  13
ATOM     13  C   UNL     1      -0.006  -0.350  -2.515  0.00  0.00    +0.131 C 
BRANCH  13  14
ATOM     14  C   UNL     1       1.410  -0.178  -3.002  0.00  0.00    +0.058 A 
ATOM     15  C   UNL     1       1.858  -0.811  -4.113  0.00  0.00    +0.072 A 
ATOM     16  S   UNL     1       3.545  -0.230  -4.170  0.00  0.00    -0.061 S 
ATOM     17  C   UNL     1       3.504   0.742  -2.796  0.00  0.00    +0.156 A 
ATOM     18  N   UNL     1       2.268   0.601  -2.367  0.00  0.00    -0.230 NA
ATOM     19  N   UNL     1       4.523   1.508  -2.252  0.00  0.00    -0.338 N 
ATOM     20  H   UNL     1       5.395   1.526  -2.675  0.00  0.00    +0.144 HD
ATOM     21  H   UNL     1       4.363   2.026  -1.448  0.00  0.00    +0.144 HD
ENDBRANCH  13  14
ENDBRANCH   3  13
TORSDOF 3
