REMARK  Name = ZINC39688161
REMARK  7 active torsions:
REMARK  status: ('A' for Active; 'I' for Inactive)
REMARK    1  A    between atoms: C_3  and  C_33
REMARK    2  A    between atoms: C_6  and  C_7
REMARK    3  A    between atoms: C_11  and  C_20
REMARK    4  A    between atoms: N_22  and  C_23
REMARK    5  A    between atoms: C_23  and  C_24
REMARK    6  A    between atoms: C_24  and  O_25
REMARK    7  A    between atoms: O_25  and  C_26
REMARK                            x       y       z     vdW  Elec       q    Type
REMARK                         _______ _______ _______ _____ _____    ______ ____
ROOT
ATOM      1  C   UNL     1      -1.282  -0.765   0.016  0.00  0.00    +0.247 C 
ATOM      2  O   UNL     1      -0.243  -0.138  -0.057  0.00  0.00    -0.270 OA
ATOM      3  N   UNL     1      -1.251  -2.110   0.108  0.00  0.00    -0.296 N 
ATOM      4  C   UNL     1      -0.061  -2.986   0.215  0.00  0.00    +0.121 C 
ATOM      5  C   UNL     1      -0.472  -4.082   1.224  0.00  0.00    +0.100 C 
ATOM      6  C   UNL     1      -2.008  -4.118   1.159  0.00  0.00    -0.004 C 
ATOM      7  C   UNL     1      -2.401  -3.045   0.133  0.00  0.00    +0.115 C 
ATOM      8  C   UNL     1      -2.486  -5.492   0.699  0.00  0.00    -0.010 C 
ATOM      9  C   UNL     1      -4.017  -5.521   0.698  0.00  0.00    -0.082 C 
ATOM     10  N   UNL     1      -4.514  -5.236   2.050  0.00  0.00    +0.379 N 
ATOM     11  C   UNL     1      -4.128  -3.877   2.448  0.00  0.00    -0.082 C 
ATOM     12  C   UNL     1      -2.602  -3.778   2.523  0.00  0.00    -0.010 C 
ATOM     13  H   UNL     1      -5.520  -5.316   2.060  0.00  0.00    -0.086 HD
ATOM     14  H   UNL     1      -4.120  -5.900   2.699  0.00  0.00    -0.086 HD
ENDROOT
BRANCH   1  20
ATOM     15  C   UNL     1      -3.691  -0.637  -0.603  0.00  0.00    +0.013 A 
ATOM     16  C   UNL     1      -4.898   0.031  -0.611  0.00  0.00    +0.013 A 
ATOM     17  C   UNL     1      -5.006   1.276  -0.018  0.00  0.00    +0.055 A 
ATOM     18  C   UNL     1      -3.906   1.860   0.586  0.00  0.00    +0.013 A 
ATOM     19  C   UNL     1      -2.694   1.202   0.601  0.00  0.00    +0.013 A 
ATOM     20  C   UNL     1      -2.578  -0.055   0.004  0.00  0.00    +0.037 A 
BRANCH  17  21
ATOM     21  C   UNL     1      -6.327   2.001  -0.030  0.00  0.00    +0.417 C 
ATOM     22  F   UNL     1      -7.061   1.653   1.110  0.00  0.00    -0.166 F 
ATOM     23  F   UNL     1      -6.102   3.382  -0.035  0.00  0.00    -0.166 F 
ATOM     24  F   UNL     1      -7.046   1.641  -1.175  0.00  0.00    -0.166 F 
ENDBRANCH  17  21
ENDBRANCH   1  20
BRANCH   5  25
ATOM     25  C   UNL     1      -0.011  -3.718   2.611  0.00  0.00    +0.218 C 
ATOM     26  O   UNL     1      -0.000  -2.557   2.962  0.00  0.00    -0.275 OA
ATOM     27  N   UNL     1       0.389  -4.683   3.463  0.00  0.00    -0.312 N 
ATOM     28  H   UNL     1       0.380  -5.612   3.183  0.00  0.00    +0.149 HD
BRANCH  27  29
ATOM     29  C   UNL     1       0.837  -4.329   4.812  0.00  0.00    +0.145 C 
BRANCH  29  30
ATOM     30  C   UNL     1       1.233  -5.599   5.568  0.00  0.00    +0.247 C 
BRANCH  30  31
ATOM     31  O   UNL     1       2.368  -6.195   4.936  0.00  0.00    -0.490 OA
BRANCH  31  32
ATOM     32  C   UNL     1       2.850  -7.340   5.487  0.00  0.00    +0.121 A 
ATOM     33  C   UNL     1       2.240  -7.882   6.609  0.00  0.00    +0.048 A 
ATOM     34  C   UNL     1       2.731  -9.046   7.168  0.00  0.00    +0.042 A 
ATOM     35  C   UNL     1       3.833  -9.672   6.609  0.00  0.00    +0.124 A 
ATOM     36  C   UNL     1       4.444  -9.132   5.490  0.00  0.00    +0.042 A 
ATOM     37  C   UNL     1       3.950  -7.971   4.925  0.00  0.00    +0.048 A 
ATOM     38  F   UNL     1       4.312 -10.810   7.157  0.00  0.00    -0.205 F 
ENDBRANCH  31  32
ENDBRANCH  30  31
ENDBRANCH  29  30
ENDBRANCH  27  29
ENDBRANCH   5  25
TORSDOF 7
