REMARK  Name = ZINC65251820
REMARK  6 active torsions:
REMARK  status: ('A' for Active; 'I' for Inactive)
REMARK    1  A    between atoms: C_1  and  C_2
REMARK    2  A    between atoms: C_7  and  N_8
REMARK    3  A    between atoms: C_12  and  C_14
REMARK    4  A    between atoms: C_14  and  N_15
REMARK    5  A    between atoms: C_19  and  C_21
REMARK    6  A    between atoms: N_23  and  C_24
REMARK                            x       y       z     vdW  Elec       q    Type
REMARK                         _______ _______ _______ _____ _____    ______ ____
ROOT
ATOM      1  N   UNL     1       2.116  -0.004   1.231  0.00  0.00    -0.296 N 
ATOM      2  C   UNL     1       2.795   0.128   2.388  0.00  0.00    +0.306 C 
ATOM      3  O   UNL     1       2.267  -0.174   3.440  0.00  0.00    -0.252 OA
ATOM      4  N   UNL     1       4.059   0.594   2.379  0.00  0.00    -0.242 N 
ATOM      5  C   UNL     1       4.738   0.726   3.536  0.00  0.00    +0.204 C 
ATOM      6  O   UNL     1       4.211   0.424   4.585  0.00  0.00    -0.277 OA
ATOM      7  H   UNL     1       2.538   0.237   0.392  0.00  0.00    +0.151 HD
ATOM      8  H   UNL     1       4.481   0.835   1.539  0.00  0.00    +0.159 HD
ENDROOT
BRANCH   1  15
ATOM      9  C   UNL     1      -0.019   1.526   0.010  0.00  0.00    +0.009 C 
ATOM     10  C   UNL     1       0.002  -0.004   0.002  0.00  0.00    +0.006 C 
ATOM     11  C   UNL     1       0.718  -0.497  -1.257  0.00  0.00    +0.005 C 
ATOM     12  C   UNL     1       0.739  -2.027  -1.265  0.00  0.00    +0.000 C 
ATOM     13  C   UNL     1       1.479  -2.534  -0.026  0.00  0.00    +0.002 C 
ATOM     14  C   UNL     1       0.763  -2.041   1.233  0.00  0.00    +0.022 C 
ATOM     15  C   UNL     1       0.742  -0.511   1.242  0.00  0.00    +0.077 C 
ENDBRANCH   1  15
BRANCH   5  16
ATOM     16  C   UNL     1       6.152   1.247   3.525  0.00  0.00    +0.019 C 
BRANCH  16  17
ATOM     17  N   UNL     1       6.666   1.296   4.900  0.00  0.00    +0.386 N 
ATOM     18  C   UNL     1       6.750  -0.067   5.438  0.00  0.00    -0.078 C 
ATOM     19  C   UNL     1       7.208  -0.016   6.897  0.00  0.00    -0.018 C 
ATOM     20  C   UNL     1       8.586   0.650   6.971  0.00  0.00    +0.009 C 
ATOM     21  C   UNL     1       8.503   2.042   6.340  0.00  0.00    +0.058 C 
ATOM     22  C   UNL     1       7.997   1.915   4.902  0.00  0.00    -0.065 C 
ATOM     23  H   UNL     1       6.041   1.844   5.473  0.00  0.00    -0.081 HD
BRANCH  21  24
ATOM     24  C   UNL     1       9.870   2.676   6.338  0.00  0.00    +0.215 C 
ATOM     25  O   UNL     1      10.388   2.998   5.290  0.00  0.00    -0.276 OA
ATOM     26  N   UNL     1      10.518   2.884   7.502  0.00  0.00    -0.312 N 
ATOM     27  H   UNL     1      10.104   2.626   8.340  0.00  0.00    +0.149 HD
BRANCH  26  28
ATOM     28  C   UNL     1      11.848   3.500   7.500  0.00  0.00    +0.073 C 
ATOM     29  C   UNL     1      12.912   2.886   8.412  0.00  0.00    +0.024 C 
ATOM     30  C   UNL     1      12.286   4.237   8.767  0.00  0.00    +0.024 C 
ENDBRANCH  26  28
ENDBRANCH  21  24
ENDBRANCH  16  17
ENDBRANCH   5  16
TORSDOF 5
