REMARK  Name = ZINC27529808
REMARK  10 active torsions:
REMARK  status: ('A' for Active; 'I' for Inactive)
REMARK    1  A    between atoms: C_1  and  C_2
REMARK    2  A    between atoms: C_2  and  O_3
REMARK    3  A    between atoms: O_3  and  C_4
REMARK    4  A    between atoms: C_7  and  C_12
REMARK    5  A    between atoms: C_9  and  O_10
REMARK    6  A    between atoms: O_10  and  C_11
REMARK    7  A    between atoms: C_14  and  C_26
REMARK    8  A    between atoms: C_22  and  C_24
REMARK    9  A    between atoms: C_26  and  C_28
REMARK   10  A    between atoms: C_35  and  C_38
REMARK                            x       y       z     vdW  Elec       q    Type
REMARK                         _______ _______ _______ _____ _____    ______ ____
ROOT
ATOM      1  C   UNL     1       3.795   3.886   0.021  0.00  0.00    +0.152 C 
ATOM      2  C   UNL     1       2.381   4.420   0.017  0.00  0.00    +0.077 C 
ATOM      3  C   UNL     1       2.473   5.768   0.106  0.00  0.00    +0.250 C 
ATOM      4  C   UNL     1       3.897   6.154   0.164  0.00  0.00    +0.293 C 
ATOM      5  O   UNL     1       4.307   7.295   0.247  0.00  0.00    -0.266 OA
ATOM      6  N   UNL     1       4.674   5.057   0.112  0.00  0.00    -0.230 N 
ATOM      7  C   UNL     1       6.062   5.036   0.143  0.00  0.00    +0.191 A 
ATOM      8  N   UNL     1       6.901   4.010   0.102  0.00  0.00    -0.125 NA
ATOM      9  N   UNL     1       8.152   4.172   0.137  0.00  0.00    -0.145 NA
ATOM     10  C   UNL     1       8.703   5.366   0.226  0.00  0.00    +0.101 A 
ATOM     11  S   UNL     1       7.232   6.387   0.256  0.00  0.00    -0.035 S 
ATOM     12  C   UNL     1      10.157   5.760   0.284  0.00  0.00    +0.075 C 
ATOM     13  O   UNL     1       1.427   6.625   0.137  0.00  0.00    -0.282 OA
ENDROOT
BRANCH   1  17
ATOM     14  C   UNL     1       4.572   1.755  -3.604  0.00  0.00    +0.162 A 
ATOM     15  C   UNL     1       4.692   3.135  -3.569  0.00  0.00    +0.050 A 
ATOM     16  C   UNL     1       4.440   3.821  -2.395  0.00  0.00    +0.009 A 
ATOM     17  C   UNL     1       4.068   3.133  -1.255  0.00  0.00    -0.018 A 
ATOM     18  C   UNL     1       3.951   1.756  -1.282  0.00  0.00    +0.055 A 
ATOM     19  C   UNL     1       4.198   1.063  -2.457  0.00  0.00    +0.162 A 
BRANCH  19  20
ATOM     20  O   UNL     1       4.079  -0.292  -2.487  0.00  0.00    -0.491 OA
ATOM     21  C   UNL     1       3.806  -0.946  -1.246  0.00  0.00    +0.277 C 
ENDBRANCH  19  20
BRANCH  14  22
ATOM     22  O   UNL     1       4.819   1.079  -4.758  0.00  0.00    -0.489 OA
BRANCH  22  24
ATOM     23  C   UNL     1       5.432   0.928  -7.091  0.00  0.00    +0.048 C 
ATOM     24  C   UNL     1       5.198   1.855  -5.896  0.00  0.00    +0.226 C 
ENDBRANCH  22  24
ENDBRANCH  14  22
ENDBRANCH   1  17
BRANCH   2  25
ATOM     25  C   UNL     1       1.149   3.631  -0.061  0.00  0.00    +0.195 C 
ATOM     26  O   UNL     1       0.438   3.709  -1.046  0.00  0.00    -0.287 OA
BRANCH  25  27
ATOM     27  C   UNL     1       0.769   2.741   1.054  0.00  0.00    +0.023 A 
ATOM     28  C   UNL     1       1.620   2.587   2.153  0.00  0.00    +0.015 A 
ATOM     29  C   UNL     1       1.266   1.755   3.189  0.00  0.00    +0.046 A 
ATOM     30  C   UNL     1       0.058   1.056   3.154  0.00  0.00    +0.124 A 
ATOM     31  C   UNL     1      -0.788   1.219   2.060  0.00  0.00    -0.002 A 
ATOM     32  C   UNL     1      -0.444   2.046   1.020  0.00  0.00    +0.019 A 
ATOM     33  C   UNL     1      -2.011   0.359   2.314  0.00  0.00    +0.083 C 
ATOM     34  C   UNL     1      -1.881   0.059   3.826  0.00  0.00    +0.175 C 
ATOM     35  O   UNL     1      -0.468   0.186   4.057  0.00  0.00    -0.488 OA
ATOM     36  C   UNL     1      -2.356  -1.362   4.139  0.00  0.00    +0.052 C 
ENDBRANCH  25  27
ENDBRANCH   2  25
TORSDOF 6
