REMARK  Name = ZINC12346076
REMARK  6 active torsions:
REMARK  status: ('A' for Active; 'I' for Inactive)
REMARK    1  A    between atoms: C_1  and  C_2
REMARK    2  A    between atoms: C_7  and  C_8
REMARK    3  A    between atoms: N_13  and  C_16
REMARK    4  A    between atoms: C_16  and  C_17
REMARK    5  A    between atoms: C_20  and  O_23
REMARK    6  A    between atoms: O_23  and  C_24
REMARK                            x       y       z     vdW  Elec       q    Type
REMARK                         _______ _______ _______ _____ _____    ______ ____
ROOT
ATOM      1  C   UNL     1       1.677  -2.143  -0.104  0.00  0.00    +0.142 C 
ATOM      2  C   UNL     1       2.166  -2.486  -1.497  0.00  0.00    +0.058 C 
ATOM      3  C   UNL     1       1.457  -3.388  -2.205  0.00  0.00    +0.039 C 
ATOM      4  C   UNL     1       2.163  -3.534  -3.535  0.00  0.00    +0.159 C 
ATOM      5  N   UNL     1       3.311  -2.619  -3.456  0.00  0.00    -0.288 N 
ATOM      6  C   UNL     1       3.270  -2.031  -2.247  0.00  0.00    +0.247 C 
ATOM      7  O   UNL     1       4.079  -1.212  -1.852  0.00  0.00    -0.270 OA
ATOM      8  N   UNL     1       0.338  -3.974  -1.687  0.00  0.00    -0.271 N 
ATOM      9  C   UNL     1      -0.138  -3.708  -0.464  0.00  0.00    +0.304 C 
ATOM     10  O   UNL     1      -1.143  -4.279  -0.087  0.00  0.00    -0.252 OA
ATOM     11  N   UNL     1       0.461  -2.829   0.363  0.00  0.00    -0.288 N 
ATOM     12  H   UNL     1      -0.139  -4.617  -2.235  0.00  0.00    +0.156 HD
ATOM     13  H   UNL     1       0.099  -2.651   1.245  0.00  0.00    +0.151 HD
ENDROOT
BRANCH   1  20
ATOM     14  C   UNL     1       1.798  -0.742   2.420  0.00  0.00    +0.044 C 
ATOM     15  C   UNL     1       1.481   0.012   1.154  0.00  0.00    -0.045 A 
ATOM     16  C   UNL     1       1.248   1.373   1.201  0.00  0.00    +0.004 A 
ATOM     17  C   UNL     1       0.955   2.064   0.040  0.00  0.00    +0.000 A 
ATOM     18  C   UNL     1       0.897   1.394  -1.167  0.00  0.00    +0.000 A 
ATOM     19  C   UNL     1       1.131   0.033  -1.214  0.00  0.00    +0.006 A 
ATOM     20  C   UNL     1       1.423  -0.659  -0.053  0.00  0.00    -0.020 A 
ENDBRANCH   1  20
BRANCH   5  21
ATOM     21  C   UNL     1       4.314  -2.391  -4.500  0.00  0.00    +0.143 C 
BRANCH  21  22
ATOM     22  C   UNL     1       5.454  -3.361  -4.321  0.00  0.00    -0.030 A 
ATOM     23  C   UNL     1       6.537  -3.015  -3.535  0.00  0.00    +0.009 A 
ATOM     24  C   UNL     1       7.581  -3.904  -3.365  0.00  0.00    +0.046 A 
ATOM     25  C   UNL     1       7.546  -5.140  -3.994  0.00  0.00    +0.120 A 
ATOM     26  C   UNL     1       6.461  -5.482  -4.787  0.00  0.00    +0.046 A 
ATOM     27  C   UNL     1       5.417  -4.592  -4.949  0.00  0.00    +0.009 A 
BRANCH  25  28
ATOM     28  O   UNL     1       8.575  -6.014  -3.834  0.00  0.00    -0.495 OA
ATOM     29  C   UNL     1       9.659  -5.595  -3.003  0.00  0.00    +0.277 C 
ENDBRANCH  25  28
ENDBRANCH  21  22
ENDBRANCH   5  21
TORSDOF 4
