REMARK  Name = ZINC00854361
REMARK  2 active torsions:
REMARK  status: ('A' for Active; 'I' for Inactive)
REMARK    1  A    between atoms: C_16  and  C_19
REMARK    2  A    between atoms: N_29  and  C_32
REMARK                            x       y       z     vdW  Elec       q    Type
REMARK                         _______ _______ _______ _____ _____    ______ ____
ROOT
ATOM      1  C   UNL     1      -0.511   0.654   1.029  0.00  0.00    +0.001 A 
ATOM      2  C   UNL     1       0.576   1.509   1.072  0.00  0.00    +0.001 A 
ATOM      3  C   UNL     1       1.856   1.024   0.883  0.00  0.00    +0.012 A 
ATOM      4  C   UNL     1       2.061  -0.337   0.647  0.00  0.00    +0.031 A 
ATOM      5  C   UNL     1       0.955  -1.207   0.603  0.00  0.00    +0.031 A 
ATOM      6  C   UNL     1      -0.330  -0.696   0.797  0.00  0.00    +0.012 A 
ATOM      7  C   UNL     1       1.413  -2.585   0.340  0.00  0.00    +0.204 C 
ATOM      8  O   UNL     1       0.715  -3.572   0.242  0.00  0.00    -0.288 OA
ATOM      9  C   UNL     1       2.910  -2.534   0.215  0.00  0.00    +0.206 C 
ATOM     10  C   UNL     1       3.305  -1.097   0.417  0.00  0.00    +0.204 C 
ATOM     11  O   UNL     1       4.431  -0.649   0.395  0.00  0.00    -0.288 OA
ATOM     12  C   UNL     1       3.367  -3.041  -1.161  0.00  0.00    +0.138 C 
ATOM     13  C   UNL     1       3.772  -4.520  -0.892  0.00  0.00    +0.125 C 
ATOM     14  C   UNL     1       3.501  -4.708   0.617  0.00  0.00    +0.164 C 
ATOM     15  O   UNL     1       3.543  -3.386   1.181  0.00  0.00    -0.348 OA
ATOM     16  C   UNL     1       2.761  -5.307  -1.695  0.00  0.00    +0.233 C 
ATOM     17  O   UNL     1       2.716  -6.516  -1.770  0.00  0.00    -0.274 OA
ATOM     18  N   UNL     1       1.924  -4.463  -2.309  0.00  0.00    -0.210 N 
ATOM     19  C   UNL     1       2.174  -3.151  -2.083  0.00  0.00    +0.234 C 
ATOM     20  O   UNL     1       1.551  -2.215  -2.537  0.00  0.00    -0.274 OA
ENDROOT
BRANCH  14  21
ATOM     21  C   UNL     1       4.555  -5.594   1.230  0.00  0.00    +0.000 A 
ATOM     22  C   UNL     1       5.656  -5.031   1.849  0.00  0.00    +0.009 A 
ATOM     23  C   UNL     1       6.623  -5.843   2.412  0.00  0.00    +0.020 A 
ATOM     24  C   UNL     1       6.489  -7.219   2.357  0.00  0.00    +0.042 A 
ATOM     25  C   UNL     1       5.388  -7.782   1.738  0.00  0.00    +0.040 A 
ATOM     26  C   UNL     1       4.418  -6.970   1.179  0.00  0.00    +0.048 A 
ATOM     27 CL   UNL     1       3.032  -7.676   0.408  0.00  0.00    -0.083 Cl
ATOM     28 CL   UNL     1       7.704  -8.238   3.063  0.00  0.00    -0.083 Cl
ENDBRANCH  14  21
BRANCH  18  29
ATOM     29  C   UNL     1       0.873  -4.899  -3.128  0.00  0.00    +0.044 A 
ATOM     30  C   UNL     1      -0.202  -5.582  -2.576  0.00  0.00    +0.025 A 
ATOM     31  C   UNL     1      -1.236  -6.011  -3.385  0.00  0.00    +0.017 A 
ATOM     32  C   UNL     1      -1.201  -5.760  -4.745  0.00  0.00    +0.018 A 
ATOM     33  C   UNL     1      -0.131  -5.079  -5.298  0.00  0.00    +0.017 A 
ATOM     34  C   UNL     1       0.903  -4.644  -4.492  0.00  0.00    +0.025 A 
ATOM     35 BR   UNL     1      -2.618  -6.348  -5.850  0.00  0.00    -0.050 Br
ENDBRANCH  18  29
TORSDOF 2
