REMARK  Name = ZINC25605868
REMARK  8 active torsions:
REMARK  status: ('A' for Active; 'I' for Inactive)
REMARK    1  A    between atoms: C_4  and  C_7
REMARK    2  A    between atoms: C_7  and  N_8
REMARK    3  A    between atoms: C_11  and  N_14
REMARK    4  A    between atoms: C_15  and  C_17
REMARK    5  A    between atoms: C_17  and  S_18
REMARK    6  A    between atoms: S_18  and  C_19
REMARK    7  A    between atoms: C_22  and  C_25
REMARK    8  A    between atoms: N_23  and  N_24
REMARK                            x       y       z     vdW  Elec       q    Type
REMARK                         _______ _______ _______ _____ _____    ______ ____
ROOT
ATOM      1  N   UNL     1       1.352   1.637   0.005  0.00  0.00    -0.314 N 
ATOM      2  C   UNL     1       2.314   1.025   0.723  0.00  0.00    +0.223 C 
ATOM      3  O   UNL     1       2.036   0.074   1.423  0.00  0.00    -0.275 OA
ATOM      4  H   UNL     1       1.605   2.499  -0.630  0.00  0.00    +0.149 HD
ENDROOT
BRANCH   1   8
ATOM      5  N   UNL     1      -1.939   2.402  -0.762  0.00  0.00    +0.384 N 
ATOM      6  C   UNL     1      -1.532   2.993   0.539  0.00  0.00    -0.077 C 
ATOM      7  C   UNL     1      -0.780   1.831   1.239  0.00  0.00    +0.002 C 
ATOM      8  C   UNL     1      -0.029   1.154   0.069  0.00  0.00    +0.055 C 
ATOM      9  C   UNL     1      -0.799   1.567  -1.199  0.00  0.00    -0.056 C 
ATOM     10  H   UNL     1      -2.862   1.811  -0.671  0.00  0.00    -0.081 HD
BRANCH   5  11
ATOM     11  C   UNL     1      -2.232   3.451  -1.748  0.00  0.00    -0.043 C 
BRANCH  11  15
ATOM     12  C   UNL     1      -5.043   6.212  -0.098  0.00  0.00    +0.000 A 
ATOM     13  C   UNL     1      -3.687   6.424   0.069  0.00  0.00    +0.000 A 
ATOM     14  C   UNL     1      -2.777   5.530  -0.465  0.00  0.00    +0.002 A 
ATOM     15  C   UNL     1      -3.224   4.425  -1.165  0.00  0.00    -0.064 A 
ATOM     16  C   UNL     1      -4.579   4.216  -1.336  0.00  0.00    +0.002 A 
ATOM     17  C   UNL     1      -5.489   5.107  -0.799  0.00  0.00    +0.000 A 
ENDBRANCH  11  15
ENDBRANCH   5  11
ENDBRANCH   1   8
BRANCH   2  18
ATOM     18  C   UNL     1       3.736   1.522   0.657  0.00  0.00    +0.173 C 
BRANCH  18  19
ATOM     19  S   UNL     1       4.782   0.501   1.724  0.00  0.00    -0.075 S 
BRANCH  19  20
ATOM     20  C   UNL     1       6.340   1.281   1.462  0.00  0.00    +0.209 A 
ATOM     21  N   UNL     1       6.573   2.315   0.685  0.00  0.00    -0.121 NA
ATOM     22  N   UNL     1       7.819   2.627   0.727  0.00  0.00    -0.127 NA
ATOM     23  C   UNL     1       8.458   1.812   1.533  0.00  0.00    +0.184 A 
ATOM     24  N   UNL     1       7.529   0.928   2.033  0.00  0.00    -0.224 N 
BRANCH  23  25
ATOM     25  C   UNL     1       9.902   1.841   1.849  0.00  0.00    +0.056 A 
ATOM     26  C   UNL     1      10.647   0.661   1.835  0.00  0.00    +0.014 A 
ATOM     27  C   UNL     1      11.995   0.696   2.127  0.00  0.00    +0.001 A 
ATOM     28  C   UNL     1      12.607   1.896   2.443  0.00  0.00    +0.003 A 
ATOM     29  C   UNL     1      11.876   3.069   2.464  0.00  0.00    +0.039 A 
ATOM     30  C   UNL     1      10.526   3.050   2.169  0.00  0.00    +0.134 A 
ATOM     31  F   UNL     1       9.811   4.197   2.191  0.00  0.00    -0.205 F 
ENDBRANCH  23  25
BRANCH  24  32
ATOM     32  N   UNL     1       7.751  -0.092   2.914  0.00  0.00    -0.295 N 
ATOM     33  H   UNL     1       8.764  -0.273   3.302  0.00  0.00    +0.163 HD
ATOM     34  H   UNL     1       6.917  -0.733   3.234  0.00  0.00    +0.163 HD
ENDBRANCH  24  32
ENDBRANCH  19  20
ENDBRANCH  18  19
ENDBRANCH   2  18
TORSDOF 8
