REMARK  Name = ZINC09500749
REMARK  3 active torsions:
REMARK  status: ('A' for Active; 'I' for Inactive)
REMARK    1  A    between atoms: C_1  and  C_2
REMARK    2  A    between atoms: C_9  and  N_14
REMARK    3  A    between atoms: C_15  and  C_17
REMARK                            x       y       z     vdW  Elec       q    Type
REMARK                         _______ _______ _______ _____ _____    ______ ____
ROOT
ATOM      1  C   UNL     1       3.307  10.353   1.688  0.00  0.00    +0.062 C 
ATOM      2  C   UNL     1       3.499  10.418   0.171  0.00  0.00    +0.256 C 
ATOM      3  C   UNL     1       4.818   9.786  -0.196  0.00  0.00    +0.258 C 
ATOM      4  O   UNL     1       5.820  10.466  -0.266  0.00  0.00    -0.271 OA
ATOM      5  N   UNL     1       4.879   8.460  -0.446  0.00  0.00    -0.279 N 
ATOM      6  C   UNL     1       3.700   7.704  -0.392  0.00  0.00    +0.077 A 
ATOM      7  C   UNL     1       3.749   6.322  -0.325  0.00  0.00    +0.050 A 
ATOM      8  C   UNL     1       2.570   5.591  -0.274  0.00  0.00    +0.035 A 
ATOM      9  C   UNL     1       1.345   6.245  -0.296  0.00  0.00    +0.027 A 
ATOM     10  C   UNL     1       1.295   7.625  -0.357  0.00  0.00    +0.049 A 
ATOM     11  C   UNL     1       2.468   8.358  -0.408  0.00  0.00    +0.143 A 
ATOM     12  O   UNL     1       2.434   9.716  -0.474  0.00  0.00    -0.478 OA
ATOM     13  H   UNL     1       5.726   8.038  -0.659  0.00  0.00    +0.155 HD
ENDROOT
BRANCH   8  14
ATOM     14  N   UNL     1       2.615   4.192  -0.206  0.00  0.00    -0.285 N 
ATOM     15  C   UNL     1       3.600   3.582   0.482  0.00  0.00    +0.221 C 
ATOM     16  O   UNL     1       4.494   4.240   0.973  0.00  0.00    -0.275 OA
ATOM     17  H   UNL     1       1.938   3.663  -0.655  0.00  0.00    +0.155 HD
BRANCH  15  18
ATOM     18  C   UNL     1       3.592   2.084   0.643  0.00  0.00    +0.079 C 
ATOM     19  C   UNL     1       4.813   1.646   1.462  0.00  0.00    +0.017 C 
ATOM     20  C   UNL     1       4.685   0.151   1.760  0.00  0.00    +0.027 C 
ATOM     21  C   UNL     1       4.372  -0.603   0.500  0.00  0.00    -0.031 C 
ATOM     22  C   UNL     1       3.926  -0.052  -0.583  0.00  0.00    -0.030 C 
ATOM     23  C   UNL     1       3.667   1.419  -0.733  0.00  0.00    +0.039 C 
ENDBRANCH  15  18
ENDBRANCH   8  14
TORSDOF 2
