REMARK  Name = ZINC33937027
REMARK  12 active torsions:
REMARK  status: ('A' for Active; 'I' for Inactive)
REMARK    1  A    between atoms: C_1  and  C_2
REMARK    2  A    between atoms: C_2  and  C_3
REMARK    3  A    between atoms: C_3  and  C_5
REMARK    4  A    between atoms: C_3  and  N_17
REMARK    5  A    between atoms: N_9  and  C_10
REMARK    6  A    between atoms: C_10  and  C_11
REMARK    7  A    between atoms: N_17  and  C_18
REMARK    8  A    between atoms: N_17  and  C_26
REMARK    9  A    between atoms: C_18  and  C_19
REMARK   10  A    between atoms: C_26  and  C_27
REMARK   11  A    between atoms: C_31  and  C_40
REMARK   12  A    between atoms: C_32  and  C_39
REMARK                            x       y       z     vdW  Elec       q    Type
REMARK                         _______ _______ _______ _____ _____    ______ ____
ROOT
ATOM      1  N   UNL     1       2.836   0.163   0.965  0.00  0.00    +0.392 N 
ATOM      2  H   UNL     1       3.175  -0.249   0.109  0.00  0.00    -0.080 HD
ENDROOT
BRANCH   1   3
ATOM      3  C   UNL     1       1.391  -0.072   1.084  0.00  0.00    +0.003 C 
BRANCH   3   4
ATOM      4  C   UNL     1       0.879   0.572   2.346  0.00  0.00    +0.138 A 
ATOM      5  N   UNL     1       1.454   0.552   3.524  0.00  0.00    -0.115 NA
ATOM      6  N   UNL     1       0.709   1.213   4.341  0.00  0.00    -0.023 NA
ATOM      7  N   UNL     1      -0.326   1.655   3.715  0.00  0.00    -0.044 NA
ATOM      8  N   UNL     1      -0.255   1.285   2.482  0.00  0.00    -0.228 N 
BRANCH   8   9
ATOM      9  C   UNL     1      -1.227   1.582   1.427  0.00  0.00    +0.178 C 
BRANCH   9  10
ATOM     10  C   UNL     1      -2.373   0.569   1.489  0.00  0.00    +0.140 C 
ATOM     11  C   UNL     1      -3.458   0.919   0.440  0.00  0.00    +0.035 C 
ATOM     12  C   UNL     1      -4.114  -0.471   0.220  0.00  0.00    +0.031 C 
ATOM     13  C   UNL     1      -2.913  -1.429   0.377  0.00  0.00    +0.160 C 
ATOM     14  O   UNL     1      -1.903  -0.738   1.124  0.00  0.00    -0.375 OA
ENDBRANCH   9  10
ENDBRANCH   8   9
ENDBRANCH   3   4
BRANCH   3  16
ATOM     15  C   UNL     1       1.577  -2.221  -0.177  0.00  0.00    +0.002 C 
ATOM     16  C   UNL     1       1.123  -1.578   1.134  0.00  0.00    -0.011 C 
ENDBRANCH   3  16
ENDBRANCH   1   3
BRANCH   1  17
ATOM     17  C   UNL     1       3.097   1.609   0.950  0.00  0.00    -0.042 C 
BRANCH  17  18
ATOM     18  C   UNL     1       2.520   2.210  -0.306  0.00  0.00    -0.064 A 
ATOM     19  C   UNL     1       3.241   2.169  -1.486  0.00  0.00    +0.004 A 
ATOM     20  C   UNL     1       2.713   2.719  -2.638  0.00  0.00    +0.038 A 
ATOM     21  C   UNL     1       1.462   3.311  -2.612  0.00  0.00    +0.123 A 
ATOM     22  C   UNL     1       0.741   3.352  -1.430  0.00  0.00    +0.038 A 
ATOM     23  C   UNL     1       1.269   2.796  -0.280  0.00  0.00    +0.004 A 
ATOM     24  F   UNL     1       0.945   3.850  -3.738  0.00  0.00    -0.205 F 
ENDBRANCH  17  18
ENDBRANCH   1  17
BRANCH   1  25
ATOM     25  C   UNL     1       3.527  -0.447   2.109  0.00  0.00    -0.036 C 
BRANCH  25  26
ATOM     26  C   UNL     1       5.017  -0.336   1.913  0.00  0.00    +0.001 A 
ATOM     27  C   UNL     1       5.701   0.683   2.491  0.00  0.00    +0.017 A 
ATOM     28  C   UNL     1       7.148   0.762   2.282  0.00  0.00    -0.001 A 
ATOM     29  C   UNL     1       7.906   1.790   2.852  0.00  0.00    +0.013 A 
ATOM     30  C   UNL     1       9.255   1.835   2.638  0.00  0.00    -0.047 A 
ATOM     31  C   UNL     1       9.879   0.870   1.859  0.00  0.00    -0.046 A 
ATOM     32  C   UNL     1       9.151  -0.151   1.286  0.00  0.00    +0.030 A 
ATOM     33  C   UNL     1       7.777  -0.218   1.491  0.00  0.00    +0.049 A 
ATOM     34  N   UNL     1       7.025  -1.229   0.931  0.00  0.00    -0.322 N 
ATOM     35  H   UNL     1       7.460  -1.903   0.387  0.00  0.00    +0.169 HD
ATOM     36  C   UNL     1       5.697  -1.296   1.134  0.00  0.00    +0.251 A 
ATOM     37  O   UNL     1       5.065  -2.206   0.628  0.00  0.00    -0.268 OA
ATOM     38  C   UNL     1      11.368   0.941   1.635  0.00  0.00    +0.044 C 
ATOM     39  C   UNL     1      10.072   2.942   3.253  0.00  0.00    +0.044 C 
ENDBRANCH  25  26
ENDBRANCH   1  25
TORSDOF 9
