REMARK  Name = ZINC39465477
REMARK  3 active torsions:
REMARK  status: ('A' for Active; 'I' for Inactive)
REMARK    1  A    between atoms: C_1  and  C_2
REMARK    2  A    between atoms: C_2  and  O_3
REMARK    3  A    between atoms: O_3  and  C_4
REMARK                            x       y       z     vdW  Elec       q    Type
REMARK                         _______ _______ _______ _____ _____    ______ ____
ROOT
ATOM      1  C   UNL     1      -1.498  -1.848   0.006  0.00  0.00    +0.135 A 
ATOM      2  C   UNL     1      -0.391  -2.681  -0.003  0.00  0.00    +0.050 A 
ATOM      3  C   UNL     1      -0.551  -4.057  -0.009  0.00  0.00    -0.038 A 
ATOM      4  C   UNL     1      -1.816  -4.605  -0.005  0.00  0.00    -0.022 A 
ATOM      5  C   UNL     1      -2.926  -3.772   0.005  0.00  0.00    +0.024 A 
ATOM      6  C   UNL     1      -2.772  -2.400   0.016  0.00  0.00    +0.060 A 
ATOM      7 BR   UNL     1      -4.292  -1.276   0.036  0.00  0.00    -0.047 Br
ATOM      8  C   UNL     1      -2.043  -6.093  -0.014  0.00  0.00    +0.130 C 
ATOM      9  C   UNL     1      -3.170  -6.432   0.967  0.00  0.00    +0.196 C 
ATOM     10  O   UNL     1      -3.461  -7.840   0.867  0.00  0.00    -0.292 OA
ATOM     11  P   UNL     1      -2.223  -8.891   0.951  0.00  0.00    +0.448 P 
ATOM     12  O   UNL     1      -1.831  -9.137   2.425  0.00  0.00    -0.236 OA
ATOM     13  N   UNL     1      -0.974  -8.174   0.140  0.00  0.00    -0.154 NA
ATOM     14  N   UNL     1      -0.823  -6.817   0.344  0.00  0.00    -0.224 NA
ATOM     15  C   UNL     1       0.323  -6.335  -0.443  0.00  0.00    +0.108 C 
ATOM     16  C   UNL     1       0.682  -4.924  -0.017  0.00  0.00    +0.052 C 
ATOM     17  O   UNL     1      -2.608 -10.225   0.273  0.00  0.00    -0.126 OA
ATOM     18  H   UNL     1      -0.382  -8.682  -0.436  0.00  0.00    +0.153 HD
ENDROOT
BRANCH   1  19
ATOM     19  O   UNL     1      -1.339  -0.499   0.012  0.00  0.00    -0.491 OA
BRANCH  19  21
ATOM     20  C   UNL     1      -0.019   1.526   0.010  0.00  0.00    +0.048 C 
ATOM     21  C   UNL     1       0.002  -0.004   0.002  0.00  0.00    +0.226 C 
ENDBRANCH  19  21
ENDBRANCH   1  19
TORSDOF 2
