REMARK  Name = ZINC36207996
REMARK  10 active torsions:
REMARK  status: ('A' for Active; 'I' for Inactive)
REMARK    1  A    between atoms: C_1  and  C_2
REMARK    2  A    between atoms: C_15  and  C_17
REMARK    3  A    between atoms: C_17  and  N_18
REMARK    4  A    between atoms: N_18  and  C_19
REMARK    5  A    between atoms: N_18  and  C_27
REMARK    6  A    between atoms: C_19  and  C_20
REMARK    7  A    between atoms: C_20  and  N_21
REMARK    8  A    between atoms: C_27  and  C_28
REMARK    9  A    between atoms: C_28  and  C_30
REMARK   10  A    between atoms: C_28  and  O_31
REMARK                            x       y       z     vdW  Elec       q    Type
REMARK                         _______ _______ _______ _____ _____    ______ ____
ROOT
ATOM      1  C   UNL     1       0.274  -0.192  -2.930  0.00  0.00    +0.008 C 
ATOM      2  C   UNL     1       0.339  -1.640  -2.441  0.00  0.00    -0.009 C 
ATOM      3  C   UNL     1      -1.065  -2.252  -2.456  0.00  0.00    +0.008 C 
ATOM      4  C   UNL     1      -0.978  -3.758  -2.210  0.00  0.00    +0.037 C 
ATOM      5  C   UNL     1      -0.170  -4.005  -0.938  0.00  0.00    -0.023 A 
ATOM      6  C   UNL     1       0.641  -3.042  -0.441  0.00  0.00    -0.004 A 
ATOM      7  S   UNL     1       1.366  -3.753   1.016  0.00  0.00    -0.073 S 
ATOM      8  C   UNL     1       0.582  -5.332   0.955  0.00  0.00    +0.116 A 
ATOM      9  C   UNL     1      -0.223  -5.256  -0.203  0.00  0.00    +0.075 A 
ATOM     10  C   UNL     1      -1.005  -6.414  -0.531  0.00  0.00    +0.260 A 
ATOM     11  O   UNL     1      -1.732  -6.451  -1.509  0.00  0.00    -0.267 OA
ATOM     12  N   UNL     1      -0.883  -7.464   0.316  0.00  0.00    -0.312 N 
ATOM     13  H   UNL     1      -1.393  -8.268   0.132  0.00  0.00    +0.170 HD
ATOM     14  C   UNL     1      -0.081  -7.444   1.407  0.00  0.00    +0.094 A 
ATOM     15  N   UNL     1       0.650  -6.403   1.741  0.00  0.00    -0.229 NA
ATOM     16  C   UNL     1       0.878  -1.674  -1.004  0.00  0.00    +0.046 C 
ENDROOT
BRANCH  14  17
ATOM     17  C   UNL     1      -0.024  -8.672   2.280  0.00  0.00    -0.003 C 
BRANCH  17  18
ATOM     18  N   UNL     1       0.899  -8.435   3.398  0.00  0.00    +0.387 N 
ATOM     19  H   UNL     1       1.796  -8.144   3.038  0.00  0.00    -0.081 HD
BRANCH  18  20
ATOM     20  C   UNL     1       1.060  -9.674   4.171  0.00  0.00    -0.063 C 
BRANCH  20  21
ATOM     21  C   UNL     1       2.093  -9.454   5.278  0.00  0.00    +0.066 C 
BRANCH  21  22
ATOM     22  N   UNL     1       2.184 -10.662   6.109  0.00  0.00    -0.300 NA
ATOM     23  C   UNL     1       0.934 -10.889   6.847  0.00  0.00    +0.112 C 
ATOM     24  C   UNL     1       1.051 -12.186   7.652  0.00  0.00    +0.175 C 
ATOM     25  O   UNL     1       2.184 -12.102   8.520  0.00  0.00    -0.377 OA
ATOM     26  C   UNL     1       3.420 -11.881   7.835  0.00  0.00    +0.175 C 
ATOM     27  C   UNL     1       3.326 -10.581   7.032  0.00  0.00    +0.112 C 
ENDBRANCH  21  22
ENDBRANCH  20  21
ENDBRANCH  18  20
BRANCH  18  28
ATOM     28  C   UNL     1       0.356  -7.383   4.267  0.00  0.00    -0.047 C 
BRANCH  28  29
ATOM     29  C   UNL     1      -0.915  -7.891   4.950  0.00  0.00    +0.095 C 
ATOM     30  C   UNL     1      -1.358  -6.887   6.016  0.00  0.00    +0.035 C 
BRANCH  29  31
ATOM     31  O   UNL     1      -1.951  -8.041   3.978  0.00  0.00    -0.394 OA
ATOM     32  H   UNL     1      -2.136  -7.238   3.472  0.00  0.00    +0.210 HD
ENDBRANCH  29  31
ENDBRANCH  28  29
ENDBRANCH  18  28
ENDBRANCH  17  18
ENDBRANCH  14  17
TORSDOF 8
