REMARK  Name = ZINC43125798
REMARK  8 active torsions:
REMARK  status: ('A' for Active; 'I' for Inactive)
REMARK    1  A    between atoms: C_1  and  C_2
REMARK    2  A    between atoms: C_2  and  O_3
REMARK    3  A    between atoms: O_3  and  C_4
REMARK    4  A    between atoms: C_12  and  S_14
REMARK    5  A    between atoms: S_14  and  C_15
REMARK    6  A    between atoms: C_15  and  C_17
REMARK    7  A    between atoms: C_15  and  C_19
REMARK    8  A    between atoms: C_17  and  N_18
REMARK                            x       y       z     vdW  Elec       q    Type
REMARK                         _______ _______ _______ _____ _____    ______ ____
ROOT
ATOM      1  C   UNL     1      -1.932  -1.767   0.479  0.00  0.00    +0.123 A 
ATOM      2  C   UNL     1      -0.765  -2.524   0.440  0.00  0.00    +0.048 A 
ATOM      3  C   UNL     1      -0.827  -3.896   0.341  0.00  0.00    +0.033 A 
ATOM      4  C   UNL     1      -2.068  -4.533   0.280  0.00  0.00    +0.090 A 
ATOM      5  C   UNL     1      -3.244  -3.767   0.320  0.00  0.00    +0.070 A 
ATOM      6  C   UNL     1      -3.168  -2.386   0.424  0.00  0.00    +0.073 A 
ATOM      7  N   UNL     1      -4.294  -4.667   0.242  0.00  0.00    -0.333 N 
ATOM      8  H   UNL     1      -5.240  -4.449   0.246  0.00  0.00    +0.168 HD
ATOM      9  C   UNL     1      -3.751  -5.918   0.160  0.00  0.00    +0.168 A 
ATOM     10  N   UNL     1      -2.443  -5.837   0.182  0.00  0.00    -0.222 NA
ENDROOT
BRANCH   1  11
ATOM     11  O   UNL     1      -1.857  -0.413   0.576  0.00  0.00    -0.492 OA
BRANCH  11  13
ATOM     12  C   UNL     1      -0.666   1.684   0.737  0.00  0.00    +0.048 C 
ATOM     13  C   UNL     1      -0.549   0.163   0.628  0.00  0.00    +0.225 C 
ENDBRANCH  11  13
ENDBRANCH   1  11
BRANCH   9  14
ATOM     14  S   UNL     1      -4.671  -7.416   0.042  0.00  0.00    -0.082 S 
BRANCH  14  15
ATOM     15  C   UNL     1      -3.402  -8.695  -0.170  0.00  0.00    +0.067 C 
BRANCH  15  16
ATOM     16  C   UNL     1      -4.063 -10.010  -0.492  0.00  0.00    -0.029 A 
ATOM     17  C   UNL     1      -3.779 -10.666  -1.675  0.00  0.00    +0.012 A 
ATOM     18  C   UNL     1      -4.391 -11.848  -1.935  0.00  0.00    +0.045 A 
ATOM     19  S   UNL     1      -5.405 -12.065  -0.482  0.00  0.00    -0.105 S 
ATOM     20  C   UNL     1      -4.941 -10.570   0.376  0.00  0.00    +0.049 A 
ENDBRANCH  15  16
BRANCH  15  21
ATOM     21  C   UNL     1      -2.596  -8.833   1.123  0.00  0.00    -0.067 C 
BRANCH  21  22
ATOM     22  N   UNL     1      -1.485  -9.770   0.910  0.00  0.00    +0.379 N 
ATOM     23  H   UNL     1      -0.904  -9.796   1.735  0.00  0.00    -0.090 HD
ATOM     24  H   UNL     1      -1.853 -10.692   0.729  0.00  0.00    -0.090 HD
ATOM     25  H   UNL     1      -0.935  -9.466   0.121  0.00  0.00    -0.090 HD
ENDBRANCH  21  22
ENDBRANCH  15  21
ENDBRANCH  14  15
ENDBRANCH   9  14
TORSDOF 7
