REMARK  Name = ZINC39795912
REMARK  10 active torsions:
REMARK  status: ('A' for Active; 'I' for Inactive)
REMARK    1  A    between atoms: C_1  and  C_2
REMARK    2  A    between atoms: C_2  and  C_4
REMARK    3  A    between atoms: C_2  and  S_14
REMARK    4  A    between atoms: N_9  and  C_10
REMARK    5  A    between atoms: C_10  and  C_11
REMARK    6  A    between atoms: C_11  and  C_12
REMARK    7  A    between atoms: C_11  and  C_13
REMARK    8  A    between atoms: S_14  and  C_15
REMARK    9  A    between atoms: C_19  and  C_24
REMARK   10  A    between atoms: N_20  and  C_21
REMARK                            x       y       z     vdW  Elec       q    Type
REMARK                         _______ _______ _______ _____ _____    ______ ____
ROOT
ATOM      1  C   UNL     1       2.628  -0.030  -1.294  0.00  0.00    +0.238 C 
ATOM      2  N   UNL     1       2.816   1.426  -1.188  0.00  0.00    -0.237 N 
ATOM      3  N   UNL     1       3.201   1.683   0.133  0.00  0.00    -0.169 NA
ATOM      4  C   UNL     1       3.270   0.580   0.830  0.00  0.00    +0.147 C 
ATOM      5  N   UNL     1       2.939  -0.537   0.053  0.00  0.00    -0.282 N 
ATOM      6  H   UNL     1       2.696   2.079  -1.895  0.00  0.00    +0.171 HD
ENDROOT
BRANCH   4   7
ATOM      7  C   UNL     1       3.631   0.521   2.185  0.00  0.00    +0.022 C 
ATOM      8  C   UNL     1       3.876   1.596   3.039  0.00  0.00    +0.006 A 
ATOM      9  C   UNL     1       3.845   2.994   2.846  0.00  0.00    +0.010 A 
ATOM     10  C   UNL     1       4.134   3.823   3.882  0.00  0.00    +0.001 A 
ATOM     11  C   UNL     1       4.464   3.328   5.146  0.00  0.00    +0.002 A 
ATOM     12  C   UNL     1       4.513   1.998   5.402  0.00  0.00    +0.026 A 
ATOM     13  C   UNL     1       4.224   1.069   4.369  0.00  0.00    +0.043 A 
ATOM     14  N   UNL     1       4.202  -0.250   4.363  0.00  0.00    -0.380 N 
ATOM     15  C   UNL     1       3.830  -0.721   3.025  0.00  0.00    +0.152 C 
ATOM     16  H   UNL     1       4.397  -0.818   5.124  0.00  0.00    +0.160 HD
ENDBRANCH   4   7
BRANCH   5  17
ATOM     17  C   UNL     1       2.907  -1.935   0.491  0.00  0.00    +0.078 C 
ATOM     18  C   UNL     1       2.605  -3.000  -0.565  0.00  0.00    +0.024 C 
ATOM     19  C   UNL     1       1.553  -2.646   0.488  0.00  0.00    +0.024 C 
ENDBRANCH   5  17
BRANCH   1  20
ATOM     20  S   UNL     1       0.913  -0.418  -1.738  0.00  0.00    -0.106 S 
BRANCH  20  22
ATOM     21  C   UNL     1       0.104   1.889  -0.511  0.00  0.00    +0.029 C 
ATOM     22  C   UNL     1      -0.068   0.371  -0.431  0.00  0.00    +0.133 C 
BRANCH  22  23
ATOM     23  C   UNL     1      -1.522   0.020  -0.613  0.00  0.00    +0.233 C 
ATOM     24  O   UNL     1      -1.922  -0.368  -1.690  0.00  0.00    -0.274 OA
ATOM     25  N   UNL     1      -2.378   0.138   0.421  0.00  0.00    -0.239 N 
ATOM     26  C   UNL     1      -3.679  -0.176   0.258  0.00  0.00    +0.306 C 
ATOM     27  O   UNL     1      -4.080  -0.565  -0.821  0.00  0.00    -0.252 OA
ATOM     28  N   UNL     1      -4.535  -0.058   1.293  0.00  0.00    -0.299 N 
ATOM     29  H   UNL     1      -2.058   0.449   1.282  0.00  0.00    +0.159 HD
ATOM     30  H   UNL     1      -4.215   0.252   2.154  0.00  0.00    +0.150 HD
BRANCH  28  31
ATOM     31  C   UNL     1      -5.949  -0.400   1.116  0.00  0.00    +0.108 C 
BRANCH  31  32
ATOM     32  C   UNL     1      -6.695  -0.179   2.433  0.00  0.00    -0.000 C 
ATOM     33  C   UNL     1      -8.191  -0.415   2.217  0.00  0.00    +0.009 C 
ATOM     34  C   UNL     1      -6.171  -1.157   3.486  0.00  0.00    +0.009 C 
ENDBRANCH  31  32
ENDBRANCH  28  31
ENDBRANCH  22  23
ENDBRANCH  20  22
ENDBRANCH   1  20
TORSDOF 7
