REMARK  Name = ZINC19019272
REMARK  6 active torsions:
REMARK  status: ('A' for Active; 'I' for Inactive)
REMARK    1  A    between atoms: C_1  and  C_2
REMARK    2  A    between atoms: C_11  and  S_13
REMARK    3  A    between atoms: S_13  and  N_16
REMARK    4  A    between atoms: N_16  and  C_17
REMARK    5  A    between atoms: C_21  and  C_23
REMARK    6  A    between atoms: N_27  and  C_28
REMARK                            x       y       z     vdW  Elec       q    Type
REMARK                         _______ _______ _______ _____ _____    ______ ____
ROOT
ATOM      1  S   UNL     1       1.687  -2.318  -1.350  0.00  0.00    +0.072 S 
ATOM      2  O   UNL     1       0.996  -3.542  -1.145  0.00  0.00    -0.150 OA
ATOM      3  O   UNL     1       1.769  -1.693  -2.624  0.00  0.00    -0.150 OA
ENDROOT
BRANCH   1  14
ATOM      4  C   UNL     1       9.629  -3.255   0.978  0.00  0.00    +0.109 C 
ATOM      5  C   UNL     1       8.364  -2.764   0.321  0.00  0.00    +0.217 C 
ATOM      6  O   UNL     1       8.406  -1.832  -0.455  0.00  0.00    -0.276 OA
ATOM      7  N   UNL     1       7.187  -3.361   0.594  0.00  0.00    -0.271 N 
ATOM      8  C   UNL     1       7.011  -4.491   1.510  0.00  0.00    +0.118 C 
ATOM      9  C   UNL     1       5.506  -4.803   1.481  0.00  0.00    +0.056 C 
ATOM     10  C   UNL     1       4.926  -3.792   0.518  0.00  0.00    -0.023 A 
ATOM     11  C   UNL     1       5.955  -2.993   0.045  0.00  0.00    +0.040 A 
ATOM     12  C   UNL     1       5.660  -1.977  -0.866  0.00  0.00    +0.026 A 
ATOM     13  C   UNL     1       4.364  -1.779  -1.291  0.00  0.00    +0.030 A 
ATOM     14  C   UNL     1       3.344  -2.578  -0.809  0.00  0.00    +0.109 A 
ATOM     15  C   UNL     1       3.628  -3.586   0.093  0.00  0.00    +0.034 A 
ENDBRANCH   1  14
BRANCH   1  16
ATOM     16  N   UNL     1       1.005  -1.211  -0.324  0.00  0.00    -0.216 N 
ATOM     17  H   UNL     1       0.708  -0.353  -0.664  0.00  0.00    +0.174 HD
BRANCH  16  18
ATOM     18  C   UNL     1       0.858  -1.514   1.032  0.00  0.00    +0.049 A 
ATOM     19  C   UNL     1      -0.143  -2.387   1.445  0.00  0.00    +0.024 A 
ATOM     20  C   UNL     1      -0.291  -2.690   2.785  0.00  0.00    +0.003 A 
ATOM     21  C   UNL     1       0.552  -2.128   3.722  0.00  0.00    +0.012 A 
ATOM     22  C   UNL     1       1.560  -1.252   3.318  0.00  0.00    +0.021 A 
ATOM     23  C   UNL     1       1.710  -0.946   1.966  0.00  0.00    +0.036 A 
BRANCH  22  24
ATOM     24  C   UNL     1       2.469  -0.653   4.320  0.00  0.00    +0.164 A 
ATOM     25  N   UNL     1       2.262  -0.574   5.615  0.00  0.00    -0.129 NA
ATOM     26  N   UNL     1       3.262   0.003   6.180  0.00  0.00    -0.138 NA
ATOM     27  C   UNL     1       4.153   0.333   5.284  0.00  0.00    +0.225 A 
ATOM     28  N   UNL     1       3.683  -0.072   4.073  0.00  0.00    -0.317 N 
ATOM     29  C   UNL     1       4.341   0.083   2.773  0.00  0.00    +0.152 C 
ENDBRANCH  22  24
ENDBRANCH  16  18
ENDBRANCH   1  16
TORSDOF 4
