REMARK  Name = ZINC32536374
REMARK  9 active torsions:
REMARK  status: ('A' for Active; 'I' for Inactive)
REMARK    1  A    between atoms: C_1  and  C_2
REMARK    2  A    between atoms: C_7  and  S_8
REMARK    3  A    between atoms: S_8  and  C_11
REMARK    4  A    between atoms: C_18  and  N_20
REMARK    5  A    between atoms: N_20  and  C_21
REMARK    6  A    between atoms: C_21  and  C_22
REMARK    7  A    between atoms: C_22  and  C_23
REMARK    8  A    between atoms: C_26  and  S_29
REMARK    9  A    between atoms: S_29  and  N_32
REMARK                            x       y       z     vdW  Elec       q    Type
REMARK                         _______ _______ _______ _____ _____    ______ ____
ROOT
ATOM      1  C   UNL     1       2.329   0.295   1.979  0.00  0.00    +0.175 C 
ATOM      2  C   UNL     1       1.074  -0.621   1.996  0.00  0.00    +0.194 C 
ATOM      3  S   UNL     1       1.501  -1.699   3.434  0.00  0.00    -0.028 S 
ATOM      4  O   UNL     1       0.988  -3.005   3.207  0.00  0.00    -0.174 OA
ATOM      5  O   UNL     1       1.183  -1.019   4.640  0.00  0.00    -0.174 OA
ATOM      6  C   UNL     1       3.329  -1.720   3.213  0.00  0.00    +0.186 C 
ATOM      7  C   UNL     1       3.586  -0.520   2.281  0.00  0.00    +0.101 C 
ENDROOT
BRANCH   1   8
ATOM      8  S   UNL     1       2.490   1.061   0.342  0.00  0.00    +0.003 S 
ATOM      9  O   UNL     1       2.442   0.065  -0.671  0.00  0.00    -0.169 OA
ATOM     10  O   UNL     1       3.529   2.031   0.355  0.00  0.00    -0.169 OA
BRANCH   8  17
ATOM     11  C   UNL     1       1.802   3.544   1.925  0.00  0.00    +0.046 C 
ATOM     12  C   UNL     1       0.782   3.115   0.901  0.00  0.00    -0.023 A 
ATOM     13  C   UNL     1      -0.382   3.842   0.739  0.00  0.00    +0.043 A 
ATOM     14  C   UNL     1      -1.316   3.451  -0.205  0.00  0.00    +0.124 A 
ATOM     15  C   UNL     1      -1.087   2.325  -0.978  0.00  0.00    +0.040 A 
ATOM     16  C   UNL     1       0.075   1.597  -0.811  0.00  0.00    +0.030 A 
ATOM     17  C   UNL     1       1.009   1.991   0.129  0.00  0.00    +0.092 A 
ATOM     18  F   UNL     1      -2.452   4.164  -0.368  0.00  0.00    -0.205 F 
ENDBRANCH   8  17
ENDBRANCH   1   8
BRANCH   7  19
ATOM     19  N   UNL     1       4.577   0.360   2.914  0.00  0.00    -0.310 NA
ATOM     20  H   UNL     1       4.500   1.369   2.483  0.00  0.00    +0.122 HD
BRANCH  19  21
ATOM     21  C   UNL     1       5.941  -0.142   2.698  0.00  0.00    +0.086 C 
BRANCH  21  22
ATOM     22  C   UNL     1       6.943   0.799   3.370  0.00  0.00    +0.050 C 
BRANCH  22  23
ATOM     23  C   UNL     1       8.341   0.284   3.149  0.00  0.00    -0.046 A 
ATOM     24  C   UNL     1       8.909  -0.588   4.059  0.00  0.00    +0.005 A 
ATOM     25  C   UNL     1      10.191  -1.064   3.853  0.00  0.00    +0.029 A 
ATOM     26  C   UNL     1      10.908  -0.660   2.742  0.00  0.00    +0.105 A 
ATOM     27  C   UNL     1      10.342   0.216   1.835  0.00  0.00    +0.029 A 
ATOM     28  C   UNL     1       9.059   0.688   2.038  0.00  0.00    +0.005 A 
BRANCH  26  29
ATOM     29  S   UNL     1      12.543  -1.263   2.483  0.00  0.00    +0.056 S 
ATOM     30  O   UNL     1      12.639  -2.493   3.187  0.00  0.00    -0.153 OA
ATOM     31  O   UNL     1      12.797  -1.161   1.088  0.00  0.00    -0.153 OA
BRANCH  29  32
ATOM     32  N   UNL     1      13.578  -0.207   3.230  0.00  0.00    -0.204 NA
ATOM     33  H   UNL     1      14.614  -0.550   3.090  0.00  0.00    +0.144 HD
ATOM     34  H   UNL     1      13.347  -0.166   4.304  0.00  0.00    +0.144 HD
ENDBRANCH  29  32
ENDBRANCH  26  29
ENDBRANCH  22  23
ENDBRANCH  21  22
ENDBRANCH  19  21
ENDBRANCH   7  19
TORSDOF 8
