REMARK  Name = ZINC39893793
REMARK  13 active torsions:
REMARK  status: ('A' for Active; 'I' for Inactive)
REMARK    1  A    between atoms: C_1  and  C_2
REMARK    2  A    between atoms: C_3  and  C_38
REMARK    3  A    between atoms: N_6  and  C_26
REMARK    4  A    between atoms: C_10  and  N_11
REMARK    5  A    between atoms: N_11  and  C_12
REMARK    6  A    between atoms: C_15  and  N_18
REMARK    7  A    between atoms: N_19  and  C_20
REMARK    8  A    between atoms: C_26  and  C_27
REMARK    9  A    between atoms: C_27  and  C_28
REMARK   10  A    between atoms: C_31  and  O_36
REMARK   11  A    between atoms: C_32  and  O_34
REMARK   12  A    between atoms: O_34  and  C_35
REMARK   13  A    between atoms: O_36  and  C_37
REMARK                            x       y       z     vdW  Elec       q    Type
REMARK                         _______ _______ _______ _____ _____    ______ ____
ROOT
ATOM      1  C   UNL     1      -0.016   1.506   0.016  0.00  0.00    +0.046 C 
ATOM      2  C   UNL     1       0.020  -0.000   0.005  0.00  0.00    -0.015 C 
ATOM      3  C   UNL     1       0.027  -0.699  -1.194  0.00  0.00    +0.118 C 
ATOM      4  C   UNL     1       0.063  -2.162  -1.178  0.00  0.00    +0.264 C 
ATOM      5  O   UNL     1       0.070  -2.775  -2.230  0.00  0.00    -0.269 OA
ATOM      6  N   UNL     1       0.090  -2.837  -0.016  0.00  0.00    -0.233 N 
ATOM      7  C   UNL     1       0.084  -2.196   1.167  0.00  0.00    +0.255 C 
ATOM      8  O   UNL     1       0.109  -2.835   2.202  0.00  0.00    -0.269 OA
ATOM      9  C   UNL     1       0.054  -0.728   1.215  0.00  0.00    +0.055 C 
ATOM     10  C   UNL     1       0.054  -0.063   2.437  0.00  0.00    +0.085 C 
ENDROOT
BRANCH  10  11
ATOM     11  N   UNL     1      -0.056  -0.761   3.583  0.00  0.00    -0.320 N 
ATOM     12  H   UNL     1      -0.063  -1.731   3.562  0.00  0.00    +0.152 HD
BRANCH  11  13
ATOM     13  C   UNL     1      -0.159  -0.091   4.801  0.00  0.00    +0.031 A 
ATOM     14  C   UNL     1      -0.288   1.295   4.821  0.00  0.00    +0.025 A 
ATOM     15  C   UNL     1      -0.390   1.961   6.021  0.00  0.00    +0.031 A 
ATOM     16  C   UNL     1      -0.364   1.243   7.222  0.00  0.00    +0.086 A 
ATOM     17  C   UNL     1      -0.234  -0.150   7.197  0.00  0.00    +0.031 A 
ATOM     18  C   UNL     1      -0.138  -0.809   5.993  0.00  0.00    +0.025 A 
BRANCH  16  19
ATOM     19  N   UNL     1      -0.464   1.900   8.414  0.00  0.00    -0.149 NA
ATOM     20  N   UNL     1      -0.439   1.237   9.520  0.00  0.00    -0.149 NA
BRANCH  20  21
ATOM     21  C   UNL     1      -0.539   1.895  10.714  0.00  0.00    +0.086 A 
ATOM     22  C   UNL     1      -0.674   3.285  10.740  0.00  0.00    +0.029 A 
ATOM     23  C   UNL     1      -0.775   3.942  11.949  0.00  0.00    +0.002 A 
ATOM     24  C   UNL     1      -0.742   3.228  13.133  0.00  0.00    +0.000 A 
ATOM     25  C   UNL     1      -0.608   1.850  13.115  0.00  0.00    +0.002 A 
ATOM     26  C   UNL     1      -0.513   1.179  11.914  0.00  0.00    +0.029 A 
ENDBRANCH  20  21
ENDBRANCH  16  19
ENDBRANCH  11  13
ENDBRANCH  10  11
BRANCH   3  27
ATOM     27  C   UNL     1      -0.002   0.008  -2.440  0.00  0.00    +0.105 C 
ATOM     28  N   UNL     1      -0.024   0.568  -3.428  0.00  0.00    -0.191 NA
ENDBRANCH   3  27
BRANCH   6  29
ATOM     29  C   UNL     1       0.125  -4.302  -0.038  0.00  0.00    +0.121 C 
BRANCH  29  30
ATOM     30  C   UNL     1       1.579  -4.777  -0.058  0.00  0.00    +0.054 C 
BRANCH  30  31
ATOM     31  C   UNL     1       1.616  -6.283  -0.081  0.00  0.00    -0.042 A 
ATOM     32  C   UNL     1       1.638  -6.990   1.107  0.00  0.00    +0.007 A 
ATOM     33  C   UNL     1       1.671  -8.372   1.092  0.00  0.00    +0.049 A 
ATOM     34  C   UNL     1       1.682  -9.052  -0.116  0.00  0.00    +0.161 A 
ATOM     35  C   UNL     1       1.660  -8.340  -1.312  0.00  0.00    +0.162 A 
ATOM     36  C   UNL     1       1.621  -6.955  -1.289  0.00  0.00    +0.053 A 
BRANCH  35  37
ATOM     37  O   UNL     1       1.670  -9.002  -2.499  0.00  0.00    -0.491 OA
ATOM     38  C   UNL     1       1.646  -8.206  -3.686  0.00  0.00    +0.277 C 
ENDBRANCH  35  37
BRANCH  34  39
ATOM     39  O   UNL     1       1.715 -10.411  -0.133  0.00  0.00    -0.491 OA
ATOM     40  C   UNL     1       1.738 -11.075   1.132  0.00  0.00    +0.277 C 
ENDBRANCH  34  39
ENDBRANCH  30  31
ENDBRANCH  29  30
ENDBRANCH   6  29
TORSDOF 10
