REMARK  Name = ZINC20647150
REMARK  10 active torsions:
REMARK  status: ('A' for Active; 'I' for Inactive)
REMARK    1  A    between atoms: C_1  and  N_2
REMARK    2  A    between atoms: N_2  and  C_3
REMARK    3  A    between atoms: N_2  and  C_4
REMARK    4  A    between atoms: C_4  and  C_6
REMARK    5  A    between atoms: C_4  and  C_30
REMARK    6  A    between atoms: C_6  and  N_7
REMARK    7  A    between atoms: N_7  and  C_8
REMARK    8  A    between atoms: N_18  and  C_21
REMARK    9  A    between atoms: C_26  and  O_27
REMARK   10  A    between atoms: O_27  and  C_28
REMARK                            x       y       z     vdW  Elec       q    Type
REMARK                         _______ _______ _______ _____ _____    ______ ____
ROOT
ATOM      1  C   UNL     1      -3.525   5.961   2.373  0.00  0.00    +0.081 C 
ATOM      2  C   UNL     1      -4.392   7.031   2.347  0.00  0.00    +0.059 C 
ATOM      3  C   UNL     1      -4.926   7.607   3.599  0.00  0.00    +0.000 A 
ATOM      4  C   UNL     1      -4.580   7.099   4.845  0.00  0.00    +0.009 A 
ATOM      5  C   UNL     1      -5.106   7.672   5.985  0.00  0.00    +0.001 A 
ATOM      6  C   UNL     1      -5.975   8.750   5.895  0.00  0.00    +0.001 A 
ATOM      7  C   UNL     1      -6.330   9.268   4.668  0.00  0.00    +0.014 A 
ATOM      8  C   UNL     1      -5.810   8.703   3.504  0.00  0.00    +0.046 A 
ATOM      9  C   UNL     1      -6.162   9.224   2.177  0.00  0.00    +0.258 C 
ATOM     10  O   UNL     1      -6.923  10.169   2.089  0.00  0.00    -0.269 OA
ATOM     11  N   UNL     1      -5.657   8.677   1.060  0.00  0.00    -0.199 N 
ATOM     12  C   UNL     1      -4.807   7.637   1.077  0.00  0.00    +0.259 C 
ATOM     13  O   UNL     1      -4.381   7.189   0.028  0.00  0.00    -0.269 OA
ENDROOT
BRANCH  11  14
ATOM     14  C   UNL     1      -6.029   9.217  -0.180  0.00  0.00    +0.087 A 
ATOM     15  C   UNL     1      -5.282  10.241  -0.744  0.00  0.00    +0.047 A 
ATOM     16  C   UNL     1      -5.651  10.773  -1.966  0.00  0.00    +0.043 A 
ATOM     17  C   UNL     1      -6.764  10.285  -2.629  0.00  0.00    +0.024 A 
ATOM     18  C   UNL     1      -7.512   9.265  -2.072  0.00  0.00    +0.049 A 
ATOM     19  C   UNL     1      -7.146   8.724  -0.850  0.00  0.00    +0.142 A 
ATOM     20 CL   UNL     1      -4.715  12.054  -2.671  0.00  0.00    -0.083 Cl
BRANCH  19  21
ATOM     21  O   UNL     1      -7.878   7.717  -0.304  0.00  0.00    -0.493 OA
ATOM     22  C   UNL     1      -9.011   7.261  -1.047  0.00  0.00    +0.277 C 
ENDBRANCH  19  21
ENDBRANCH  11  14
BRANCH   1  23
ATOM     23  N   UNL     1      -2.933   5.539   1.225  0.00  0.00    -0.350 N 
ATOM     24  H   UNL     1      -3.209   5.996   0.264  0.00  0.00    +0.145 HD
BRANCH  23  25
ATOM     25  C   UNL     1      -1.927   4.475   1.268  0.00  0.00    +0.093 C 
BRANCH  25  26
ATOM     26  C   UNL     1      -1.335   4.276  -0.128  0.00  0.00    +0.016 C 
BRANCH  26  27
ATOM     27  C   UNL     1      -2.406   3.771  -1.061  0.00  0.00    +0.093 A 
ATOM     28  C   UNL     1      -2.583   2.492  -1.437  0.00  0.00    +0.043 A 
ATOM     29  C   UNL     1      -3.693   2.472  -2.312  0.00  0.00    +0.041 A 
ATOM     30  C   UNL     1      -4.128   3.740  -2.418  0.00  0.00    +0.195 A 
ATOM     31  O   UNL     1      -3.341   4.524  -1.663  0.00  0.00    -0.469 OA
ENDBRANCH  26  27
BRANCH  26  33
ATOM     32  C   UNL     1       0.295   6.035   0.209  0.00  0.00    -0.096 C 
ATOM     33  N   UNL     1      -0.815   5.556  -0.626  0.00  0.00    +0.384 N 
ATOM     34  C   UNL     1      -0.406   5.447  -2.033  0.00  0.00    -0.096 C 
ATOM     35  H   UNL     1      -1.626   6.296  -0.567  0.00  0.00    -0.082 HD
ENDBRANCH  26  33
ENDBRANCH  25  26
ENDBRANCH  23  25
ENDBRANCH   1  23
TORSDOF 7
