REMARK  Name = ZINC14011420
REMARK  5 active torsions:
REMARK  status: ('A' for Active; 'I' for Inactive)
REMARK    1  A    between atoms: C_1  and  C_2
REMARK    2  A    between atoms: C_5  and  C_7
REMARK    3  A    between atoms: N_13  and  C_14
REMARK    4  A    between atoms: C_17  and  O_20
REMARK    5  A    between atoms: O_20  and  C_21
REMARK                            x       y       z     vdW  Elec       q    Type
REMARK                         _______ _______ _______ _____ _____    ______ ____
ROOT
ATOM      1  C   UNL     1       1.060  -3.894  -0.025  0.00  0.00    +0.035 C 
ATOM      2  C   UNL     1       2.408  -4.062  -0.136  0.00  0.00    +0.078 C 
ATOM      3  C   UNL     1       3.476  -3.051  -0.151  0.00  0.00    +0.256 C 
ATOM      4  O   UNL     1       3.226  -1.862  -0.057  0.00  0.00    -0.269 OA
ATOM      5  N   UNL     1       4.718  -3.488  -0.271  0.00  0.00    -0.260 N 
ATOM      6  C   UNL     1       4.979  -4.837  -0.376  0.00  0.00    +0.166 C 
ATOM      7  N   UNL     1       6.142  -5.437  -0.500  0.00  0.00    -0.226 NA
ATOM      8  S   UNL     1       3.353  -5.570  -0.294  0.00  0.00    -0.049 S 
ATOM      9  H   UNL     1       5.451  -2.853  -0.285  0.00  0.00    +0.157 HD
ENDROOT
BRANCH   1  14
ATOM     10  C   UNL     1      -0.070   1.211   1.692  0.00  0.00    +0.051 C 
ATOM     11  C   UNL     1      -0.004  -0.170   1.093  0.00  0.00    -0.013 A 
ATOM     12  C   UNL     1      -0.920  -0.776   0.298  0.00  0.00    +0.011 A 
ATOM     13  C   UNL     1      -0.674  -2.052  -0.152  0.00  0.00    +0.016 A 
ATOM     14  C   UNL     1       0.527  -2.616   0.264  0.00  0.00    +0.014 A 
ATOM     15  S   UNL     1       1.223  -1.306   1.252  0.00  0.00    -0.094 S 
ENDBRANCH   1  14
BRANCH   7  16
ATOM     16  C   UNL     1       7.294  -4.697  -0.539  0.00  0.00    +0.067 A 
ATOM     17  C   UNL     1       7.360  -3.545  -1.325  0.00  0.00    +0.031 A 
ATOM     18  C   UNL     1       8.523  -2.803  -1.360  0.00  0.00    +0.048 A 
ATOM     19  C   UNL     1       9.625  -3.201  -0.617  0.00  0.00    +0.120 A 
ATOM     20  C   UNL     1       9.564  -4.346   0.165  0.00  0.00    +0.048 A 
ATOM     21  C   UNL     1       8.404  -5.090   0.212  0.00  0.00    +0.031 A 
BRANCH  19  22
ATOM     22  O   UNL     1      10.769  -2.467  -0.656  0.00  0.00    -0.495 OA
ATOM     23  C   UNL     1      11.866  -2.933   0.133  0.00  0.00    +0.277 C 
ENDBRANCH  19  22
ENDBRANCH   7  16
TORSDOF 3
