REMARK  Name = ZINC22923482
REMARK  9 active torsions:
REMARK  status: ('A' for Active; 'I' for Inactive)
REMARK    1  A    between atoms: C_1  and  N_2
REMARK    2  A    between atoms: C_8  and  C_10
REMARK    3  A    between atoms: C_10  and  C_11
REMARK    4  A    between atoms: C_11  and  C_12
REMARK    5  A    between atoms: N_22  and  C_23
REMARK    6  A    between atoms: N_26  and  C_27
REMARK    7  A    between atoms: C_27  and  C_28
REMARK    8  A    between atoms: C_32  and  O_34
REMARK    9  A    between atoms: O_34  and  C_35
REMARK                            x       y       z     vdW  Elec       q    Type
REMARK                         _______ _______ _______ _____ _____    ______ ____
ROOT
ATOM      1  C   UNL     1       3.964  -5.829   2.139  0.00  0.00    -0.051 C 
ATOM      2  C   UNL     1       4.901  -6.994   1.925  0.00  0.00    +0.089 C 
ATOM      3  N   UNL     1       5.092  -7.750   3.147  0.00  0.00    -0.316 N 
ATOM      4  C   UNL     1       5.152  -7.291   4.371  0.00  0.00    +0.229 C 
ATOM      5  O   UNL     1       5.128  -8.171   5.205  0.00  0.00    -0.274 OA
ATOM      6  C   UNL     1       5.243  -5.957   4.956  0.00  0.00    +0.130 C 
ATOM      7  C   UNL     1       4.371  -4.859   4.337  0.00  0.00    -0.041 C 
ATOM      8  N   UNL     1       4.535  -4.766   2.914  0.00  0.00    +0.384 N 
ATOM      9  C   UNL     1       3.939  -3.501   2.465  0.00  0.00    -0.095 C 
ATOM     10  C   UNL     1       4.971  -3.575   4.978  0.00  0.00    +0.002 C 
ATOM     11  C   UNL     1       6.409  -3.963   5.372  0.00  0.00    +0.084 C 
ATOM     12  N   UNL     1       6.597  -5.374   4.965  0.00  0.00    -0.289 NA
ATOM     13  H   UNL     1       5.186  -8.710   3.045  0.00  0.00    +0.149 HD
ATOM     14  H   UNL     1       5.524  -4.730   2.718  0.00  0.00    -0.081 HD
ENDROOT
BRANCH   1  15
ATOM     15  C   UNL     1       3.556  -5.273   0.773  0.00  0.00    -0.005 C 
BRANCH  15  16
ATOM     16  C   UNL     1       2.922  -6.387  -0.063  0.00  0.00    +0.094 C 
BRANCH  16  24
ATOM     17  C   UNL     1      -1.591  -8.478  -3.885  0.00  0.00    +0.105 C 
ATOM     18  N   UNL     1      -0.244  -7.987  -3.562  0.00  0.00    -0.302 NA
ATOM     19  C   UNL     1      -0.173  -6.525  -3.687  0.00  0.00    +0.103 C 
ATOM     20  C   UNL     1       1.281  -6.072  -3.521  0.00  0.00    +0.123 C 
ATOM     21  N   UNL     1       1.797  -6.613  -2.254  0.00  0.00    -0.299 N 
ATOM     22  C   UNL     1       1.638  -8.052  -1.996  0.00  0.00    +0.123 C 
ATOM     23  C   UNL     1       0.169  -8.427  -2.223  0.00  0.00    +0.103 C 
ATOM     24  C   UNL     1       2.401  -5.811  -1.354  0.00  0.00    +0.216 C 
ATOM     25  O   UNL     1       2.524  -4.627  -1.584  0.00  0.00    -0.276 OA
ENDBRANCH  16  24
ENDBRANCH  15  16
ENDBRANCH   1  15
BRANCH  12  26
ATOM     26  C   UNL     1       7.465  -6.073   5.922  0.00  0.00    +0.120 C 
BRANCH  26  27
ATOM     27  C   UNL     1       8.890  -5.620   5.731  0.00  0.00    -0.030 A 
ATOM     28  C   UNL     1       9.714  -6.286   4.842  0.00  0.00    +0.005 A 
ATOM     29  C   UNL     1      11.021  -5.874   4.665  0.00  0.00    +0.004 A 
ATOM     30  C   UNL     1      11.508  -4.794   5.376  0.00  0.00    +0.046 A 
ATOM     31  C   UNL     1      10.684  -4.124   6.268  0.00  0.00    +0.130 A 
ATOM     32  C   UNL     1       9.370  -4.536   6.440  0.00  0.00    +0.051 A 
BRANCH  31  33
ATOM     33  O   UNL     1      11.161  -3.061   6.968  0.00  0.00    -0.406 OA
BRANCH  33  34
ATOM     34  C   UNL     1      12.521  -2.689   6.737  0.00  0.00    +0.575 C 
ATOM     35  F   UNL     1      12.690  -2.356   5.388  0.00  0.00    -0.133 F 
ATOM     36  F   UNL     1      12.845  -1.585   7.533  0.00  0.00    -0.133 F 
ATOM     37  F   UNL     1      13.360  -3.760   7.062  0.00  0.00    -0.133 F 
ENDBRANCH  33  34
ENDBRANCH  31  33
ENDBRANCH  26  27
ENDBRANCH  12  26
TORSDOF 7
