REMARK  Name = ZINC13315691
REMARK  5 active torsions:
REMARK  status: ('A' for Active; 'I' for Inactive)
REMARK    1  A    between atoms: C_1  and  C_2
REMARK    2  A    between atoms: N_11  and  S_12
REMARK    3  A    between atoms: S_12  and  C_15
REMARK    4  A    between atoms: C_18  and  O_23
REMARK    5  A    between atoms: C_19  and  C_21
REMARK                            x       y       z     vdW  Elec       q    Type
REMARK                         _______ _______ _______ _____ _____    ______ ____
ROOT
ATOM      1  S   UNL     1       3.534  -0.133  -1.480  0.00  0.00    +0.061 S 
ATOM      2  O   UNL     1       2.859  -0.978  -2.402  0.00  0.00    -0.153 OA
ATOM      3  O   UNL     1       4.135   1.094  -1.871  0.00  0.00    -0.153 OA
ENDROOT
BRANCH   1  13
ATOM      4  C   UNL     1       1.360  -1.881  -0.905  0.00  0.00    +0.031 C 
ATOM      5  C   UNL     1       1.431  -0.748   0.121  0.00  0.00    +0.107 C 
ATOM      6  C   UNL     1       0.085  -0.028   0.189  0.00  0.00    -0.019 A 
ATOM      7  C   UNL     1      -1.134  -0.695   0.289  0.00  0.00    +0.013 A 
ATOM      8  C   UNL     1      -2.288   0.009   0.350  0.00  0.00    +0.046 A 
ATOM      9  S   UNL     1      -1.696   1.692   0.260  0.00  0.00    -0.101 S 
ATOM     10  C   UNL     1       0.037   1.332   0.154  0.00  0.00    -0.004 A 
ATOM     11  C   UNL     1       1.179   2.289   0.045  0.00  0.00    +0.060 C 
ATOM     12  C   UNL     1       2.480   1.543   0.378  0.00  0.00    +0.115 C 
ATOM     13  N   UNL     1       2.445   0.233  -0.288  0.00  0.00    -0.169 NA
ENDBRANCH   1  13
BRANCH   1  14
ATOM     14  C   UNL     1       4.806  -1.105  -0.745  0.00  0.00    +0.107 A 
ATOM     15  C   UNL     1       4.756  -2.487  -0.833  0.00  0.00    +0.032 A 
ATOM     16  C   UNL     1       5.747  -3.259  -0.260  0.00  0.00    +0.048 A 
ATOM     17  C   UNL     1       6.801  -2.655   0.409  0.00  0.00    +0.131 A 
ATOM     18  C   UNL     1       6.855  -1.257   0.500  0.00  0.00    +0.106 A 
ATOM     19  C   UNL     1       5.849  -0.487  -0.089  0.00  0.00    +0.047 A 
BRANCH  18  20
ATOM     20  C   UNL     1       7.971  -0.603   1.208  0.00  0.00    +0.390 C 
ATOM     21  O   UNL     1       8.846  -1.276   1.715  0.00  0.00    -0.240 OA
ATOM     22  O   UNL     1       8.019   0.741   1.293  0.00  0.00    -0.240 OA
ENDBRANCH  18  20
BRANCH  17  23
ATOM     23  O   UNL     1       7.775  -3.413   0.972  0.00  0.00    -0.506 OA
ATOM     24  H   UNL     1       8.517  -3.601   0.382  0.00  0.00    +0.292 HD
ENDBRANCH  17  23
ENDBRANCH   1  14
TORSDOF 4
