REMARK  Name = ZINC06920309
REMARK  4 active torsions:
REMARK  status: ('A' for Active; 'I' for Inactive)
REMARK    1  A    between atoms: C_4  and  C_7
REMARK    2  A    between atoms: N_11  and  S_13
REMARK    3  A    between atoms: S_13  and  C_16
REMARK    4  A    between atoms: C_19  and  C_21
REMARK                            x       y       z     vdW  Elec       q    Type
REMARK                         _______ _______ _______ _____ _____    ______ ____
ROOT
ATOM      1  S   UNL     1      -0.320   1.323  -2.747  0.00  0.00    +0.067 S 
ATOM      2  O   UNL     1      -0.902   2.377  -3.502  0.00  0.00    -0.152 OA
ATOM      3  O   UNL     1       1.077   1.062  -2.756  0.00  0.00    -0.152 OA
ENDROOT
BRANCH   1   7
ATOM      4  C   UNL     1      -0.756   1.594   1.262  0.00  0.00    +0.036 C 
ATOM      5  C   UNL     1      -1.545   2.819   0.722  0.00  0.00    +0.026 C 
ATOM      6  C   UNL     1      -1.915   2.349  -0.707  0.00  0.00    +0.110 C 
ATOM      7  N   UNL     1      -0.743   1.582  -1.167  0.00  0.00    -0.176 NA
ATOM      8  C   UNL     1      -0.013   1.086   0.008  0.00  0.00    +0.117 C 
BRANCH   4  12
ATOM      9  C   UNL     1       2.019   2.783   4.284  0.00  0.00    +0.000 A 
ATOM     10  C   UNL     1       1.107   1.776   4.540  0.00  0.00    +0.000 A 
ATOM     11  C   UNL     1       0.209   1.391   3.562  0.00  0.00    +0.004 A 
ATOM     12  C   UNL     1       0.223   2.013   2.328  0.00  0.00    -0.043 A 
ATOM     13  C   UNL     1       1.138   3.017   2.070  0.00  0.00    +0.004 A 
ATOM     14  C   UNL     1       2.034   3.404   3.050  0.00  0.00    +0.000 A 
ENDBRANCH   4  12
ENDBRANCH   1   7
BRANCH   1  15
ATOM     15  C   UNL     1      -1.113  -0.163  -3.262  0.00  0.00    +0.143 A 
ATOM     16  C   UNL     1      -2.339  -0.327  -3.823  0.00  0.00    +0.037 A 
ATOM     17  C   UNL     1      -2.762  -1.595  -4.153  0.00  0.00    +0.020 A 
ATOM     18  C   UNL     1      -1.933  -2.654  -3.895  0.00  0.00    +0.041 A 
ATOM     19  S   UNL     1      -0.515  -1.843  -3.174  0.00  0.00    -0.067 S 
BRANCH  18  20
ATOM     20  C   UNL     1      -2.155  -4.093  -4.147  0.00  0.00    +0.098 A 
ATOM     21  C   UNL     1      -1.153  -5.033  -3.799  0.00  0.00    +0.036 A 
ATOM     22  C   UNL     1      -1.393  -6.351  -4.047  0.00  0.00    +0.073 A 
ATOM     23  C   UNL     1      -2.629  -6.700  -4.637  0.00  0.00    +0.265 A 
ATOM     24  O   UNL     1      -2.887  -7.869  -4.876  0.00  0.00    -0.266 OA
ATOM     25  N   UNL     1      -3.519  -5.735  -4.933  0.00  0.00    -0.243 N 
ATOM     26  H   UNL     1      -4.390  -5.989  -5.354  0.00  0.00    +0.192 HD
ATOM     27  N   UNL     1      -3.282  -4.497  -4.689  0.00  0.00    -0.170 NA
ENDBRANCH  18  20
ENDBRANCH   1  15
TORSDOF 4
