REMARK  Name = ZINC59515960
REMARK  3 active torsions:
REMARK  status: ('A' for Active; 'I' for Inactive)
REMARK    1  A    between atoms: C_1  and  C_2
REMARK    2  A    between atoms: C_3  and  C_12
REMARK    3  A    between atoms: N_14  and  N_15
REMARK                            x       y       z     vdW  Elec       q    Type
REMARK                         _______ _______ _______ _____ _____    ______ ____
ROOT
ATOM      1  C   UNL     1      -2.529  -0.779  -0.682  0.00  0.00    +0.068 C 
ATOM      2  C   UNL     1      -1.088  -0.998  -0.299  0.00  0.00    +0.069 A 
ATOM      3  C   UNL     1       0.009  -0.810  -1.125  0.00  0.00    +0.133 A 
ATOM      4  N   UNL     1       1.125  -1.124  -0.370  0.00  0.00    -0.294 N 
ATOM      5  C   UNL     1       2.455  -1.123  -0.655  0.00  0.00    +0.108 A 
ATOM      6  C   UNL     1       3.361  -1.481   0.284  0.00  0.00    +0.035 A 
ATOM      7  C   UNL     1       2.935  -1.859   1.565  0.00  0.00    +0.020 A 
ATOM      8  C   UNL     1       1.604  -1.863   1.858  0.00  0.00    +0.048 A 
ATOM      9  C   UNL     1       0.678  -1.487   0.869  0.00  0.00    +0.138 A 
ATOM     10  N   UNL     1      -0.651  -1.397   0.884  0.00  0.00    -0.232 NA
ATOM     11 BR   UNL     1       5.206  -1.473  -0.133  0.00  0.00    -0.049 Br
ENDROOT
BRANCH   3  12
ATOM     12  C   UNL     1      -0.008  -0.382  -2.476  0.00  0.00    +0.282 C 
ATOM     13  O   UNL     1      -0.128   0.802  -2.738  0.00  0.00    -0.267 OA
ATOM     14  N   UNL     1       0.108  -1.284  -3.471  0.00  0.00    -0.202 N 
ATOM     15  H   UNL     1       0.130  -2.232  -3.266  0.00  0.00    +0.178 HD
BRANCH  14  16
ATOM     16  N   UNL     1       0.197  -0.853  -4.801  0.00  0.00    -0.189 NA
ATOM     17  C   UNL     1       0.204  -1.709  -5.752  0.00  0.00    +0.037 C 
ATOM     18  C   UNL     1       0.220  -3.193  -5.460  0.00  0.00    +0.052 C 
ATOM     19  C   UNL     1      -0.909  -3.858  -6.253  0.00  0.00    +0.006 C 
ATOM     20  C   UNL     1      -0.765  -3.506  -7.735  0.00  0.00    +0.001 C 
ATOM     21  C   UNL     1      -0.933  -1.998  -7.928  0.00  0.00    +0.006 C 
ATOM     22  C   UNL     1       0.190  -1.263  -7.197  0.00  0.00    +0.052 C 
ENDBRANCH  14  16
ENDBRANCH   3  12
TORSDOF 2
