REMARK  Name = ZINC40062365
REMARK  6 active torsions:
REMARK  status: ('A' for Active; 'I' for Inactive)
REMARK    1  A    between atoms: C_1  and  C_2
REMARK    2  A    between atoms: C_4  and  C_20
REMARK    3  A    between atoms: C_5  and  C_19
REMARK    4  A    between atoms: N_6  and  C_7
REMARK    5  A    between atoms: C_7  and  C_8
REMARK    6  A    between atoms: C_23  and  N_25
REMARK                            x       y       z     vdW  Elec       q    Type
REMARK                         _______ _______ _______ _____ _____    ______ ____
ROOT
ATOM      1  C   UNL     1      -0.009   1.492   0.091  0.00  0.00    +0.063 C 
ATOM      2  C   UNL     1       0.010  -0.015   0.069  0.00  0.00    +0.017 A 
ATOM      3  C   UNL     1       0.014  -0.786  -1.035  0.00  0.00    +0.032 A 
ATOM      4  C   UNL     1       0.033  -2.137  -0.608  0.00  0.00    +0.022 A 
ATOM      5  C   UNL     1       0.040  -2.127   0.751  0.00  0.00    +0.025 A 
ATOM      6  N   UNL     1       0.032  -0.828   1.164  0.00  0.00    -0.344 N 
ATOM      7  C   UNL     1       0.060  -3.340   1.646  0.00  0.00    +0.064 C 
ENDROOT
BRANCH   4   8
ATOM      8  C   UNL     1       0.044  -3.338  -1.481  0.00  0.00    +0.082 A 
ATOM      9  C   UNL     1       0.040  -3.201  -2.840  0.00  0.00    +0.077 A 
ATOM     10  S   UNL     1       0.055  -4.915  -3.350  0.00  0.00    -0.056 S 
ATOM     11  C   UNL     1       0.065  -5.634  -1.714  0.00  0.00    +0.196 A 
ATOM     12  N   UNL     1       0.062  -4.550  -0.949  0.00  0.00    -0.221 NA
BRANCH  11  13
ATOM     13  N   UNL     1       0.079  -6.944  -1.350  0.00  0.00    -0.189 NA
ATOM     14  C   UNL     1      -1.050  -7.561  -1.070  0.00  0.00    +0.195 C 
ATOM     15  N   UNL     1      -2.246  -6.917  -1.251  0.00  0.00    -0.370 N 
ATOM     16  N   UNL     1      -1.029  -8.847  -0.598  0.00  0.00    -0.370 N 
ATOM     17  H   UNL     1      -2.266  -6.036  -1.656  0.00  0.00    +0.159 HD
ATOM     18  H   UNL     1      -3.073  -7.342  -0.974  0.00  0.00    +0.159 HD
ATOM     19  H   UNL     1      -0.182  -9.303  -0.469  0.00  0.00    +0.159 HD
ATOM     20  H   UNL     1      -1.860  -9.302  -0.391  0.00  0.00    +0.159 HD
ENDBRANCH  11  13
ENDBRANCH   4   8
BRANCH   6  21
ATOM     21  C   UNL     1       0.041  -0.377   2.558  0.00  0.00    +0.169 C 
BRANCH  21  22
ATOM     22  C   UNL     1      -1.398  -0.239   3.059  0.00  0.00    +0.230 C 
ATOM     23  C   UNL     1      -1.394   0.126   4.550  0.00  0.00    +0.275 C 
ATOM     24  O   UNL     1      -2.752   0.261   4.982  0.00  0.00    -0.485 OA
ATOM     25  C   UNL     1      -3.579   0.988   4.182  0.00  0.00    +0.162 A 
ATOM     26  C   UNL     1      -4.777   1.463   4.693  0.00  0.00    +0.049 A 
ATOM     27  C   UNL     1      -5.629   2.199   3.892  0.00  0.00    +0.004 A 
ATOM     28  C   UNL     1      -5.288   2.465   2.579  0.00  0.00    +0.004 A 
ATOM     29  C   UNL     1      -4.095   1.996   2.063  0.00  0.00    +0.049 A 
ATOM     30  C   UNL     1      -3.235   1.257   2.862  0.00  0.00    +0.163 A 
ATOM     31  O   UNL     1      -2.060   0.809   2.342  0.00  0.00    -0.480 OA
ENDBRANCH  21  22
ENDBRANCH   6  21
TORSDOF 4
