REMARK  Name = ZINC02290343
REMARK  5 active torsions:
REMARK  status: ('A' for Active; 'I' for Inactive)
REMARK    1  A    between atoms: C_4  and  C_7
REMARK    2  A    between atoms: C_7  and  N_8
REMARK    3  A    between atoms: C_9  and  C_11
REMARK    4  A    between atoms: N_22  and  C_25
REMARK    5  A    between atoms: C_23  and  N_24
REMARK                            x       y       z     vdW  Elec       q    Type
REMARK                         _______ _______ _______ _____ _____    ______ ____
ROOT
ATOM      1  C   UNL     1       5.750  -1.845   2.941  0.00  0.00    +0.104 A 
ATOM      2  C   UNL     1       5.444  -3.025   3.766  0.00  0.00    +0.123 A 
ATOM      3  C   UNL     1       6.114  -2.787   5.048  0.00  0.00    +0.166 A 
ATOM      4  N   UNL     1       6.018  -3.685   6.005  0.00  0.00    -0.225 NA
ATOM      5  C   UNL     1       5.312  -4.804   5.801  0.00  0.00    +0.092 A 
ATOM      6  C   UNL     1       5.204  -5.770   6.818  0.00  0.00    +0.030 A 
ATOM      7  C   UNL     1       4.485  -6.904   6.602  0.00  0.00    +0.002 A 
ATOM      8  C   UNL     1       3.849  -7.129   5.382  0.00  0.00    +0.002 A 
ATOM      9  C   UNL     1       3.931  -6.219   4.374  0.00  0.00    +0.030 A 
ATOM     10  C   UNL     1       4.665  -5.032   4.561  0.00  0.00    +0.090 A 
ATOM     11  N   UNL     1       4.753  -4.130   3.575  0.00  0.00    -0.241 NA
ATOM     12  N   UNL     1       6.749  -1.564   4.950  0.00  0.00    -0.280 N 
ATOM     13  C   UNL     1       6.545  -1.012   3.721  0.00  0.00    +0.117 A 
ENDROOT
BRANCH  12  14
ATOM     14  C   UNL     1       7.505  -0.973   5.974  0.00  0.00    +0.053 A 
ATOM     15  C   UNL     1       6.890  -0.590   7.158  0.00  0.00    +0.030 A 
ATOM     16  C   UNL     1       7.633  -0.009   8.167  0.00  0.00    +0.051 A 
ATOM     17  C   UNL     1       8.993   0.194   8.001  0.00  0.00    +0.166 A 
ATOM     18  C   UNL     1       9.613  -0.189   6.814  0.00  0.00    +0.168 A 
ATOM     19  C   UNL     1       8.868  -0.777   5.805  0.00  0.00    +0.075 A 
ATOM     20  O   UNL     1      10.941   0.114   6.897  0.00  0.00    -0.453 OA
ATOM     21  C   UNL     1      11.054   1.056   7.980  0.00  0.00    +0.466 C 
ATOM     22  O   UNL     1       9.934   0.737   8.828  0.00  0.00    -0.453 OA
ENDBRANCH  12  14
BRANCH   1  24
ATOM     23  N   UNL     1       4.152  -0.952   1.338  0.00  0.00    -0.307 N 
ATOM     24  C   UNL     1       5.311  -1.601   1.569  0.00  0.00    +0.250 C 
ATOM     25  O   UNL     1       5.992  -1.982   0.634  0.00  0.00    -0.270 OA
ATOM     26  H   UNL     1       3.610  -0.648   2.082  0.00  0.00    +0.149 HD
BRANCH  23  27
ATOM     27  C   UNL     1       3.711  -0.707  -0.038  0.00  0.00    +0.139 C 
BRANCH  27  31
ATOM     28  C   UNL     1      -0.017   1.378   0.010  0.00  0.00    +0.000 A 
ATOM     29  C   UNL     1       1.171   2.086   0.002  0.00  0.00    +0.000 A 
ATOM     30  C   UNL     1       2.377   1.411  -0.013  0.00  0.00    +0.005 A 
ATOM     31  C   UNL     1       2.396   0.029  -0.020  0.00  0.00    -0.030 A 
ATOM     32  C   UNL     1       1.208  -0.679  -0.012  0.00  0.00    +0.005 A 
ATOM     33  C   UNL     1       0.002  -0.004   0.002  0.00  0.00    +0.000 A 
ENDBRANCH  27  31
ENDBRANCH  23  27
ENDBRANCH   1  24
BRANCH  13  34
ATOM     34  N   UNL     1       7.049   0.195   3.312  0.00  0.00    -0.343 N 
ATOM     35  H   UNL     1       6.857   0.524   2.420  0.00  0.00    +0.144 HD
ATOM     36  H   UNL     1       7.598   0.721   3.915  0.00  0.00    +0.144 HD
ENDBRANCH  13  34
TORSDOF 5
