REMARK  Name = ZINC04854821
REMARK  7 active torsions:
REMARK  status: ('A' for Active; 'I' for Inactive)
REMARK    1  A    between atoms: C_1  and  C_2
REMARK    2  A    between atoms: C_3  and  C_4
REMARK    3  A    between atoms: C_4  and  O_5
REMARK    4  A    between atoms: O_5  and  C_6
REMARK    5  A    between atoms: C_6  and  C_8
REMARK    6  A    between atoms: C_9  and  C_24
REMARK    7  A    between atoms: C_14  and  C_16
REMARK                            x       y       z     vdW  Elec       q    Type
REMARK                         _______ _______ _______ _____ _____    ______ ____
ROOT
ATOM      1  C   UNL     1      -4.328   1.368  -2.123  0.00  0.00    +0.078 C 
ATOM      2  C   UNL     1      -5.639   1.682  -2.034  0.00  0.00    +0.021 C 
ATOM      3  N   UNL     1      -6.574   1.021  -2.778  0.00  0.00    -0.273 N 
ATOM      4  C   UNL     1      -6.282   0.026  -3.624  0.00  0.00    +0.304 C 
ATOM      5  O   UNL     1      -7.185  -0.506  -4.240  0.00  0.00    -0.252 OA
ATOM      6  N   UNL     1      -5.019  -0.404  -3.817  0.00  0.00    -0.288 N 
ATOM      7  C   UNL     1      -3.934   0.249  -3.066  0.00  0.00    +0.144 C 
ATOM      8  C   UNL     1      -6.075   2.785  -1.104  0.00  0.00    +0.061 C 
ATOM      9  H   UNL     1      -7.503   1.285  -2.684  0.00  0.00    +0.156 HD
ATOM     10  H   UNL     1      -4.830  -1.126  -4.436  0.00  0.00    +0.151 HD
ENDROOT
BRANCH   7  11
ATOM     11  C   UNL     1      -3.224  -0.808  -2.260  0.00  0.00    -0.021 A 
ATOM     12  C   UNL     1      -3.955  -1.711  -1.510  0.00  0.00    +0.007 A 
ATOM     13  C   UNL     1      -3.306  -2.685  -0.775  0.00  0.00    +0.022 A 
ATOM     14  C   UNL     1      -1.924  -2.750  -0.781  0.00  0.00    +0.059 A 
ATOM     15  C   UNL     1      -1.192  -1.842  -1.528  0.00  0.00    +0.060 A 
ATOM     16  C   UNL     1      -1.844  -0.872  -2.268  0.00  0.00    +0.027 A 
ATOM     17 CL   UNL     1       0.542  -1.922  -1.536  0.00  0.00    -0.082 Cl
ATOM     18 CL   UNL     1      -1.107  -3.968   0.148  0.00  0.00    -0.082 Cl
ENDBRANCH   7  11
BRANCH   1  19
ATOM     19  C   UNL     1      -3.358   2.056  -1.358  0.00  0.00    +0.339 C 
ATOM     20  O   UNL     1      -3.701   2.928  -0.582  0.00  0.00    -0.245 OA
BRANCH  19  21
ATOM     21  O   UNL     1      -2.051   1.746  -1.489  0.00  0.00    -0.457 OA
BRANCH  21  22
ATOM     22  C   UNL     1      -1.126   2.481  -0.686  0.00  0.00    +0.260 C 
BRANCH  22  25
ATOM     23  C   UNL     1       2.641   2.384  -1.429  0.00  0.00    +0.035 C 
ATOM     24  C   UNL     1       1.242   2.865  -1.144  0.00  0.00    -0.031 C 
ATOM     25  C   UNL     1       0.275   1.999  -0.965  0.00  0.00    +0.009 C 
ENDBRANCH  22  25
ENDBRANCH  21  22
ENDBRANCH  19  21
ENDBRANCH   1  19
TORSDOF 5
