REMARK  Name = ZINC21663909
REMARK  2 active torsions:
REMARK  status: ('A' for Active; 'I' for Inactive)
REMARK    1  A    between atoms: C_18  and  C_21
REMARK    2  A    between atoms: N_23  and  C_24
REMARK                            x       y       z     vdW  Elec       q    Type
REMARK                         _______ _______ _______ _____ _____    ______ ____
ROOT
ATOM      1  C   UNL     1      -1.746  -4.533  -0.426  0.00  0.00    +0.005 C 
ATOM      2  C   UNL     1      -0.542  -5.011   0.395  0.00  0.00    +0.006 C 
ATOM      3  C   UNL     1       0.686  -4.214  -0.043  0.00  0.00    +0.056 C 
ATOM      4  C   UNL     1       0.391  -2.739  -0.021  0.00  0.00    +0.053 A 
ATOM      5  C   UNL     1      -0.884  -2.233   0.000  0.00  0.00    +0.040 A 
ATOM      6  C   UNL     1      -1.072  -0.844   0.011  0.00  0.00    +0.279 A 
ATOM      7  O   UNL     1      -2.203  -0.384   0.030  0.00  0.00    -0.265 OA
ATOM      8  N   UNL     1       0.002  -0.004   0.002  0.00  0.00    -0.169 N 
ATOM      9  C   UNL     1       1.235  -0.594  -0.015  0.00  0.00    +0.201 A 
ATOM     10  N   UNL     1       1.420  -1.887  -0.026  0.00  0.00    -0.226 NA
ATOM     11  S   UNL     1       2.334   0.805  -0.017  0.00  0.00    -0.013 S 
ATOM     12  C   UNL     1       1.088   2.084   0.003  0.00  0.00    +0.184 A 
ATOM     13  N   UNL     1      -0.017   1.388   0.010  0.00  0.00    -0.139 NA
ATOM     14  N   UNL     1       1.251   3.458   0.009  0.00  0.00    -0.307 N 
ATOM     15  C   UNL     1       1.809   3.916   1.288  0.00  0.00    +0.107 C 
ATOM     16  C   UNL     1       1.839   5.446   1.315  0.00  0.00    +0.020 C 
ATOM     17  C   UNL     1       2.696   5.955   0.152  0.00  0.00    +0.016 C 
ATOM     18  C   UNL     1       2.122   5.424  -1.165  0.00  0.00    +0.092 C 
ATOM     19  C   UNL     1       2.083   3.895  -1.119  0.00  0.00    +0.119 C 
ATOM     20  C   UNL     1      -2.103  -3.116   0.018  0.00  0.00    +0.042 C 
ENDROOT
BRANCH  18  21
ATOM     21  C   UNL     1       2.992   5.871  -2.311  0.00  0.00    +0.218 C 
ATOM     22  O   UNL     1       3.974   6.551  -2.098  0.00  0.00    -0.275 OA
ATOM     23  N   UNL     1       2.679   5.516  -3.573  0.00  0.00    -0.312 N 
ATOM     24  H   UNL     1       1.789   4.900  -3.767  0.00  0.00    +0.149 HD
BRANCH  23  25
ATOM     25  C   UNL     1       3.526   5.951  -4.687  0.00  0.00    +0.073 C 
ATOM     26  C   UNL     1       2.826   6.469  -5.945  0.00  0.00    +0.024 C 
ATOM     27  C   UNL     1       3.511   5.101  -5.959  0.00  0.00    +0.024 C 
ENDBRANCH  23  25
ENDBRANCH  18  21
TORSDOF 2
