REMARK  Name = ZINC32655527
REMARK  4 active torsions:
REMARK  status: ('A' for Active; 'I' for Inactive)
REMARK    1  A    between atoms: C_10  and  C_12
REMARK    2  A    between atoms: N_14  and  N_15
REMARK    3  A    between atoms: C_16  and  C_17
REMARK    4  A    between atoms: C_21  and  N_23
REMARK                            x       y       z     vdW  Elec       q    Type
REMARK                         _______ _______ _______ _____ _____    ______ ____
ROOT
ATOM      1  C   UNL     1      -3.511   2.438   1.007  0.00  0.00    +0.266 C 
ATOM      2  O   UNL     1      -3.462   3.266   0.121  0.00  0.00    -0.271 OA
ATOM      3  N   UNL     1      -2.388   2.089   1.665  0.00  0.00    -0.205 N 
ATOM      4  H   UNL     1      -2.442   1.391   2.513  0.00  0.00    +0.177 HD
ENDROOT
BRANCH   1  14
ATOM      5  C   UNL     1      -5.968  -0.872  -1.765  0.00  0.00    +0.000 A 
ATOM      6  C   UNL     1      -4.662  -0.840  -1.310  0.00  0.00    +0.000 A 
ATOM      7  C   UNL     1      -4.307   0.028  -0.298  0.00  0.00    +0.007 A 
ATOM      8  C   UNL     1      -5.253   0.870   0.266  0.00  0.00    -0.007 A 
ATOM      9  C   UNL     1      -6.555   0.840  -0.190  0.00  0.00    -0.039 A 
ATOM     10  C   UNL     1      -6.911  -0.033  -1.205  0.00  0.00    +0.004 A 
ATOM     11  C   UNL     1      -7.611   1.743   0.394  0.00  0.00    +0.063 C 
ATOM     12  C   UNL     1      -7.132   2.300   1.736  0.00  0.00    +0.166 C 
ATOM     13  O   UNL     1      -5.808   2.820   1.565  0.00  0.00    -0.362 OA
ATOM     14  C   UNL     1      -4.827   1.801   1.371  0.00  0.00    +0.236 C 
ENDBRANCH   1  14
BRANCH   3  15
ATOM     15  N   UNL     1      -1.152   2.616   1.270  0.00  0.00    -0.188 NA
ATOM     16  C   UNL     1      -0.058   2.191   1.824  0.00  0.00    +0.138 C 
BRANCH  16  17
ATOM     17  C   UNL     1      -0.030   0.872   2.483  0.00  0.00    -0.003 A 
ATOM     18  C   UNL     1       1.066   0.502   3.268  0.00  0.00    +0.009 A 
ATOM     19  C   UNL     1       1.085  -0.733   3.881  0.00  0.00    +0.003 A 
ATOM     20  C   UNL     1       0.023  -1.605   3.721  0.00  0.00    +0.033 A 
ATOM     21  C   UNL     1      -1.065  -1.246   2.946  0.00  0.00    +0.127 A 
ATOM     22  C   UNL     1      -1.100  -0.012   2.330  0.00  0.00    +0.042 A 
BRANCH  21  23
ATOM     23  N   UNL     1      -2.197  -2.186   2.781  0.00  0.00    +0.056 N 
ATOM     24  O   UNL     1      -2.169  -3.274   3.327  0.00  0.00    -0.126 OA
ATOM     25  O   UNL     1      -3.155  -1.871   2.099  0.00  0.00    -0.126 OA
ENDBRANCH  21  23
ENDBRANCH  16  17
ENDBRANCH   3  15
TORSDOF 4
