REMARK  Name = ZINC20701951
REMARK  7 active torsions:
REMARK  status: ('A' for Active; 'I' for Inactive)
REMARK    1  A    between atoms: C_1  and  C_2
REMARK    2  A    between atoms: C_2  and  N_3
REMARK    3  A    between atoms: N_3  and  C_4
REMARK    4  A    between atoms: C_4  and  C_5
REMARK    5  A    between atoms: C_6  and  C_8
REMARK    6  A    between atoms: C_21  and  C_24
REMARK    7  A    between atoms: C_29  and  O_30
REMARK                            x       y       z     vdW  Elec       q    Type
REMARK                         _______ _______ _______ _____ _____    ______ ____
ROOT
ATOM      1  C   UNL     1      -0.619   3.072  -3.548  0.00  0.00    +0.037 A 
ATOM      2  C   UNL     1      -1.558   2.288  -4.225  0.00  0.00    +0.015 A 
ATOM      3  C   UNL     1      -1.835   2.535  -5.548  0.00  0.00    +0.024 A 
ATOM      4  C   UNL     1      -1.176   3.556  -6.230  0.00  0.00    +0.031 A 
ATOM      5  C   UNL     1      -0.239   4.347  -5.548  0.00  0.00    -0.019 A 
ATOM      6  C   UNL     1       0.040   4.101  -4.226  0.00  0.00    +0.019 A 
ATOM      7  C   UNL     1       0.403   5.446  -6.303  0.00  0.00    +0.049 C 
ATOM      8  C   UNL     1       1.745   6.000  -5.952  0.00  0.00    -0.023 C 
ATOM      9  C   UNL     1       2.358   6.396  -7.061  0.00  0.00    -0.030 C 
ATOM     10  C   UNL     1       1.466   6.127  -8.275  0.00  0.00    +0.033 C 
ATOM     11  C   UNL     1       0.601   4.964  -7.771  0.00  0.00    +0.029 C 
ATOM     12  C   UNL     1      -0.797   4.839  -8.348  0.00  0.00    +0.109 C 
ATOM     13  N   UNL     1      -1.450   3.755  -7.583  0.00  0.00    -0.336 N 
ATOM     14  H   UNL     1      -2.168   3.086  -8.079  0.00  0.00    +0.147 HD
ENDROOT
BRANCH  12  15
ATOM     15  C   UNL     1      -0.729   4.476  -9.809  0.00  0.00    +0.017 A 
ATOM     16  C   UNL     1      -0.839   3.154 -10.199  0.00  0.00    +0.029 A 
ATOM     17  C   UNL     1      -0.782   2.821 -11.540  0.00  0.00    +0.043 A 
ATOM     18  C   UNL     1      -0.605   3.808 -12.494  0.00  0.00    +0.043 A 
ATOM     19  C   UNL     1      -0.489   5.130 -12.108  0.00  0.00    +0.084 A 
ATOM     20  C   UNL     1      -0.551   5.467 -10.763  0.00  0.00    +0.140 A 
ATOM     21 CL   UNL     1      -0.267   6.368 -13.305  0.00  0.00    -0.080 Cl
ATOM     22 CL   UNL     1      -0.926   1.161 -12.027  0.00  0.00    -0.083 Cl
BRANCH  20  23
ATOM     23  O   UNL     1      -0.438   6.766 -10.381  0.00  0.00    -0.505 OA
ATOM     24  H   UNL     1      -0.297   7.552 -11.138  0.00  0.00    +0.292 HD
ENDBRANCH  20  23
ENDBRANCH  12  15
BRANCH   1  26
ATOM     25  N   UNL     1      -0.054   1.553  -1.716  0.00  0.00    -0.298 N 
ATOM     26  C   UNL     1      -0.318   2.809  -2.128  0.00  0.00    +0.247 C 
ATOM     27  O   UNL     1      -0.310   3.725  -1.329  0.00  0.00    -0.270 OA
BRANCH  25  29
ATOM     28  C   UNL     1      -0.865   1.062   0.538  0.00  0.00    +0.024 C 
ATOM     29  C   UNL     1       0.367   1.309  -0.335  0.00  0.00    +0.104 C 
ENDBRANCH  25  29
BRANCH  25  30
ATOM     30  C   UNL     1      -0.188   0.432  -2.650  0.00  0.00    +0.104 C 
ATOM     31  C   UNL     1      -1.550  -0.236  -2.453  0.00  0.00    +0.024 C 
ENDBRANCH  25  30
ENDBRANCH   1  26
TORSDOF 5
