REMARK  Name = ZINC38743323
REMARK  9 active torsions:
REMARK  status: ('A' for Active; 'I' for Inactive)
REMARK    1  A    between atoms: C_1  and  O_2
REMARK    2  A    between atoms: O_2  and  C_3
REMARK    3  A    between atoms: C_6  and  C_9
REMARK    4  A    between atoms: C_11  and  C_15
REMARK    5  A    between atoms: C_23  and  C_25
REMARK    6  A    between atoms: C_27  and  O_33
REMARK    7  A    between atoms: C_29  and  O_31
REMARK    8  A    between atoms: O_31  and  C_32
REMARK    9  A    between atoms: O_33  and  C_34
REMARK                            x       y       z     vdW  Elec       q    Type
REMARK                         _______ _______ _______ _____ _____    ______ ____
ROOT
ATOM      1  C   UNL     1      -7.097  -4.886  -1.204  0.00  0.00    +0.206 C 
ATOM      2  N   UNL     1      -6.512  -6.248  -1.232  0.00  0.00    -0.231 NA
ATOM      3  N   UNL     1      -7.643  -7.188  -1.324  0.00  0.00    -0.224 NA
ATOM      4  C   UNL     1      -8.708  -6.366  -1.933  0.00  0.00    +0.240 C 
ATOM      5  N   UNL     1      -8.564  -5.082  -1.172  0.00  0.00    -0.206 N 
ATOM      6  N   UNL     1      -9.753  -4.604  -0.664  0.00  0.00    -0.173 NA
ATOM      7  C   UNL     1     -10.825  -5.334  -0.566  0.00  0.00    +0.125 C 
ATOM      8  S   UNL     1     -10.369  -6.899  -1.375  0.00  0.00    -0.063 S 
ATOM      9  H   UNL     1      -5.963  -6.423  -0.404  0.00  0.00    +0.143 HD
ATOM     10  H   UNL     1      -7.917  -7.514  -0.409  0.00  0.00    +0.144 HD
ENDROOT
BRANCH   7  11
ATOM     11  C   UNL     1     -12.119  -4.974   0.052  0.00  0.00    +0.015 A 
ATOM     12  C   UNL     1     -13.166  -5.897   0.070  0.00  0.00    +0.056 A 
ATOM     13  C   UNL     1     -14.376  -5.556   0.651  0.00  0.00    +0.124 A 
ATOM     14  C   UNL     1     -14.549  -4.300   1.213  0.00  0.00    +0.091 A 
ATOM     15  C   UNL     1     -13.511  -3.379   1.197  0.00  0.00    +0.124 A 
ATOM     16  C   UNL     1     -12.295  -3.714   0.623  0.00  0.00    +0.056 A 
BRANCH  15  17
ATOM     17  O   UNL     1     -13.685  -2.150   1.749  0.00  0.00    -0.495 OA
ATOM     18  C   UNL     1     -14.963  -1.874   2.327  0.00  0.00    +0.277 C 
ENDBRANCH  15  17
BRANCH  13  19
ATOM     19  O   UNL     1     -15.396  -6.454   0.669  0.00  0.00    -0.495 OA
ATOM     20  C   UNL     1     -16.617  -6.037   1.284  0.00  0.00    +0.277 C 
ENDBRANCH  13  19
ENDBRANCH   7  11
BRANCH   1  23
ATOM     21  C   UNL     1      -4.963  -2.620   0.035  0.00  0.00    +0.091 C 
ATOM     22  C   UNL     1      -5.128  -3.957   0.039  0.00  0.00    +0.034 C 
ATOM     23  C   UNL     1      -6.635  -4.138   0.048  0.00  0.00    +0.190 C 
ATOM     24  N   UNL     1      -7.139  -2.755   0.047  0.00  0.00    -0.176 NA
ATOM     25  N   UNL     1      -6.170  -1.994   0.045  0.00  0.00    -0.154 NA
BRANCH  21  29
ATOM     26  C   UNL     1      -1.200  -0.637   0.010  0.00  0.00    +0.120 A 
ATOM     27  C   UNL     1      -2.374   0.104   0.019  0.00  0.00    +0.046 A 
ATOM     28  C   UNL     1      -3.595  -0.536   0.027  0.00  0.00    +0.013 A 
ATOM     29  C   UNL     1      -3.651  -1.928   0.026  0.00  0.00    +0.002 A 
ATOM     30  C   UNL     1      -2.471  -2.670   0.016  0.00  0.00    +0.013 A 
ATOM     31  C   UNL     1      -1.252  -2.025   0.003  0.00  0.00    +0.046 A 
BRANCH  26  33
ATOM     32  C   UNL     1      -0.017   1.425   0.010  0.00  0.00    +0.277 C 
ATOM     33  O   UNL     1       0.002  -0.004   0.002  0.00  0.00    -0.495 OA
ENDBRANCH  26  33
ENDBRANCH  21  29
ENDBRANCH   1  23
TORSDOF 6
