REMARK  Name = ZINC36227776
REMARK  9 active torsions:
REMARK  status: ('A' for Active; 'I' for Inactive)
REMARK    1  A    between atoms: C_1  and  C_2
REMARK    2  A    between atoms: C_2  and  C_3
REMARK    3  A    between atoms: C_2  and  C_4
REMARK    4  A    between atoms: C_7  and  S_10
REMARK    5  A    between atoms: S_10  and  N_13
REMARK    6  A    between atoms: N_16  and  C_19
REMARK    7  A    between atoms: C_19  and  C_20
REMARK    8  A    between atoms: N_22  and  C_23
REMARK    9  A    between atoms: C_26  and  C_29
REMARK                            x       y       z     vdW  Elec       q    Type
REMARK                         _______ _______ _______ _____ _____    ______ ____
ROOT
ATOM      1  N   UNL     1      -6.596  -0.974  -0.740  0.00  0.00    -0.174 NA
ATOM      2  C   UNL     1      -7.236   0.121   0.005  0.00  0.00    +0.125 C 
ATOM      3  C   UNL     1      -8.727   0.143  -0.348  0.00  0.00    +0.102 C 
ATOM      4  N   UNL     1      -8.880   0.212  -1.808  0.00  0.00    -0.291 NA
ATOM      5  C   UNL     1      -8.325  -0.982  -2.458  0.00  0.00    +0.102 C 
ATOM      6  C   UNL     1      -6.812  -1.047  -2.193  0.00  0.00    +0.125 C 
ENDROOT
BRANCH   1   7
ATOM      7  S   UNL     1      -5.651  -2.091   0.036  0.00  0.00    +0.061 S 
ATOM      8  O   UNL     1      -5.650  -3.257  -0.776  0.00  0.00    -0.153 OA
ATOM      9  O   UNL     1      -6.073  -2.108   1.393  0.00  0.00    -0.153 OA
BRANCH   7  13
ATOM     10  C   UNL     1      -1.412  -0.502   0.021  0.00  0.00    -0.045 A 
ATOM     11  C   UNL     1      -2.263  -0.192   1.065  0.00  0.00    +0.006 A 
ATOM     12  C   UNL     1      -3.557  -0.677   1.070  0.00  0.00    +0.029 A 
ATOM     13  C   UNL     1      -4.001  -1.472   0.030  0.00  0.00    +0.105 A 
ATOM     14  C   UNL     1      -3.151  -1.782  -1.015  0.00  0.00    +0.029 A 
ATOM     15  C   UNL     1      -1.857  -1.293  -1.022  0.00  0.00    +0.006 A 
BRANCH  10  17
ATOM     16  C   UNL     1      -0.029   1.556   0.034  0.00  0.00    +0.012 C 
ATOM     17  C   UNL     1      -0.001   0.026   0.016  0.00  0.00    +0.013 C 
ATOM     18  C   UNL     1       0.740  -0.485   1.253  0.00  0.00    +0.012 C 
ENDBRANCH  10  17
ENDBRANCH   7  13
ENDBRANCH   1   7
BRANCH   4  19
ATOM     19  C   UNL     1     -10.287   0.408  -2.181  0.00  0.00    +0.180 C 
BRANCH  19  20
ATOM     20  C   UNL     1     -10.378   0.718  -3.653  0.00  0.00    +0.231 C 
ATOM     21  O   UNL     1      -9.370   0.770  -4.325  0.00  0.00    -0.274 OA
ATOM     22  N   UNL     1     -11.580   0.937  -4.222  0.00  0.00    -0.284 N 
ATOM     23  H   UNL     1     -12.391   0.830  -3.700  0.00  0.00    +0.155 HD
BRANCH  22  24
ATOM     24  C   UNL     1     -11.658   1.318  -5.561  0.00  0.00    +0.033 A 
ATOM     25  C   UNL     1     -10.749   0.806  -6.482  0.00  0.00    +0.024 A 
ATOM     26  C   UNL     1     -10.823   1.179  -7.805  0.00  0.00    +0.015 A 
ATOM     27  C   UNL     1     -11.813   2.074  -8.223  0.00  0.00    +0.037 A 
ATOM     28  C   UNL     1     -12.725   2.585  -7.295  0.00  0.00    +0.015 A 
ATOM     29  C   UNL     1     -12.648   2.204  -5.975  0.00  0.00    +0.024 A 
BRANCH  27  30
ATOM     30  C   UNL     1     -11.895   2.477  -9.640  0.00  0.00    +0.242 C 
ATOM     31  O   UNL     1     -11.101   2.031 -10.446  0.00  0.00    -0.270 OA
ATOM     32  N   UNL     1     -12.850   3.339 -10.041  0.00  0.00    -0.325 N 
ATOM     33  H   UNL     1     -13.484   3.695  -9.398  0.00  0.00    +0.145 HD
ATOM     34  H   UNL     1     -12.904   3.604 -10.973  0.00  0.00    +0.145 HD
ENDBRANCH  27  30
ENDBRANCH  22  24
ENDBRANCH  19  20
ENDBRANCH   4  19
TORSDOF 7
