REMARK  Name = ZINC05740580
REMARK  7 active torsions:
REMARK  status: ('A' for Active; 'I' for Inactive)
REMARK    1  A    between atoms: C_1  and  C_2
REMARK    2  A    between atoms: C_6  and  N_8
REMARK    3  A    between atoms: C_9  and  C_30
REMARK    4  A    between atoms: C_11  and  C_14
REMARK    5  A    between atoms: C_12  and  C_13
REMARK    6  A    between atoms: N_15  and  N_16
REMARK    7  A    between atoms: C_17  and  C_19
REMARK                            x       y       z     vdW  Elec       q    Type
REMARK                         _______ _______ _______ _____ _____    ______ ____
ROOT
ATOM      1  C   UNL     1       1.541  -5.012   4.874  0.00  0.00    +0.140 C 
ATOM      2  N   UNL     1       2.716  -5.388   4.472  0.00  0.00    -0.188 NA
ENDROOT
BRANCH   1   6
ATOM      3  N   UNL     1       0.051  -2.798   2.395  0.00  0.00    -0.317 N 
ATOM      4  C   UNL     1      -0.961  -2.805   3.312  0.00  0.00    +0.022 A 
ATOM      5  C   UNL     1      -0.607  -3.589   4.346  0.00  0.00    +0.032 A 
ATOM      6  C   UNL     1       0.730  -4.106   4.040  0.00  0.00    +0.016 A 
ATOM      7  C   UNL     1       1.073  -3.586   2.824  0.00  0.00    +0.030 A 
ATOM      8  C   UNL     1       2.363  -3.839   2.088  0.00  0.00    +0.064 C 
ATOM      9  C   UNL     1      -2.263  -2.055   3.186  0.00  0.00    +0.064 C 
BRANCH   3  15
ATOM     10  C   UNL     1      -0.018   1.503   0.010  0.00  0.00    +0.044 C 
ATOM     11  C   UNL     1       0.002  -0.004   0.002  0.00  0.00    -0.048 A 
ATOM     12  C   UNL     1       0.006  -0.688  -1.200  0.00  0.00    +0.003 A 
ATOM     13  C   UNL     1       0.024  -2.071  -1.212  0.00  0.00    +0.002 A 
ATOM     14  C   UNL     1       0.039  -2.773  -0.022  0.00  0.00    +0.026 A 
ATOM     15  C   UNL     1       0.036  -2.089   1.186  0.00  0.00    +0.047 A 
ATOM     16  C   UNL     1       0.023  -0.700   1.194  0.00  0.00    +0.029 A 
ENDBRANCH   3  15
ENDBRANCH   1   6
BRANCH   2  17
ATOM     17  N   UNL     1       3.486  -6.249   5.265  0.00  0.00    -0.204 N 
ATOM     18  C   UNL     1       4.706  -6.639   4.847  0.00  0.00    +0.276 C 
ATOM     19  O   UNL     1       5.138  -6.246   3.784  0.00  0.00    -0.270 OA
ATOM     20  H   UNL     1       3.141  -6.563   6.115  0.00  0.00    +0.177 HD
BRANCH  18  21
ATOM     21  C   UNL     1       5.534  -7.565   5.700  0.00  0.00    +0.297 C 
ATOM     22  C   UNL     1       4.845  -8.933   5.800  0.00  0.00    +0.283 C 
ATOM     23  O   UNL     1       5.663  -9.790   6.603  0.00  0.00    -0.484 OA
ATOM     24  C   UNL     1       6.996  -9.800   6.325  0.00  0.00    +0.162 A 
ATOM     25  C   UNL     1       7.781 -10.842   6.794  0.00  0.00    +0.049 A 
ATOM     26  C   UNL     1       9.136 -10.866   6.523  0.00  0.00    +0.004 A 
ATOM     27  C   UNL     1       9.712  -9.850   5.782  0.00  0.00    +0.004 A 
ATOM     28  C   UNL     1       8.935  -8.809   5.311  0.00  0.00    +0.049 A 
ATOM     29  C   UNL     1       7.574  -8.781   5.579  0.00  0.00    +0.163 A 
ATOM     30  O   UNL     1       6.821  -7.753   5.100  0.00  0.00    -0.472 OA
ENDBRANCH  18  21
ENDBRANCH   2  17
TORSDOF 4
