REMARK  Name = ZINC12889269
REMARK  4 active torsions:
REMARK  status: ('A' for Active; 'I' for Inactive)
REMARK    1  A    between atoms: C_4  and  C_7
REMARK    2  A    between atoms: C_7  and  C_9
REMARK    3  A    between atoms: C_7  and  N_18
REMARK    4  A    between atoms: C_25  and  C_28
REMARK                            x       y       z     vdW  Elec       q    Type
REMARK                         _______ _______ _______ _____ _____    ______ ____
ROOT
ATOM      1  C   UNL     1      -0.013   1.086   0.008  0.00  0.00    +0.168 C 
ENDROOT
BRANCH   1   2
ATOM      2  N   UNL     1      -0.721   1.571  -1.179  0.00  0.00    -0.314 N 
ATOM      3  C   UNL     1      -1.807   0.861  -1.679  0.00  0.00    +0.141 A 
ATOM      4  C   UNL     1      -2.215  -0.328  -1.042  0.00  0.00    +0.049 A 
ATOM      5  C   UNL     1      -3.277  -1.028  -1.520  0.00  0.00    +0.053 A 
ATOM      6  C   UNL     1      -3.953  -0.554  -2.661  0.00  0.00    +0.178 A 
ATOM      7  N   UNL     1      -4.989  -0.991  -3.358  0.00  0.00    -0.128 NA
ATOM      8  N   UNL     1      -5.217  -0.181  -4.333  0.00  0.00    -0.123 NA
ATOM      9  C   UNL     1      -4.352   0.803  -4.313  0.00  0.00    +0.258 A 
ATOM     10  N   UNL     1      -3.528   0.604  -3.262  0.00  0.00    -0.187 N 
ATOM     11  N   UNL     1      -2.436   1.303  -2.743  0.00  0.00    -0.148 NA
ATOM     12  H   UNL     1      -0.433   2.388  -1.615  0.00  0.00    +0.149 HD
BRANCH   9  13
ATOM     13  C   UNL     1      -4.290   1.952  -5.287  0.00  0.00    +0.454 C 
ATOM     14  F   UNL     1      -5.483   2.011  -6.015  0.00  0.00    -0.163 F 
ATOM     15  F   UNL     1      -4.112   3.149  -4.585  0.00  0.00    -0.163 F 
ATOM     16  F   UNL     1      -3.217   1.761  -6.164  0.00  0.00    -0.163 F 
ENDBRANCH   9  13
ENDBRANCH   1   2
BRANCH   1  17
ATOM     17  C   UNL     1       1.401   1.607  -0.003  0.00  0.00    +0.131 A 
ATOM     18  C   UNL     1       2.482   0.902   0.359  0.00  0.00    +0.055 A 
ATOM     19  C   UNL     1       3.631   1.800   0.192  0.00  0.00    +0.020 A 
ATOM     20  C   UNL     1       5.004   1.673   0.394  0.00  0.00    +0.011 A 
ATOM     21  C   UNL     1       5.828   2.734   0.135  0.00  0.00    +0.001 A 
ATOM     22  C   UNL     1       5.306   3.933  -0.328  0.00  0.00    +0.004 A 
ATOM     23  C   UNL     1       3.950   4.077  -0.534  0.00  0.00    +0.047 A 
ATOM     24  C   UNL     1       3.095   3.012  -0.277  0.00  0.00    +0.135 A 
ATOM     25  O   UNL     1       1.762   2.846  -0.382  0.00  0.00    -0.457 OA
ENDBRANCH   1  17
BRANCH   1  29
ATOM     26  C   UNL     1      -2.012   2.463   3.523  0.00  0.00    +0.000 A 
ATOM     27  C   UNL     1      -1.502   1.179   3.476  0.00  0.00    +0.000 A 
ATOM     28  C   UNL     1      -0.855   0.734   2.339  0.00  0.00    +0.006 A 
ATOM     29  C   UNL     1      -0.718   1.572   1.248  0.00  0.00    -0.020 A 
ATOM     30  C   UNL     1      -1.223   2.858   1.297  0.00  0.00    +0.006 A 
ATOM     31  C   UNL     1      -1.874   3.302   2.432  0.00  0.00    +0.000 A 
ENDBRANCH   1  29
TORSDOF 4
