REMARK  Name = ZINC06828954
REMARK  10 active torsions:
REMARK  status: ('A' for Active; 'I' for Inactive)
REMARK    1  A    between atoms: C_1  and  C_2
REMARK    2  A    between atoms: C_2  and  C_27
REMARK    3  A    between atoms: C_4  and  N_10
REMARK    4  A    between atoms: C_6  and  C_8
REMARK    5  A    between atoms: C_6  and  C_9
REMARK    6  A    between atoms: N_10  and  C_11
REMARK    7  A    between atoms: N_10  and  C_17
REMARK    8  A    between atoms: C_11  and  C_12
REMARK    9  A    between atoms: C_17  and  N_19
REMARK   10  A    between atoms: N_19  and  C_20
REMARK                            x       y       z     vdW  Elec       q    Type
REMARK                         _______ _______ _______ _____ _____    ______ ____
ROOT
ATOM      1  N   UNL     1      -3.019  -2.103  -0.086  0.00  0.00    -0.305 N 
ENDROOT
BRANCH   1   5
ATOM      2  C   UNL     1      -1.136   2.424  -0.350  0.00  0.00    -0.010 C 
ATOM      3  C   UNL     1      -0.793   0.932  -0.571  0.00  0.00    -0.072 C 
ATOM      4  C   UNL     1      -2.077   0.135  -0.368  0.00  0.00    +0.009 C 
ATOM      5  C   UNL     1      -1.772  -1.362  -0.314  0.00  0.00    +0.073 C 
ATOM      6  C   UNL     1      -0.817  -1.612   0.854  0.00  0.00    +0.009 C 
ATOM      7  C   UNL     1       0.476  -0.828   0.659  0.00  0.00    -0.072 C 
ATOM      8  N   UNL     1       0.259   0.577   0.365  0.00  0.00    +0.386 N 
ATOM      9  C   UNL     1       1.330  -1.498  -0.422  0.00  0.00    -0.010 C 
ATOM     10  C   UNL     1       1.272  -0.914   1.983  0.00  0.00    -0.010 C 
ATOM     11  C   UNL     1      -0.319   0.790  -2.022  0.00  0.00    -0.010 C 
ATOM     12  H   UNL     1       1.140   0.974   0.024  0.00  0.00    -0.084 HD
ATOM     13  H   UNL     1       0.079   1.065   1.248  0.00  0.00    -0.084 HD
ENDBRANCH   1   5
BRANCH   1  14
ATOM     14  C   UNL     1      -3.479  -2.952  -1.026  0.00  0.00    +0.138 C 
ATOM     15  S   UNL     1      -2.547  -3.265  -2.428  0.00  0.00    -0.018 S 
BRANCH  14  16
ATOM     16  N   UNL     1      -4.674  -3.554  -0.863  0.00  0.00    -0.297 N 
ATOM     17  H   UNL     1      -5.229  -3.332  -0.100  0.00  0.00    +0.154 HD
BRANCH  16  18
ATOM     18  C   UNL     1      -5.114  -4.502  -1.796  0.00  0.00    +0.033 A 
ATOM     19  C   UNL     1      -5.673  -5.697  -1.362  0.00  0.00    +0.026 A 
ATOM     20  C   UNL     1      -6.106  -6.630  -2.284  0.00  0.00    +0.040 A 
ATOM     21  C   UNL     1      -5.982  -6.375  -3.639  0.00  0.00    +0.124 A 
ATOM     22  C   UNL     1      -5.424  -5.184  -4.073  0.00  0.00    +0.040 A 
ATOM     23  C   UNL     1      -4.996  -4.246  -3.155  0.00  0.00    +0.026 A 
ATOM     24  F   UNL     1      -6.405  -7.289  -4.539  0.00  0.00    -0.205 F 
ENDBRANCH  16  18
ENDBRANCH  14  16
ENDBRANCH   1  14
BRANCH   1  25
ATOM     25  C   UNL     1      -3.763  -1.919   1.162  0.00  0.00    +0.149 C 
BRANCH  25  26
ATOM     26  C   UNL     1      -4.755  -0.797   0.995  0.00  0.00    +0.007 A 
ATOM     27  C   UNL     1      -6.043  -0.852   0.576  0.00  0.00    +0.013 A 
ATOM     28  C   UNL     1      -6.774   0.319   0.500  0.00  0.00    +0.008 A 
ATOM     29  C   UNL     1      -6.181   1.488   0.847  0.00  0.00    +0.045 A 
ATOM     30  S   UNL     1      -4.542   0.948   1.305  0.00  0.00    -0.100 S 
ENDBRANCH  25  26
ENDBRANCH   1  25
TORSDOF 6
