REMARK  Name = ZINC63782225
REMARK  10 active torsions:
REMARK  status: ('A' for Active; 'I' for Inactive)
REMARK    1  A    between atoms: C_1  and  C_2
REMARK    2  A    between atoms: C_2  and  C_4
REMARK    3  A    between atoms: C_2  and  N_20
REMARK    4  A    between atoms: N_6  and  C_7
REMARK    5  A    between atoms: C_7  and  C_8
REMARK    6  A    between atoms: C_8  and  C_9
REMARK    7  A    between atoms: C_12  and  O_18
REMARK    8  A    between atoms: O_18  and  C_19
REMARK    9  A    between atoms: C_21  and  C_23
REMARK   10  A    between atoms: C_30  and  N_33
REMARK                            x       y       z     vdW  Elec       q    Type
REMARK                         _______ _______ _______ _____ _____    ______ ____
ROOT
ATOM      1  C   UNL     1      -0.019   1.526   0.010  0.00  0.00    +0.038 C 
ATOM      2  C   UNL     1       0.002  -0.004   0.002  0.00  0.00    +0.156 C 
ENDROOT
BRANCH   2   3
ATOM      3  C   UNL     1       0.707  -0.490  -1.238  0.00  0.00    +0.233 C 
ATOM      4  O   UNL     1       1.704  -1.174  -1.140  0.00  0.00    -0.274 OA
ATOM      5  N   UNL     1       0.231  -0.164  -2.456  0.00  0.00    -0.313 N 
ATOM      6  H   UNL     1      -0.566   0.383  -2.534  0.00  0.00    +0.149 HD
BRANCH   5   7
ATOM      7  C   UNL     1       0.917  -0.637  -3.661  0.00  0.00    +0.108 C 
BRANCH   7   8
ATOM      8  C   UNL     1       0.177  -0.130  -4.901  0.00  0.00    +0.052 C 
BRANCH   8   9
ATOM      9  C   UNL     1       0.882  -0.616  -6.141  0.00  0.00    -0.040 C 
ATOM     10  C   UNL     1       0.586  -1.718  -6.865  0.00  0.00    +0.002 A 
ATOM     11  C   UNL     1      -0.441  -2.757  -6.722  0.00  0.00    +0.055 A 
ATOM     12  C   UNL     1      -0.497  -3.768  -7.623  0.00  0.00    +0.121 A 
ATOM     13  C   UNL     1       0.400  -3.863  -8.701  0.00  0.00    +0.047 A 
ATOM     14  C   UNL     1       1.378  -2.957  -8.915  0.00  0.00    +0.029 A 
ATOM     15  C   UNL     1       1.530  -1.820  -8.001  0.00  0.00    +0.043 A 
ATOM     16  N   UNL     1       2.376  -0.820  -7.980  0.00  0.00    -0.380 N 
ATOM     17  C   UNL     1       2.061   0.035  -6.830  0.00  0.00    +0.144 C 
ATOM     18  H   UNL     1       3.089  -0.668  -8.620  0.00  0.00    +0.160 HD
BRANCH  12  19
ATOM     19  O   UNL     1      -1.453  -4.723  -7.478  0.00  0.00    -0.495 OA
ATOM     20  C   UNL     1      -1.475  -5.770  -8.450  0.00  0.00    +0.277 C 
ENDBRANCH  12  19
ENDBRANCH   8   9
ENDBRANCH   7   8
ENDBRANCH   5   7
ENDBRANCH   2   3
BRANCH   2  21
ATOM     21  N   UNL     1       0.711  -0.489   1.189  0.00  0.00    -0.300 N 
ATOM     22  C   UNL     1       0.051  -0.633   2.355  0.00  0.00    +0.245 C 
ATOM     23  O   UNL     1      -1.132  -0.361   2.423  0.00  0.00    -0.270 OA
ATOM     24  H   UNL     1       1.654  -0.707   1.135  0.00  0.00    +0.150 HD
BRANCH  22  25
ATOM     25  C   UNL     1       0.765  -1.122   3.551  0.00  0.00    +0.038 A 
ATOM     26  C   UNL     1       2.126  -1.434   3.490  0.00  0.00    +0.015 A 
ATOM     27  C   UNL     1       2.794  -1.889   4.597  0.00  0.00    +0.025 A 
ATOM     28  C   UNL     1       2.138  -2.058   5.833  0.00  0.00    +0.043 A 
ATOM     29  C   UNL     1       0.774  -1.738   5.868  0.00  0.00    +0.033 A 
ATOM     30  C   UNL     1       0.093  -1.277   4.770  0.00  0.00    +0.029 A 
ATOM     31  S   UNL     1       0.266  -2.058   7.543  0.00  0.00    -0.079 S 
ATOM     32  C   UNL     1       1.887  -2.623   8.199  0.00  0.00    +0.237 C 
ATOM     33  N   UNL     1       2.732  -2.510   7.003  0.00  0.00    -0.314 N 
ATOM     34  H   UNL     1       3.673  -2.744   7.030  0.00  0.00    +0.149 HD
BRANCH  32  35
ATOM     35  N   UNL     1       2.361  -1.738   9.266  0.00  0.00    -0.326 N 
ATOM     36  C   UNL     1       3.112  -0.614   9.090  0.00  0.00    +0.088 A 
ATOM     37  C   UNL     1       3.349  -0.071  10.302  0.00  0.00    +0.019 A 
ATOM     38  C   UNL     1       2.721  -0.891  11.261  0.00  0.00    +0.019 A 
ATOM     39  C   UNL     1       2.119  -1.899  10.598  0.00  0.00    +0.088 A 
ENDBRANCH  32  35
ENDBRANCH  22  25
ENDBRANCH   2  21
TORSDOF 8
