REMARK  Name = ZINC20707597
REMARK  6 active torsions:
REMARK  status: ('A' for Active; 'I' for Inactive)
REMARK    1  A    between atoms: C_1  and  C_2
REMARK    2  A    between atoms: C_2  and  C_3
REMARK    3  A    between atoms: C_3  and  C_4
REMARK    4  A    between atoms: N_6  and  C_7
REMARK    5  A    between atoms: C_20  and  C_23
REMARK    6  A    between atoms: C_28  and  O_29
REMARK                            x       y       z     vdW  Elec       q    Type
REMARK                         _______ _______ _______ _____ _____    ______ ____
ROOT
ATOM      1  C   UNL     1      -1.014   1.680  -3.635  0.00  0.00    +0.039 A 
ATOM      2  C   UNL     1      -2.131   2.501  -3.567  0.00  0.00    +0.025 A 
ATOM      3  C   UNL     1      -2.767   2.885  -4.732  0.00  0.00    +0.023 A 
ATOM      4  C   UNL     1      -2.306   2.442  -5.954  0.00  0.00    +0.062 A 
ATOM      5  C   UNL     1      -1.192   1.604  -6.041  0.00  0.00    +0.052 A 
ATOM      6  C   UNL     1      -0.545   1.234  -4.859  0.00  0.00    +0.003 A 
ATOM      7  C   UNL     1       0.651   0.371  -4.968  0.00  0.00    +0.050 C 
ATOM      8  C   UNL     1       1.044  -0.590  -3.908  0.00  0.00    -0.023 C 
ATOM      9  C   UNL     1       1.643  -1.624  -4.463  0.00  0.00    -0.030 C 
ATOM     10  C   UNL     1       1.639  -1.467  -5.986  0.00  0.00    +0.033 C 
ATOM     11  C   UNL     1       0.419  -0.563  -6.197  0.00  0.00    +0.029 C 
ATOM     12  C   UNL     1       0.423   0.369  -7.391  0.00  0.00    +0.108 C 
ATOM     13  N   UNL     1      -0.802   1.179  -7.310  0.00  0.00    -0.335 N 
ATOM     14 CL   UNL     1      -3.122   2.934  -7.405  0.00  0.00    -0.082 Cl
ATOM     15  H   UNL     1      -1.363   1.422  -8.225  0.00  0.00    +0.147 HD
ENDROOT
BRANCH  12  16
ATOM     16  C   UNL     1       0.427  -0.432  -8.667  0.00  0.00    +0.014 A 
ATOM     17  C   UNL     1       0.060  -1.764  -8.649  0.00  0.00    +0.009 A 
ATOM     18  C   UNL     1       0.058  -2.498  -9.821  0.00  0.00    +0.001 A 
ATOM     19  C   UNL     1       0.434  -1.904 -11.012  0.00  0.00    +0.004 A 
ATOM     20  C   UNL     1       0.807  -0.574 -11.034  0.00  0.00    +0.046 A 
ATOM     21  C   UNL     1       0.804   0.166  -9.861  0.00  0.00    +0.122 A 
BRANCH  21  22
ATOM     22  O   UNL     1       1.172   1.474  -9.880  0.00  0.00    -0.506 OA
ATOM     23  H   UNL     1       1.471   1.948 -10.827  0.00  0.00    +0.292 HD
ENDBRANCH  21  22
ENDBRANCH  12  16
BRANCH   1  26
ATOM     24  C   UNL     1      -1.071   1.063  -1.337  0.00  0.00    +0.217 C 
ATOM     25  O   UNL     1      -2.268   1.255  -1.328  0.00  0.00    -0.275 OA
ATOM     26  N   UNL     1      -0.360   1.296  -2.458  0.00  0.00    -0.285 N 
ATOM     27  H   UNL     1       0.735   1.185  -2.448  0.00  0.00    +0.155 HD
BRANCH  24  28
ATOM     28  C   UNL     1      -0.378   0.563  -0.096  0.00  0.00    +0.096 C 
BRANCH  28  30
ATOM     29  C   UNL     1      -0.702  -0.126   2.284  0.00  0.00    +0.004 C 
ATOM     30  C   UNL     1      -1.405   0.382   1.023  0.00  0.00    +0.006 C 
ENDBRANCH  28  30
ENDBRANCH  24  28
ENDBRANCH   1  26
TORSDOF 5
