REMARK  Name = ZINC40801233
REMARK  4 active torsions:
REMARK  status: ('A' for Active; 'I' for Inactive)
REMARK    1  A    between atoms: C_10  and  C_13
REMARK    2  A    between atoms: C_13  and  C_14
REMARK    3  A    between atoms: N_16  and  C_17
REMARK    4  A    between atoms: C_18  and  C_26
REMARK                            x       y       z     vdW  Elec       q    Type
REMARK                         _______ _______ _______ _____ _____    ______ ____
ROOT
ATOM      1  C   UNL     1       4.975  -0.976   2.472  0.00  0.00    +0.222 C 
ATOM      2  O   UNL     1       5.773  -0.678   1.608  0.00  0.00    -0.275 OA
ATOM      3  N   UNL     1       5.234  -0.679   3.760  0.00  0.00    -0.279 N 
ATOM      4  H   UNL     1       4.596  -0.917   4.451  0.00  0.00    +0.155 HD
ENDROOT
BRANCH   3   5
ATOM      5  C   UNL     1       6.413  -0.033   4.099  0.00  0.00    +0.084 A 
ATOM      6  C   UNL     1       6.847   0.343   5.361  0.00  0.00    +0.068 A 
ATOM      7  C   UNL     1       8.133   1.012   5.449  0.00  0.00    -0.023 A 
ATOM      8  C   UNL     1       8.749   1.184   4.260  0.00  0.00    -0.004 A 
ATOM      9  S   UNL     1       7.648   0.467   3.076  0.00  0.00    -0.077 S 
ATOM     10  C   UNL     1      10.075   1.837   4.020  0.00  0.00    +0.043 C 
ATOM     11  C   UNL     1      10.463   2.620   5.283  0.00  0.00    +0.005 C 
ATOM     12  C   UNL     1      10.262   1.721   6.505  0.00  0.00    +0.005 C 
ATOM     13  C   UNL     1       8.768   1.494   6.746  0.00  0.00    +0.037 C 
BRANCH   6  14
ATOM     14  C   UNL     1       6.041   0.075   6.557  0.00  0.00    +0.244 C 
ATOM     15  O   UNL     1       6.185  -0.968   7.167  0.00  0.00    -0.270 OA
ATOM     16  N   UNL     1       5.142   0.985   6.980  0.00  0.00    -0.325 N 
ATOM     17  H   UNL     1       5.027   1.817   6.494  0.00  0.00    +0.145 HD
ATOM     18  H   UNL     1       4.609   0.809   7.771  0.00  0.00    +0.145 HD
ENDBRANCH   6  14
ENDBRANCH   3   5
BRANCH   1  19
ATOM     19  C   UNL     1       3.693  -1.677   2.103  0.00  0.00    +0.150 C 
BRANCH  19  29
ATOM     20  C   UNL     1      -0.017   1.378   0.010  0.00  0.00    +0.002 A 
ATOM     21  C   UNL     1       1.169   2.090   0.002  0.00  0.00    +0.004 A 
ATOM     22  C   UNL     1       2.381   1.424  -0.019  0.00  0.00    +0.047 A 
ATOM     23  C   UNL     1       2.408   0.040  -0.030  0.00  0.00    +0.143 A 
ATOM     24  C   UNL     1       1.213  -0.677  -0.012  0.00  0.00    +0.076 A 
ATOM     25  C   UNL     1       0.002  -0.004   0.002  0.00  0.00    +0.027 A 
ATOM     26  N   UNL     1       1.250  -2.078   0.012  0.00  0.00    -0.280 N 
ATOM     27  C   UNL     1       2.425  -2.703   0.235  0.00  0.00    +0.259 C 
ATOM     28  O   UNL     1       2.498  -3.911   0.151  0.00  0.00    -0.271 OA
ATOM     29  C   UNL     1       3.647  -1.893   0.589  0.00  0.00    +0.268 C 
ATOM     30  O   UNL     1       3.593  -0.626  -0.070  0.00  0.00    -0.477 OA
ATOM     31  H   UNL     1       0.440  -2.592  -0.130  0.00  0.00    +0.155 HD
ENDBRANCH  19  29
ENDBRANCH   1  19
TORSDOF 4
