REMARK  Name = ZINC31773039
REMARK  5 active torsions:
REMARK  status: ('A' for Active; 'I' for Inactive)
REMARK    1  A    between atoms: C_5  and  N_7
REMARK    2  A    between atoms: N_7  and  S_8
REMARK    3  A    between atoms: S_8  and  C_11
REMARK    4  A    between atoms: C_15  and  S_17
REMARK    5  A    between atoms: S_17  and  C_20
REMARK                            x       y       z     vdW  Elec       q    Type
REMARK                         _______ _______ _______ _____ _____    ______ ____
ROOT
ATOM      1  C   UNL     1       5.256   4.527  -1.825  0.00  0.00    +0.112 A 
ATOM      2  C   UNL     1       5.991   4.944  -0.730  0.00  0.00    +0.029 A 
ATOM      3  C   UNL     1       5.416   4.950   0.526  0.00  0.00    +0.004 A 
ATOM      4  C   UNL     1       4.104   4.544   0.688  0.00  0.00    +0.027 A 
ATOM      5  C   UNL     1       3.372   4.122  -0.405  0.00  0.00    +0.090 A 
ATOM      6  C   UNL     1       3.947   4.116  -1.662  0.00  0.00    +0.055 A 
ENDROOT
BRANCH   1   7
ATOM      7  S   UNL     1       5.989   4.520  -3.427  0.00  0.00    +0.092 S 
ATOM      8  O   UNL     1       7.394   4.432  -3.231  0.00  0.00    -0.148 OA
ATOM      9  O   UNL     1       5.267   3.571  -4.200  0.00  0.00    -0.148 OA
BRANCH   7  10
ATOM     10  N   UNL     1       5.698   6.002  -4.106  0.00  0.00    -0.097 NA
BRANCH  10  15
ATOM     11  C   UNL     1       7.886   8.286  -2.234  0.00  0.00    +0.002 A 
ATOM     12  C   UNL     1       7.143   9.451  -2.272  0.00  0.00    +0.001 A 
ATOM     13  C   UNL     1       5.920   9.474  -2.917  0.00  0.00    +0.017 A 
ATOM     14  C   UNL     1       5.440   8.333  -3.532  0.00  0.00    +0.042 A 
ATOM     15  C   UNL     1       6.183   7.159  -3.490  0.00  0.00    +0.088 A 
ATOM     16  C   UNL     1       7.410   7.140  -2.841  0.00  0.00    +0.028 A 
ATOM     17 BR   UNL     1       3.772   8.367  -4.421  0.00  0.00    -0.048 Br
ENDBRANCH  10  15
ENDBRANCH   7  10
ENDBRANCH   1   7
BRANCH   5  18
ATOM     18  S   UNL     1       1.702   3.599  -0.198  0.00  0.00    +0.001 S 
ATOM     19  O   UNL     1       1.088   3.838  -1.456  0.00  0.00    -0.169 OA
ATOM     20  O   UNL     1       1.252   4.275   0.969  0.00  0.00    -0.169 OA
BRANCH  18  21
ATOM     21  C   UNL     1       1.808   1.815   0.116  0.00  0.00    +0.158 C 
ATOM     22  C   UNL     1       0.394   1.216   0.191  0.00  0.00    +0.051 C 
ATOM     23  C   UNL     1       0.472  -0.329   0.136  0.00  0.00    +0.168 C 
ATOM     24  S   UNL     1       2.013  -0.622  -0.823  0.00  0.00    -0.029 S 
ATOM     25  O   UNL     1       2.950  -1.300   0.002  0.00  0.00    -0.174 OA
ATOM     26  O   UNL     1       1.672  -1.169  -2.090  0.00  0.00    -0.174 OA
ATOM     27  C   UNL     1       2.567   1.121  -1.051  0.00  0.00    +0.192 C 
ENDBRANCH  18  21
ENDBRANCH   5  18
TORSDOF 5
