REMARK  Name = ZINC33349893
REMARK  11 active torsions:
REMARK  status: ('A' for Active; 'I' for Inactive)
REMARK    1  A    between atoms: C_1  and  C_2
REMARK    2  A    between atoms: C_5  and  N_8
REMARK    3  A    between atoms: C_12  and  C_13
REMARK    4  A    between atoms: C_15  and  C_29
REMARK    5  A    between atoms: N_16  and  C_19
REMARK    6  A    between atoms: C_17  and  C_18
REMARK    7  A    between atoms: C_22  and  C_25
REMARK    8  A    between atoms: C_25  and  C_26
REMARK    9  A    between atoms: C_25  and  C_27
REMARK   10  A    between atoms: C_25  and  C_28
REMARK   11  A    between atoms: N_32  and  C_35
REMARK                            x       y       z     vdW  Elec       q    Type
REMARK                         _______ _______ _______ _____ _____    ______ ____
ROOT
ATOM      1  N   UNL     1      -2.800  -5.600   0.685  0.00  0.00    -0.217 N 
ATOM      2  C   UNL     1      -1.884  -5.847   1.645  0.00  0.00    +0.262 C 
ATOM      3  O   UNL     1      -2.021  -5.401   2.768  0.00  0.00    -0.269 OA
ATOM      4  C   UNL     1      -0.714  -6.673   1.294  0.00  0.00    +0.100 C 
ATOM      5  C   UNL     1       0.267  -6.969   2.226  0.00  0.00    +0.028 C 
ATOM      6  C   UNL     1      -0.634  -7.170  -0.092  0.00  0.00    +0.257 C 
ATOM      7  O   UNL     1       0.302  -7.857  -0.456  0.00  0.00    -0.269 OA
ATOM      8  N   UNL     1      -1.626  -6.842  -0.945  0.00  0.00    -0.252 N 
ATOM      9  C   UNL     1      -2.665  -6.090  -0.555  0.00  0.00    +0.153 C 
ATOM     10  S   UNL     1      -3.881  -5.729  -1.705  0.00  0.00    -0.017 S 
ATOM     11  C   UNL     1      -1.570  -7.323  -2.327  0.00  0.00    +0.140 C 
ENDROOT
BRANCH   1  16
ATOM     12  C   UNL     1      -7.340  -2.435   1.938  0.00  0.00    +0.044 C 
ATOM     13  C   UNL     1      -6.135  -3.276   1.605  0.00  0.00    -0.050 A 
ATOM     14  C   UNL     1      -6.184  -4.648   1.769  0.00  0.00    +0.005 A 
ATOM     15  C   UNL     1      -5.080  -5.421   1.465  0.00  0.00    +0.024 A 
ATOM     16  C   UNL     1      -3.921  -4.819   0.994  0.00  0.00    +0.043 A 
ATOM     17  C   UNL     1      -3.875  -3.441   0.831  0.00  0.00    +0.024 A 
ATOM     18  C   UNL     1      -4.984  -2.674   1.131  0.00  0.00    +0.005 A 
ENDBRANCH   1  16
BRANCH   5  19
ATOM     19  C   UNL     1       0.263  -6.324   3.487  0.00  0.00    -0.003 A 
ATOM     20  C   UNL     1       0.042  -4.895   3.751  0.00  0.00    +0.031 A 
ATOM     21  C   UNL     1       0.126  -4.737   5.082  0.00  0.00    +0.022 A 
ATOM     22  N   UNL     1       0.382  -5.949   5.664  0.00  0.00    -0.317 N 
ATOM     23  C   UNL     1       0.462  -6.912   4.727  0.00  0.00    +0.028 A 
ATOM     24  C   UNL     1       0.725  -8.374   4.982  0.00  0.00    +0.064 C 
ATOM     25  C   UNL     1      -0.034  -3.432   5.817  0.00  0.00    +0.064 C 
BRANCH  22  26
ATOM     26  C   UNL     1       0.534  -6.157   7.041  0.00  0.00    +0.047 A 
ATOM     27  C   UNL     1       1.758  -6.568   7.552  0.00  0.00    +0.026 A 
ATOM     28  C   UNL     1       1.905  -6.772   8.910  0.00  0.00    +0.006 A 
ATOM     29  C   UNL     1       0.834  -6.569   9.761  0.00  0.00    -0.042 A 
ATOM     30  C   UNL     1      -0.387  -6.160   9.255  0.00  0.00    +0.006 A 
ATOM     31  C   UNL     1      -0.538  -5.949   7.899  0.00  0.00    +0.026 A 
BRANCH  29  32
ATOM     32  C   UNL     1       0.997  -6.793  11.242  0.00  0.00    -0.013 C 
ATOM     33  C   UNL     1       2.083  -5.861  11.782  0.00  0.00    +0.015 C 
ATOM     34  C   UNL     1      -0.326  -6.501  11.951  0.00  0.00    +0.015 C 
ATOM     35  C   UNL     1       1.401  -8.247  11.496  0.00  0.00    +0.015 C 
ENDBRANCH  29  32
ENDBRANCH  22  26
ENDBRANCH   5  19
TORSDOF 4
