REMARK  Name = ZINC16936054
REMARK  9 active torsions:
REMARK  status: ('A' for Active; 'I' for Inactive)
REMARK    1  A    between atoms: C_1  and  C_2
REMARK    2  A    between atoms: C_2  and  N_3
REMARK    3  A    between atoms: C_7  and  C_8
REMARK    4  A    between atoms: C_13  and  O_14
REMARK    5  A    between atoms: O_14  and  C_15
REMARK    6  A    between atoms: C_15  and  C_17
REMARK    7  A    between atoms: C_15  and  C_18
REMARK    8  A    between atoms: N_22  and  C_23
REMARK    9  A    between atoms: C_26  and  O_29
REMARK                            x       y       z     vdW  Elec       q    Type
REMARK                         _______ _______ _______ _____ _____    ______ ____
ROOT
ATOM      1  N   UNL     1       1.420   3.509  -0.957  0.00  0.00    -0.246 N 
ATOM      2  C   UNL     1       2.653   3.947  -0.771  0.00  0.00    +0.259 C 
ATOM      3  O   UNL     1       2.963   5.098  -1.018  0.00  0.00    -0.269 OA
ATOM      4  C   UNL     1       3.637   2.979  -0.252  0.00  0.00    +0.078 C 
ATOM      5  C   UNL     1       4.953   3.155   0.029  0.00  0.00    +0.032 C 
ATOM      6  S   UNL     1       2.628   1.513  -0.084  0.00  0.00    -0.049 S 
ATOM      7  C   UNL     1       1.089   2.201  -0.672  0.00  0.00    +0.168 C 
ATOM      8  N   UNL     1      -0.076   1.607  -0.797  0.00  0.00    -0.225 NA
ENDROOT
BRANCH   5   9
ATOM      9  C   UNL     1       5.783   2.005   0.407  0.00  0.00    +0.018 A 
ATOM     10  C   UNL     1       5.357   0.703   0.119  0.00  0.00    +0.011 A 
ATOM     11  C   UNL     1       6.144  -0.371   0.472  0.00  0.00    +0.001 A 
ATOM     12  C   UNL     1       7.351  -0.170   1.122  0.00  0.00    +0.004 A 
ATOM     13  C   UNL     1       7.782   1.109   1.419  0.00  0.00    +0.046 A 
ATOM     14  C   UNL     1       7.008   2.203   1.067  0.00  0.00    +0.129 A 
BRANCH  14  15
ATOM     15  O   UNL     1       7.430   3.459   1.358  0.00  0.00    -0.477 OA
BRANCH  15  16
ATOM     16  C   UNL     1       8.721   3.588   1.956  0.00  0.00    +0.282 C 
ATOM     17  C   UNL     1       8.627   3.262   3.448  0.00  0.00    +0.064 C 
BRANCH  16  18
ATOM     18  C   UNL     1       9.218   5.000   1.780  0.00  0.00    +0.395 C 
ATOM     19  O   UNL     1       8.501   5.835   1.283  0.00  0.00    -0.242 OA
ATOM     20  O   UNL     1      10.458   5.329   2.176  0.00  0.00    -0.242 OA
ENDBRANCH  16  18
ENDBRANCH  15  16
ENDBRANCH  14  15
ENDBRANCH   5   9
BRANCH   8  21
ATOM     21  C   UNL     1      -0.212   0.287  -0.459  0.00  0.00    +0.067 A 
ATOM     22  C   UNL     1       0.742  -0.644  -0.875  0.00  0.00    +0.031 A 
ATOM     23  C   UNL     1       0.605  -1.971  -0.527  0.00  0.00    +0.047 A 
ATOM     24  C   UNL     1      -0.486  -2.385   0.225  0.00  0.00    +0.117 A 
ATOM     25  C   UNL     1      -1.440  -1.464   0.636  0.00  0.00    +0.047 A 
ATOM     26  C   UNL     1      -1.307  -0.133   0.298  0.00  0.00    +0.031 A 
BRANCH  24  27
ATOM     27  O   UNL     1      -0.620  -3.696   0.561  0.00  0.00    -0.507 OA
ATOM     28  H   UNL     1      -1.117  -4.218  -0.084  0.00  0.00    +0.292 HD
ENDBRANCH  24  27
ENDBRANCH   8  21
BRANCH   1  30
ATOM     29  C   UNL     1      -0.301   5.118  -0.301  0.00  0.00    +0.025 C 
ATOM     30  C   UNL     1       0.395   4.420  -1.472  0.00  0.00    +0.112 C 
ENDBRANCH   1  30
TORSDOF 7
