REMARK  Name = ZINC04898536
REMARK  6 active torsions:
REMARK  status: ('A' for Active; 'I' for Inactive)
REMARK    1  A    between atoms: C_10  and  C_11
REMARK    2  A    between atoms: C_11  and  N_50
REMARK    3  A    between atoms: N_14  and  N_17
REMARK    4  A    between atoms: C_18  and  C_19
REMARK    5  A    between atoms: C_22  and  O_26
REMARK    6  A    between atoms: C_24  and  O_25
REMARK                            x       y       z     vdW  Elec       q    Type
REMARK                         _______ _______ _______ _____ _____    ______ ____
ROOT
ATOM      1  C   UNL     1      -3.600   6.281   1.063  0.00  0.00    -0.058 C 
ATOM      2  C   UNL     1      -2.909   5.910  -0.254  0.00  0.00    +0.107 C 
ATOM      3  N   UNL     1      -2.672   4.458  -0.264  0.00  0.00    -0.259 N 
ATOM      4  C   UNL     1      -3.804   3.566   0.028  0.00  0.00    +0.107 C 
ATOM      5  C   UNL     1      -4.458   4.029   1.339  0.00  0.00    -0.058 C 
ATOM      6  N   UNL     1      -4.820   5.457   1.208  0.00  0.00    +0.384 N 
ATOM      7  H   UNL     1      -5.404   5.577   0.372  0.00  0.00    -0.081 HD
ENDROOT
BRANCH   3   8
ATOM      8  N   UNL     1      -1.402   3.939  -0.550  0.00  0.00    -0.192 NA
ATOM      9  C   UNL     1      -0.401   4.742  -0.740  0.00  0.00    +0.141 C 
BRANCH   9  10
ATOM     10  C   UNL     1       0.960   4.199  -0.901  0.00  0.00    +0.036 A 
ATOM     11  C   UNL     1       2.039   5.061  -1.105  0.00  0.00    +0.016 A 
ATOM     12  C   UNL     1       3.311   4.548  -1.250  0.00  0.00    +0.046 A 
ATOM     13  C   UNL     1       3.523   3.176  -1.192  0.00  0.00    +0.120 A 
ATOM     14  C   UNL     1       2.457   2.312  -0.989  0.00  0.00    +0.091 A 
ATOM     15  C   UNL     1       1.176   2.815  -0.844  0.00  0.00    +0.129 A 
BRANCH  15  16
ATOM     16  O   UNL     1       0.131   1.970  -0.645  0.00  0.00    -0.506 OA
ATOM     17  H   UNL     1      -0.293   1.670  -1.460  0.00  0.00    +0.292 HD
ENDBRANCH  15  16
BRANCH  13  18
ATOM     18  O   UNL     1       4.779   2.679  -1.335  0.00  0.00    -0.507 OA
ATOM     19  H   UNL     1       5.264   2.591  -0.503  0.00  0.00    +0.292 HD
ENDBRANCH  13  18
ENDBRANCH   9  10
ENDBRANCH   3   8
BRANCH   6  20
ATOM     20  C   UNL     1      -5.585   5.895   2.394  0.00  0.00    -0.042 C 
BRANCH  20  30
ATOM     21  C   UNL     1     -10.026   5.072  -0.015  0.00  0.00    +0.001 A 
ATOM     22  C   UNL     1      -8.950   5.936  -0.210  0.00  0.00    +0.001 A 
ATOM     23  C   UNL     1      -7.877   5.919   0.626  0.00  0.00    +0.009 A 
ATOM     24  C   UNL     1      -7.852   5.021   1.708  0.00  0.00    -0.017 A 
ATOM     25  C   UNL     1      -8.945   4.140   1.904  0.00  0.00    -0.018 A 
ATOM     26  C   UNL     1     -10.036   4.187   1.019  0.00  0.00    +0.008 A 
ATOM     27  C   UNL     1      -8.918   3.239   2.982  0.00  0.00    +0.008 A 
ATOM     28  C   UNL     1      -7.845   3.222   3.819  0.00  0.00    +0.001 A 
ATOM     29  C   UNL     1      -6.768   4.084   3.623  0.00  0.00    +0.002 A 
ATOM     30  C   UNL     1      -6.759   4.970   2.589  0.00  0.00    -0.056 A 
ENDBRANCH  20  30
ENDBRANCH   6  20
TORSDOF 6
