REMARK  Name = ZINC19362436
REMARK  8 active torsions:
REMARK  status: ('A' for Active; 'I' for Inactive)
REMARK    1  A    between atoms: C_1  and  C_2
REMARK    2  A    between atoms: C_2  and  C_34
REMARK    3  A    between atoms: C_6  and  C_7
REMARK    4  A    between atoms: N_8  and  C_9
REMARK    5  A    between atoms: C_9  and  C_10
REMARK    6  A    between atoms: C_10  and  N_11
REMARK    7  A    between atoms: N_14  and  C_17
REMARK    8  A    between atoms: N_22  and  C_25
REMARK                            x       y       z     vdW  Elec       q    Type
REMARK                         _______ _______ _______ _____ _____    ______ ____
ROOT
ATOM      1  N   UNL     1      -2.639   0.351   8.296  0.00  0.00    -0.298 NA
ATOM      2  C   UNL     1      -1.958   1.525   8.861  0.00  0.00    +0.100 C 
ATOM      3  C   UNL     1      -2.751   2.043  10.063  0.00  0.00    +0.100 C 
ATOM      4  N   UNL     1      -2.872   0.974  11.065  0.00  0.00    -0.289 NA
ATOM      5  C   UNL     1      -3.553  -0.199  10.500  0.00  0.00    +0.100 C 
ATOM      6  C   UNL     1      -2.760  -0.717   9.298  0.00  0.00    +0.100 C 
ENDROOT
BRANCH   4   7
ATOM      7  C   UNL     1      -3.563   1.456  12.268  0.00  0.00    +0.153 C 
ATOM      8  C   UNL     1      -3.513   0.394  13.385  0.00  0.00    +0.125 C 
ATOM      9  C   UNL     1      -4.970   0.069  13.632  0.00  0.00    +0.228 C 
ATOM     10  O   UNL     1      -5.383  -0.730  14.445  0.00  0.00    -0.275 OA
ATOM     11  N   UNL     1      -5.730   0.805  12.812  0.00  0.00    -0.209 N 
ATOM     12  C   UNL     1      -5.043   1.624  12.001  0.00  0.00    +0.244 C 
ATOM     13  O   UNL     1      -5.527   2.377  11.183  0.00  0.00    -0.273 OA
BRANCH  11  14
ATOM     14  C   UNL     1      -7.130   0.729  12.803  0.00  0.00    +0.044 A 
ATOM     15  C   UNL     1      -7.761  -0.431  12.376  0.00  0.00    +0.024 A 
ATOM     16  C   UNL     1      -9.140  -0.503  12.368  0.00  0.00    +0.002 A 
ATOM     17  C   UNL     1      -9.893   0.579  12.785  0.00  0.00    +0.000 A 
ATOM     18  C   UNL     1      -9.267   1.737  13.211  0.00  0.00    +0.002 A 
ATOM     19  C   UNL     1      -7.888   1.812  13.227  0.00  0.00    +0.024 A 
ENDBRANCH  11  14
ENDBRANCH   4   7
BRANCH   1  20
ATOM     20  C   UNL     1      -1.948  -0.130   7.093  0.00  0.00    +0.107 C 
BRANCH  20  21
ATOM     21  C   UNL     1      -2.060   0.920   5.986  0.00  0.00    +0.157 C 
BRANCH  21  23
ATOM     22  C   UNL     1      -2.043   0.195   3.706  0.00  0.00    +0.119 C 
ATOM     23  N   UNL     1      -1.370   0.439   4.786  0.00  0.00    -0.289 NA
BRANCH  22  29
ATOM     24  C   UNL     1       0.009   1.016   0.004  0.00  0.00    +0.012 C 
ATOM     25  C   UNL     1       0.029  -0.513   0.057  0.00  0.00    -0.021 C 
ATOM     26  C   UNL     1      -1.406  -1.044   0.097  0.00  0.00    +0.086 C 
ATOM     27  C   UNL     1      -2.087  -0.546   1.345  0.00  0.00    +0.168 C 
ATOM     28  O   UNL     1      -3.295  -0.369   1.346  0.00  0.00    -0.292 OA
ATOM     29  C   UNL     1      -1.351  -0.287   2.501  0.00  0.00    +0.077 C 
ATOM     30  C   UNL     1       0.030  -0.478   2.535  0.00  0.00    +0.168 C 
ATOM     31  O   UNL     1       0.648  -0.242   3.561  0.00  0.00    -0.292 OA
ATOM     32  C   UNL     1       0.767  -0.973   1.317  0.00  0.00    +0.086 C 
ATOM     33  C   UNL     1       0.744  -1.058  -1.182  0.00  0.00    +0.012 C 
ENDBRANCH  22  29
ENDBRANCH  21  23
ENDBRANCH  20  21
ENDBRANCH   1  20
TORSDOF 6
