REMARK  Name = ZINC41498612
REMARK  6 active torsions:
REMARK  status: ('A' for Active; 'I' for Inactive)
REMARK    1  A    between atoms: C_1  and  C_2
REMARK    2  A    between atoms: C_4  and  O_23
REMARK    3  A    between atoms: C_11  and  C_12
REMARK    4  A    between atoms: N_14  and  C_21
REMARK    5  A    between atoms: O_23  and  C_24
REMARK    6  A    between atoms: C_24  and  C_25
REMARK                            x       y       z     vdW  Elec       q    Type
REMARK                         _______ _______ _______ _____ _____    ______ ____
ROOT
ATOM      1  C   UNL     1      -0.018   1.503   0.010  0.00  0.00    +0.045 C 
ATOM      2  C   UNL     1       0.002  -0.004   0.002  0.00  0.00    -0.033 A 
ATOM      3  C   UNL     1       0.006  -0.682  -1.184  0.00  0.00    +0.050 A 
ATOM      4  C   UNL     1       0.024  -2.074  -1.196  0.00  0.00    +0.125 A 
ATOM      5  C   UNL     1       0.039  -2.788  -0.008  0.00  0.00    +0.092 A 
ATOM      6  C   UNL     1       0.036  -2.114   1.205  0.00  0.00    +0.143 A 
ATOM      7  C   UNL     1       0.023  -0.709   1.205  0.00  0.00    +0.071 A 
ATOM      8  C   UNL     1       0.031  -0.301   2.620  0.00  0.00    +0.232 C 
ATOM      9  O   UNL     1       0.020   0.835   3.064  0.00  0.00    -0.283 OA
ATOM     10  C   UNL     1       0.054  -1.515   3.358  0.00  0.00    +0.176 C 
ATOM     11  C   UNL     1       0.069  -1.621   4.716  0.00  0.00    +0.060 C 
ATOM     12  O   UNL     1       0.047  -2.549   2.483  0.00  0.00    -0.451 OA
ENDROOT
BRANCH  11  13
ATOM     13  C   UNL     1       0.093  -2.940   5.346  0.00  0.00    +0.004 A 
ATOM     14  C   UNL     1       0.109  -4.161   4.707  0.00  0.00    +0.094 A 
ATOM     15  N   UNL     1       0.130  -5.154   5.630  0.00  0.00    -0.349 N 
ATOM     16  C   UNL     1       0.128  -4.629   6.906  0.00  0.00    +0.049 A 
ATOM     17  C   UNL     1       0.110  -3.230   6.792  0.00  0.00    +0.007 A 
ATOM     18  C   UNL     1       0.110  -2.436   7.936  0.00  0.00    +0.010 A 
ATOM     19  C   UNL     1       0.130  -3.030   9.179  0.00  0.00    +0.001 A 
ATOM     20  C   UNL     1       0.151  -4.412   9.294  0.00  0.00    +0.002 A 
ATOM     21  C   UNL     1       0.144  -5.210   8.170  0.00  0.00    +0.026 A 
ATOM     22  C   UNL     1       0.151  -6.585   5.316  0.00  0.00    +0.149 C 
ENDBRANCH  11  13
BRANCH   4  23
ATOM     23  O   UNL     1       0.027  -2.738  -2.380  0.00  0.00    -0.483 OA
BRANCH  23  24
ATOM     24  C   UNL     1       0.046  -4.165  -2.324  0.00  0.00    +0.324 C 
BRANCH  24  25
ATOM     25  C   UNL     1       0.047  -4.723  -3.724  0.00  0.00    +0.248 C 
ATOM     26  O   UNL     1       0.032  -3.972  -4.676  0.00  0.00    -0.272 OA
ATOM     27  N   UNL     1       0.064  -6.057  -3.918  0.00  0.00    -0.327 N 
ATOM     28  H   UNL     1       0.075  -6.658  -3.157  0.00  0.00    +0.145 HD
ATOM     29  H   UNL     1       0.064  -6.416  -4.819  0.00  0.00    +0.145 HD
ENDBRANCH  24  25
ENDBRANCH  23  24
ENDBRANCH   4  23
TORSDOF 4
