REMARK  Name = ZINC31812070
REMARK  2 active torsions:
REMARK  status: ('A' for Active; 'I' for Inactive)
REMARK    1  A    between atoms: C_1  and  C_2
REMARK    2  A    between atoms: C_22  and  C_24
REMARK                            x       y       z     vdW  Elec       q    Type
REMARK                         _______ _______ _______ _____ _____    ______ ____
ROOT
ATOM      1  C   UNL     1       0.392   1.826  -0.304  0.00  0.00    +0.068 C 
ATOM      2  C   UNL     1       0.574   0.337  -0.154  0.00  0.00    +0.067 A 
ATOM      3  C   UNL     1       0.380  -0.620  -1.173  0.00  0.00    +0.033 A 
ATOM      4  C   UNL     1       0.643  -1.838  -0.651  0.00  0.00    +0.135 A 
ATOM      5  N   UNL     1       0.991  -1.643   0.669  0.00  0.00    -0.197 N 
ATOM      6  N   UNL     1       0.942  -0.275   0.934  0.00  0.00    -0.168 NA
ATOM      7  C   UNL     1       1.338  -2.640   1.578  0.00  0.00    +0.187 A 
ATOM      8  C   UNL     1       2.473  -2.506   2.392  0.00  0.00    +0.152 A 
ATOM      9  C   UNL     1       2.772  -3.546   3.291  0.00  0.00    +0.163 A 
ATOM     10  N   UNL     1       3.913  -3.161   3.949  0.00  0.00    -0.329 N 
ATOM     11  H   UNL     1       4.377  -3.664   4.636  0.00  0.00    +0.168 HD
ATOM     12  C   UNL     1       4.275  -1.942   3.458  0.00  0.00    +0.198 A 
ATOM     13  N   UNL     1       3.430  -1.560   2.545  0.00  0.00    -0.231 NA
ATOM     14  N   UNL     1       1.976  -4.608   3.337  0.00  0.00    -0.216 NA
ATOM     15  C   UNL     1       0.921  -4.689   2.554  0.00  0.00    +0.226 A 
ATOM     16  N   UNL     1       0.598  -3.736   1.699  0.00  0.00    -0.214 NA
ATOM     17  N   UNL     1       0.615  -3.096  -1.200  0.00  0.00    -0.269 N 
ATOM     18  C   UNL     1       0.292  -3.585  -2.360  0.00  0.00    +0.228 C 
ATOM     19  O   UNL     1       0.304  -4.796  -2.424  0.00  0.00    -0.275 OA
ATOM     20  C   UNL     1      -0.088  -2.900  -3.613  0.00  0.00    +0.166 C 
ATOM     21  S   UNL     1      -1.111  -1.447  -3.336  0.00  0.00    -0.138 S 
ATOM     22  C   UNL     1      -0.046  -0.233  -2.555  0.00  0.00    +0.112 C 
ATOM     23  H   UNL     1       0.904  -3.780  -0.576  0.00  0.00    +0.156 HD
ENDROOT
BRANCH  22  24
ATOM     24  C   UNL     1      -0.781   1.081  -2.484  0.00  0.00    -0.028 A 
ATOM     25  C   UNL     1      -2.053   1.133  -1.944  0.00  0.00    +0.006 A 
ATOM     26  C   UNL     1      -2.728   2.336  -1.878  0.00  0.00    +0.022 A 
ATOM     27  C   UNL     1      -2.132   3.491  -2.353  0.00  0.00    +0.059 A 
ATOM     28  C   UNL     1      -0.859   3.439  -2.893  0.00  0.00    +0.060 A 
ATOM     29  C   UNL     1      -0.182   2.235  -2.953  0.00  0.00    +0.026 A 
ATOM     30 CL   UNL     1      -0.109   4.887  -3.489  0.00  0.00    -0.082 Cl
ATOM     31 CL   UNL     1      -2.981   5.003  -2.271  0.00  0.00    -0.082 Cl
ENDBRANCH  22  24
TORSDOF 1
