REMARK  Name = ZINC12881462
REMARK  13 active torsions:
REMARK  status: ('A' for Active; 'I' for Inactive)
REMARK    1  A    between atoms: C_1  and  S_2
REMARK    2  A    between atoms: S_2  and  C_3
REMARK    3  A    between atoms: C_3  and  C_4
REMARK    4  A    between atoms: C_4  and  C_5
REMARK    5  A    between atoms: C_5  and  C_7
REMARK    6  A    between atoms: C_5  and  N_23
REMARK    7  A    between atoms: C_7  and  O_9
REMARK    8  A    between atoms: O_9  and  C_10
REMARK    9  A    between atoms: C_10  and  C_11
REMARK   10  A    between atoms: C_14  and  C_16
REMARK   11  A    between atoms: C_16  and  N_17
REMARK   12  A    between atoms: C_24  and  C_26
REMARK   13  A    between atoms: C_29  and  N_33
REMARK                            x       y       z     vdW  Elec       q    Type
REMARK                         _______ _______ _______ _____ _____    ______ ____
ROOT
ATOM      1  C   UNL     1       1.757  -2.329   2.909  0.00  0.00    +0.183 C 
ENDROOT
BRANCH   1   2
ATOM      2  N   UNL     1       0.985  -1.897   4.078  0.00  0.00    -0.298 N 
ATOM      3  C   UNL     1       1.097  -0.632   4.529  0.00  0.00    +0.246 C 
ATOM      4  O   UNL     1       1.837   0.151   3.967  0.00  0.00    -0.270 OA
ATOM      5  H   UNL     1       0.394  -2.522   4.526  0.00  0.00    +0.150 HD
BRANCH   3   6
ATOM      6  C   UNL     1       0.319  -0.197   5.707  0.00  0.00    +0.055 A 
ATOM      7  C   UNL     1      -0.529  -1.095   6.359  0.00  0.00    +0.017 A 
ATOM      8  C   UNL     1      -1.252  -0.683   7.459  0.00  0.00    +0.033 A 
ATOM      9  C   UNL     1      -1.140   0.618   7.917  0.00  0.00    +0.128 A 
ATOM     10  C   UNL     1      -0.303   1.514   7.277  0.00  0.00    +0.053 A 
ATOM     11  C   UNL     1       0.432   1.113   6.178  0.00  0.00    +0.055 A 
ATOM     12 CL   UNL     1       1.487   2.237   5.380  0.00  0.00    -0.083 Cl
BRANCH   9  13
ATOM     13  N   UNL     1      -1.920   1.053   9.098  0.00  0.00    +0.056 N 
ATOM     14  O   UNL     1      -2.652   0.272   9.659  0.00  0.00    -0.126 OA
ATOM     15  O   UNL     1      -1.824   2.189   9.500  0.00  0.00    -0.126 OA
ENDBRANCH   9  13
ENDBRANCH   3   6
ENDBRANCH   1   2
BRANCH   1  16
ATOM     16  C   UNL     1       1.957  -3.821   2.963  0.00  0.00    +0.328 C 
ATOM     17  O   UNL     1       1.503  -4.459   3.883  0.00  0.00    -0.249 OA
BRANCH  16  18
ATOM     18  O   UNL     1       2.641  -4.442   1.989  0.00  0.00    -0.454 OA
BRANCH  18  19
ATOM     19  C   UNL     1       2.793  -5.858   2.104  0.00  0.00    +0.328 C 
BRANCH  19  20
ATOM     20  C   UNL     1       3.582  -6.376   0.929  0.00  0.00    +0.257 C 
ATOM     21  O   UNL     1       3.975  -5.608   0.077  0.00  0.00    -0.272 OA
ATOM     22  N   UNL     1       3.850  -7.693   0.825  0.00  0.00    -0.252 N 
ATOM     23  C   UNL     1       4.556  -8.156  -0.226  0.00  0.00    +0.237 C 
ATOM     24  O   UNL     1       4.949  -7.388  -1.077  0.00  0.00    -0.274 OA
ATOM     25  H   UNL     1       3.535  -8.307   1.507  0.00  0.00    +0.158 HD
BRANCH  23  26
ATOM     26  C   UNL     1       4.856  -9.628  -0.342  0.00  0.00    +0.203 C 
BRANCH  26  27
ATOM     27  N   UNL     1       5.629  -9.874  -1.561  0.00  0.00    -0.293 N 
ATOM     28  C   UNL     1       5.037 -10.168  -2.872  0.00  0.00    +0.109 C 
ATOM     29  C   UNL     1       6.165  -9.919  -3.898  0.00  0.00    +0.028 C 
ATOM     30  C   UNL     1       7.430 -10.143  -3.037  0.00  0.00    +0.097 C 
ATOM     31  C   UNL     1       6.972  -9.854  -1.625  0.00  0.00    +0.216 C 
ATOM     32  O   UNL     1       7.708  -9.638  -0.686  0.00  0.00    -0.276 OA
ENDBRANCH  26  27
ENDBRANCH  23  26
ENDBRANCH  19  20
ENDBRANCH  18  19
ENDBRANCH  16  18
ENDBRANCH   1  16
BRANCH   1  33
ATOM     33  C   UNL     1       0.997  -1.962   1.633  0.00  0.00    +0.044 C 
BRANCH  33  34
ATOM     34  C   UNL     1       0.902  -0.439   1.516  0.00  0.00    +0.071 C 
BRANCH  34  36
ATOM     35  C   UNL     1      -0.022   1.810   0.012  0.00  0.00    +0.084 C 
ATOM     36  S   UNL     1       0.002  -0.004   0.002  0.00  0.00    -0.164 S 
ENDBRANCH  34  36
ENDBRANCH  33  34
ENDBRANCH   1  33
TORSDOF 12
