REMARK  Name = ZINC25054414
REMARK  7 active torsions:
REMARK  status: ('A' for Active; 'I' for Inactive)
REMARK    1  A    between atoms: C_1  and  C_2
REMARK    2  A    between atoms: C_2  and  C_4
REMARK    3  A    between atoms: C_2  and  S_14
REMARK    4  A    between atoms: N_10  and  C_11
REMARK    5  A    between atoms: N_10  and  C_12
REMARK    6  A    between atoms: S_14  and  C_15
REMARK    7  A    between atoms: N_19  and  C_20
REMARK                            x       y       z     vdW  Elec       q    Type
REMARK                         _______ _______ _______ _____ _____    ______ ____
ROOT
ATOM      1  C   UNL     1      -2.912   4.064  -1.160  0.00  0.00    +0.198 A 
ATOM      2  N   UNL     1      -3.908   3.629  -0.426  0.00  0.00    -0.120 NA
ATOM      3  N   UNL     1      -5.029   4.422  -0.701  0.00  0.00    -0.112 NA
ATOM      4  C   UNL     1      -4.687   5.312  -1.600  0.00  0.00    +0.225 A 
ATOM      5  N   UNL     1      -3.369   5.115  -1.909  0.00  0.00    -0.257 N 
ATOM      6  N   UNL     1      -5.517   6.283  -2.144  0.00  0.00    -0.299 N 
ATOM      7  C   UNL     1      -5.678   6.087  -3.608  0.00  0.00    +0.108 C 
ATOM      8  C   UNL     1      -6.979   6.866  -3.929  0.00  0.00    +0.020 C 
ATOM      9  C   UNL     1      -7.863   6.587  -2.692  0.00  0.00    +0.020 C 
ATOM     10  C   UNL     1      -6.879   6.197  -1.574  0.00  0.00    +0.108 C 
ENDROOT
BRANCH   5  11
ATOM     11  C   UNL     1      -2.617   5.859  -2.831  0.00  0.00    +0.070 A 
ATOM     12  C   UNL     1      -2.563   5.467  -4.161  0.00  0.00    +0.028 A 
ATOM     13  C   UNL     1      -1.823   6.202  -5.067  0.00  0.00    +0.002 A 
ATOM     14  C   UNL     1      -1.136   7.328  -4.650  0.00  0.00    +0.002 A 
ATOM     15  C   UNL     1      -1.189   7.722  -3.326  0.00  0.00    +0.022 A 
ATOM     16  C   UNL     1      -1.931   6.994  -2.416  0.00  0.00    +0.065 A 
ATOM     17 CL   UNL     1      -2.002   7.493  -0.755  0.00  0.00    -0.081 Cl
ENDBRANCH   5  11
BRANCH   1  18
ATOM     18  S   UNL     1      -1.277   3.408  -1.183  0.00  0.00    -0.075 S 
BRANCH  18  20
ATOM     19  C   UNL     1      -1.589   2.618   1.417  0.00  0.00    +0.028 C 
ATOM     20  C   UNL     1      -1.332   2.051   0.019  0.00  0.00    +0.119 C 
BRANCH  20  21
ATOM     21  C   UNL     1      -0.016   1.317   0.009  0.00  0.00    +0.149 A 
ATOM     22  N   UNL     1       1.117   1.997   0.002  0.00  0.00    -0.198 NA
ATOM     23  C   UNL     1       2.282   1.353  -0.012  0.00  0.00    +0.217 A 
ATOM     24  N   UNL     1       2.304   0.024  -0.020  0.00  0.00    -0.181 NA
ATOM     25  C   UNL     1       1.163  -0.656  -0.013  0.00  0.00    +0.222 A 
ATOM     26  N   UNL     1       0.002  -0.004   0.002  0.00  0.00    -0.198 NA
ATOM     27  N   UNL     1       1.181  -2.035  -0.020  0.00  0.00    -0.306 N 
ATOM     28  C   UNL     1      -0.079  -2.784  -0.011  0.00  0.00    +0.132 C 
ATOM     29  C   UNL     1       2.458  -2.752  -0.036  0.00  0.00    +0.132 C 
ATOM     30  N   UNL     1       3.465   2.063  -0.019  0.00  0.00    -0.327 N 
ATOM     31  H   UNL     1       4.427   1.530  -0.031  0.00  0.00    +0.145 HD
ATOM     32  H   UNL     1       3.446   3.163  -0.013  0.00  0.00    +0.145 HD
ENDBRANCH  20  21
ENDBRANCH  18  20
ENDBRANCH   1  18
TORSDOF 4
