REMARK  Name = ZINC39579882
REMARK  8 active torsions:
REMARK  status: ('A' for Active; 'I' for Inactive)
REMARK    1  A    between atoms: C_1  and  C_2
REMARK    2  A    between atoms: C_7  and  C_9
REMARK    3  A    between atoms: C_7  and  C_10
REMARK    4  A    between atoms: N_13  and  C_17
REMARK    5  A    between atoms: C_17  and  C_18
REMARK    6  A    between atoms: C_18  and  O_20
REMARK    7  A    between atoms: O_20  and  C_21
REMARK    8  A    between atoms: C_21  and  C_22
REMARK                            x       y       z     vdW  Elec       q    Type
REMARK                         _______ _______ _______ _____ _____    ______ ____
ROOT
ATOM      1  C   UNL     1      -0.033   1.525   0.017  0.00  0.00    +0.007 C 
ATOM      2  C   UNL     1      -0.011  -0.007   0.008  0.00  0.00    -0.011 C 
ATOM      3  C   UNL     1      -1.448  -0.533   0.026  0.00  0.00    +0.038 C 
ATOM      4  C   UNL     1      -1.438  -2.054  -0.033  0.00  0.00    +0.113 C 
ATOM      5  C   UNL     1      -0.586  -2.680   1.053  0.00  0.00    +0.041 C 
ATOM      6  C   UNL     1       0.770  -2.033   1.276  0.00  0.00    -0.032 C 
ATOM      7  C   UNL     1       0.705  -0.510   1.259  0.00  0.00    +0.009 C 
ATOM      8  C   UNL     1       1.284  -2.466   2.666  0.00  0.00    +0.011 C 
ATOM      9  C   UNL     1       1.784  -2.527   0.239  0.00  0.00    +0.011 C 
ATOM     10  C   UNL     1      -1.054  -2.537  -1.409  0.00  0.00    +0.247 C 
ATOM     11  O   UNL     1      -0.068  -2.254  -2.056  0.00  0.00    -0.273 OA
ATOM     12  N   UNL     1      -2.059  -3.347  -1.808  0.00  0.00    -0.213 N 
ATOM     13  C   UNL     1      -3.072  -3.337  -0.935  0.00  0.00    +0.310 C 
ATOM     14  O   UNL     1      -4.096  -3.975  -1.081  0.00  0.00    -0.252 OA
ATOM     15  N   UNL     1      -2.827  -2.543   0.122  0.00  0.00    -0.285 N 
ATOM     16  H   UNL     1      -3.429  -2.324   0.847  0.00  0.00    +0.151 HD
ENDROOT
BRANCH  12  17
ATOM     17  C   UNL     1      -2.038  -4.137  -3.041  0.00  0.00    +0.238 C 
BRANCH  17  18
ATOM     18  C   UNL     1      -1.437  -5.490  -2.761  0.00  0.00    +0.326 C 
ATOM     19  O   UNL     1      -1.064  -5.767  -1.646  0.00  0.00    -0.249 OA
BRANCH  18  20
ATOM     20  O   UNL     1      -1.316  -6.388  -3.751  0.00  0.00    -0.454 OA
BRANCH  20  21
ATOM     21  C   UNL     1      -0.737  -7.651  -3.415  0.00  0.00    +0.328 C 
BRANCH  21  22
ATOM     22  C   UNL     1      -0.683  -8.522  -4.643  0.00  0.00    +0.256 C 
ATOM     23  O   UNL     1      -1.099  -8.103  -5.702  0.00  0.00    -0.272 OA
ATOM     24  N   UNL     1      -0.172  -9.767  -4.564  0.00  0.00    -0.268 N 
ATOM     25  C   UNL     1      -0.218 -10.611  -5.673  0.00  0.00    +0.125 A 
ATOM     26  C   UNL     1       0.214 -11.927  -5.555  0.00  0.00    +0.045 A 
ATOM     27  C   UNL     1       0.163 -12.755  -6.663  0.00  0.00    +0.025 A 
ATOM     28  C   UNL     1      -0.321 -12.234  -7.857  0.00  0.00    +0.059 A 
ATOM     29  C   UNL     1      -0.733 -10.916  -7.902  0.00  0.00    +0.132 A 
ATOM     30  N   UNL     1      -0.677 -10.153  -6.827  0.00  0.00    -0.239 NA
ATOM     31 CL   UNL     1      -0.405 -13.229  -9.277  0.00  0.00    -0.082 Cl
ATOM     32  H   UNL     1       0.228 -10.076  -3.736  0.00  0.00    +0.156 HD
ENDBRANCH  21  22
ENDBRANCH  20  21
ENDBRANCH  18  20
ENDBRANCH  17  18
ENDBRANCH  12  17
TORSDOF 5
