REMARK  Name = ZINC65260011
REMARK  3 active torsions:
REMARK  status: ('A' for Active; 'I' for Inactive)
REMARK    1  A    between atoms: C_14  and  C_16
REMARK    2  A    between atoms: C_19  and  C_22
REMARK    3  A    between atoms: N_27  and  C_28
REMARK                            x       y       z     vdW  Elec       q    Type
REMARK                         _______ _______ _______ _____ _____    ______ ____
ROOT
ATOM      1  C   UNL     1      -0.017   1.378   0.010  0.00  0.00    +0.002 A 
ATOM      2  C   UNL     1       1.168   2.091   0.002  0.00  0.00    +0.002 A 
ATOM      3  C   UNL     1       2.380   1.425  -0.017  0.00  0.00    +0.025 A 
ATOM      4  C   UNL     1       2.407   0.039  -0.026  0.00  0.00    +0.053 A 
ATOM      5  C   UNL     1       1.213  -0.680  -0.012  0.00  0.00    +0.049 A 
ATOM      6  C   UNL     1       0.002  -0.004   0.002  0.00  0.00    +0.025 A 
ATOM      7  N   UNL     1       1.229  -2.083  -0.001  0.00  0.00    -0.329 N 
ATOM      8  C   UNL     1       2.464  -2.779  -0.383  0.00  0.00    +0.102 C 
ATOM      9  C   UNL     1       2.464  -4.194   0.192  0.00  0.00    +0.036 C 
ATOM     10  C   UNL     1       1.270  -4.975  -0.363  0.00  0.00    +0.021 C 
ATOM     11  C   UNL     1       1.387  -5.062  -1.888  0.00  0.00    +0.108 C 
ATOM     12  N   UNL     1       1.519  -3.703  -2.432  0.00  0.00    -0.297 N 
ATOM     13  C   UNL     1       2.580  -2.833  -1.906  0.00  0.00    +0.141 C 
ATOM     14  C   UNL     1       0.683  -3.263  -3.393  0.00  0.00    +0.246 C 
ATOM     15  O   UNL     1       0.802  -2.140  -3.833  0.00  0.00    -0.273 OA
ATOM     16  C   UNL     1       3.630  -1.999   0.188  0.00  0.00    +0.098 C 
ATOM     17  N   UNL     1       3.639  -0.637  -0.056  0.00  0.00    -0.301 N 
ATOM     18  N   UNL     1       4.568  -2.575   0.867  0.00  0.00    -0.372 N 
ATOM     19  H   UNL     1       0.439  -2.584   0.254  0.00  0.00    +0.147 HD
ATOM     20  H   UNL     1       4.536  -3.532   1.023  0.00  0.00    +0.161 HD
ATOM     21  H   UNL     1       4.466  -0.165  -0.241  0.00  0.00    +0.153 HD
ENDROOT
BRANCH  14  22
ATOM     22  C   UNL     1      -0.401  -4.168  -3.921  0.00  0.00    +0.238 C 
ATOM     23  C   UNL     1       0.152  -5.106  -4.980  0.00  0.00    +0.036 C 
ATOM     24  C   UNL     1      -0.535  -4.790  -6.080  0.00  0.00    +0.065 C 
ATOM     25  N   UNL     1      -1.417  -3.797  -5.826  0.00  0.00    -0.158 NA
ATOM     26  N   UNL     1      -1.414  -3.393  -4.657  0.00  0.00    -0.170 NA
BRANCH  24  27
ATOM     27  C   UNL     1      -0.352  -5.449  -7.422  0.00  0.00    +0.039 C 
ATOM     28  C   UNL     1      -1.077  -4.829  -8.619  0.00  0.00    +0.010 C 
ATOM     29  C   UNL     1      -1.564  -6.156  -8.033  0.00  0.00    +0.010 C 
ENDBRANCH  24  27
ENDBRANCH  14  22
BRANCH  18  30
ATOM     30  C   UNL     1       5.678  -1.782   1.401  0.00  0.00    +0.080 C 
ATOM     31  C   UNL     1       6.804  -1.675   0.352  0.00  0.00    +0.024 C 
ATOM     32  C   UNL     1       8.108  -1.743   1.185  0.00  0.00    +0.002 C 
ATOM     33  C   UNL     1       7.760  -2.782   2.280  0.00  0.00    +0.002 C 
ATOM     34  C   UNL     1       6.286  -2.486   2.627  0.00  0.00    +0.024 C 
ENDBRANCH  18  30
TORSDOF 3
