REMARK  Name = ZINC09241533
REMARK  14 active torsions:
REMARK  status: ('A' for Active; 'I' for Inactive)
REMARK    1  A    between atoms: C_1  and  C_2
REMARK    2  A    between atoms: C_2  and  N_61
REMARK    3  A    between atoms: C_3  and  C_4
REMARK    4  A    between atoms: C_3  and  N_61
REMARK    5  A    between atoms: C_5  and  C_6
REMARK    6  A    between atoms: C_5  and  N_61
REMARK    7  A    between atoms: C_6  and  N_7
REMARK    8  A    between atoms: C_8  and  C_26
REMARK    9  A    between atoms: C_11  and  C_12
REMARK   10  A    between atoms: C_11  and  O_21
REMARK   11  A    between atoms: C_15  and  N_18
REMARK   12  A    between atoms: C_29  and  O_34
REMARK   13  A    between atoms: C_30  and  O_32
REMARK   14  A    between atoms: O_32  and  C_33
REMARK                            x       y       z     vdW  Elec       q    Type
REMARK                         _______ _______ _______ _____ _____    ______ ____
ROOT
ATOM      1  N   UNL     1      -0.652   4.230  -2.556  0.00  0.00    -0.285 N 
ATOM      2  C   UNL     1       0.154   3.966  -3.751  0.00  0.00    +0.144 C 
ATOM      3  C   UNL     1      -0.633   4.490  -4.930  0.00  0.00    +0.071 C 
ATOM      4  C   UNL     1      -0.261   4.454  -6.258  0.00  0.00    +0.133 C 
ATOM      5  C   UNL     1      -1.818   5.026  -4.400  0.00  0.00    +0.249 C 
ATOM      6  O   UNL     1      -2.713   5.550  -5.038  0.00  0.00    -0.282 OA
ATOM      7  C   UNL     1      -1.790   4.844  -2.923  0.00  0.00    +0.288 C 
ATOM      8  O   UNL     1      -2.665   5.199  -2.161  0.00  0.00    -0.266 OA
ENDROOT
BRANCH   4   9
ATOM      9  C   UNL     1      -1.210   4.881  -7.301  0.00  0.00    +0.017 A 
ATOM     10  C   UNL     1      -2.504   4.353  -7.332  0.00  0.00    +0.014 A 
ATOM     11  C   UNL     1      -3.388   4.761  -8.308  0.00  0.00    +0.033 A 
ATOM     12  C   UNL     1      -2.993   5.683  -9.262  0.00  0.00    +0.126 A 
ATOM     13  C   UNL     1      -1.712   6.206  -9.242  0.00  0.00    +0.033 A 
ATOM     14  C   UNL     1      -0.818   5.812  -8.268  0.00  0.00    +0.014 A 
BRANCH  12  15
ATOM     15  N   UNL     1      -3.946   6.111 -10.311  0.00  0.00    +0.056 N 
ATOM     16  O   UNL     1      -3.602   6.922 -11.152  0.00  0.00    -0.126 OA
ATOM     17  O   UNL     1      -5.074   5.653 -10.332  0.00  0.00    -0.126 OA
ENDBRANCH  12  15
ENDBRANCH   4   9
BRANCH   2  18
ATOM     18  C   UNL     1       0.382   2.484  -3.904  0.00  0.00    -0.019 A 
ATOM     19  C   UNL     1      -0.642   1.597  -3.627  0.00  0.00    +0.009 A 
ATOM     20  C   UNL     1      -0.440   0.237  -3.771  0.00  0.00    +0.049 A 
ATOM     21  C   UNL     1       0.794  -0.240  -4.182  0.00  0.00    +0.158 A 
ATOM     22  C   UNL     1       1.826   0.652  -4.455  0.00  0.00    +0.162 A 
ATOM     23  C   UNL     1       1.615   2.014  -4.314  0.00  0.00    +0.055 A 
BRANCH  22  24
ATOM     24  O   UNL     1       3.039   0.188  -4.859  0.00  0.00    -0.491 OA
ATOM     25  C   UNL     1       4.051   1.162  -5.122  0.00  0.00    +0.277 C 
ENDBRANCH  22  24
BRANCH  21  26
ATOM     26  O   UNL     1       0.996  -1.578  -4.319  0.00  0.00    -0.503 OA
ATOM     27  H   UNL     1       1.317  -2.011  -3.516  0.00  0.00    +0.292 HD
ENDBRANCH  21  26
ENDBRANCH   2  18
BRANCH   4  28
ATOM     28  O   UNL     1       0.973   4.027  -6.601  0.00  0.00    -0.506 OA
ATOM     29  H   UNL     1       1.074   4.065  -7.595  0.00  0.00    +0.292 HD
ENDBRANCH   4  28
BRANCH   1  30
ATOM     30  C   UNL     1      -0.277   3.884  -1.183  0.00  0.00    +0.090 C 
BRANCH  30  31
ATOM     31  C   UNL     1      -0.791   2.482  -0.851  0.00  0.00    -0.060 C 
BRANCH  31  32
ATOM     32  N   UNL     1      -0.541   2.210   0.580  0.00  0.00    +0.380 N 
ATOM     33  H   UNL     1      -0.896   2.996   1.137  0.00  0.00    -0.082 HD
BRANCH  32  35
ATOM     34  C   UNL     1      -1.154   0.839   2.511  0.00  0.00    -0.017 C 
ATOM     35  C   UNL     1      -1.243   0.976   0.990  0.00  0.00    -0.082 C 
ENDBRANCH  32  35
BRANCH  32  36
ATOM     36  C   UNL     1       0.911   2.068   0.821  0.00  0.00    -0.082 C 
ATOM     37  C   UNL     1       1.473   0.884   0.031  0.00  0.00    -0.017 C 
ENDBRANCH  32  36
ENDBRANCH  31  32
ENDBRANCH  30  31
ENDBRANCH   1  30
TORSDOF 11
