REMARK  Name = ZINC09201601
REMARK  9 active torsions:
REMARK  status: ('A' for Active; 'I' for Inactive)
REMARK    1  A    between atoms: C_1  and  C_2
REMARK    2  A    between atoms: C_4  and  C_8
REMARK    3  A    between atoms: N_5  and  C_7
REMARK    4  A    between atoms: N_10  and  CA_11
REMARK    5  A    between atoms: CA_18  and  C_27
REMARK    6  A    between atoms: C_19  and  C_22
REMARK    7  A    between atoms: C_22  and  O_23
REMARK    8  A    between atoms: O_23  and  C_24
REMARK    9  A    between atoms: C_24  and  C_26
REMARK                            x       y       z     vdW  Elec       q    Type
REMARK                         _______ _______ _______ _____ _____    ______ ____
ROOT
ATOM      1  CA  UNL     1      -3.206   3.816  -3.719  0.00  0.00    +0.191 C 
ATOM      2  C   UNL     1      -2.541   2.468  -3.461  0.00  0.00    +0.169 C 
ATOM      3  N   UNL     1      -2.607   2.845  -2.013  0.00  0.00    -0.249 N 
ATOM      4  C   UNL     1      -3.397   3.914  -2.215  0.00  0.00    +0.244 C 
ATOM      5  O   UNL     1      -4.016   4.660  -1.486  0.00  0.00    -0.273 OA
ATOM      6  CA  UNL     1      -1.875   2.262  -0.966  0.00  0.00    +0.130 C 
ATOM      7  C   UNL     1      -0.764   1.589  -1.222  0.00  0.00    +0.006 C 
ATOM      8  C   UNL     1      -0.151   1.280  -2.549  0.00  0.00    +0.107 C 
ATOM      9  S   UNL     1      -0.761   2.387  -3.858  0.00  0.00    -0.131 S 
ENDROOT
BRANCH   1  12
ATOM     10  C   UNL     1      -4.898   4.766  -5.193  0.00  0.00    +0.264 C 
ATOM     11  O   UNL     1      -4.205   5.760  -5.303  0.00  0.00    -0.268 OA
ATOM     12  N   UNL     1      -4.462   3.718  -4.466  0.00  0.00    -0.296 N 
ATOM     13  H   UNL     1      -4.981   2.898  -4.438  0.00  0.00    +0.150 HD
BRANCH  10  17
ATOM     14  C   UNL     1      -9.806   5.329  -6.341  0.00  0.00    +0.069 C 
ATOM     15  C   UNL     1      -8.350   4.944  -6.369  0.00  0.00    +0.079 A 
ATOM     16  C   UNL     1      -7.394   5.269  -5.401  0.00  0.00    +0.094 A 
ATOM     17  C   UNL     1      -6.211   4.708  -5.853  0.00  0.00    +0.142 A 
ATOM     18  N   UNL     1      -6.510   4.085  -7.033  0.00  0.00    -0.261 N 
ATOM     19  N   UNL     1      -7.756   4.242  -7.300  0.00  0.00    -0.175 NA
ATOM     20  C   UNL     1      -5.554   3.350  -7.866  0.00  0.00    +0.173 C 
ATOM     21 CL   UNL     1      -7.638   6.183  -3.946  0.00  0.00    -0.079 Cl
ENDBRANCH  10  17
ENDBRANCH   1  12
BRANCH   6  22
ATOM     22  C   UNL     1      -2.343   2.404   0.425  0.00  0.00    +0.401 C 
ATOM     23  O   UNL     1      -3.418   2.920   0.655  0.00  0.00    -0.239 OA
ATOM     24  OXT UNL     1      -1.577   1.961   1.442  0.00  0.00    -0.239 OA
ENDBRANCH   6  22
BRANCH   7  25
ATOM     25  C   UNL     1      -0.024   1.062  -0.020  0.00  0.00    +0.266 C 
BRANCH  25  26
ATOM     26  O   UNL     1       1.115   0.276  -0.459  0.00  0.00    -0.460 OA
BRANCH  26  27
ATOM     27  C   UNL     1       1.824  -0.353   0.492  0.00  0.00    +0.304 C 
ATOM     28  O   UNL     1       1.451  -0.326   1.641  0.00  0.00    -0.251 OA
ATOM     29  C   UNL     1       3.084  -1.094   0.126  0.00  0.00    +0.136 C 
ENDBRANCH  26  27
ENDBRANCH  25  26
ENDBRANCH   7  25
TORSDOF 6
