REMARK  Name = ZINC63294916
REMARK  5 active torsions:
REMARK  status: ('A' for Active; 'I' for Inactive)
REMARK    1  A    between atoms: N_17  and  C_18
REMARK    2  A    between atoms: C_18  and  C_19
REMARK    3  A    between atoms: C_19  and  C_20
REMARK    4  A    between atoms: C_25  and  C_28
REMARK    5  A    between atoms: C_25  and  O_35
REMARK                            x       y       z     vdW  Elec       q    Type
REMARK                         _______ _______ _______ _____ _____    ______ ____
ROOT
ATOM      1  C   UNL     1       3.405  -7.726  -0.822  0.00  0.00    +0.115 C 
ENDROOT
BRANCH   1  17
ATOM      2  C   UNL     1      -0.019   1.345   0.015  0.00  0.00    +0.001 A 
ATOM      3  C   UNL     1       1.162   2.099   0.011  0.00  0.00    +0.002 A 
ATOM      4  C   UNL     1       2.387   1.532   0.000  0.00  0.00    +0.026 A 
ATOM      5  C   UNL     1       2.526   0.118  -0.008  0.00  0.00    +0.043 A 
ATOM      6  N   UNL     1       3.589  -0.655  -0.039  0.00  0.00    -0.376 N 
ATOM      7  C   UNL     1       3.153  -2.047   0.045  0.00  0.00    +0.124 C 
ATOM      8  C   UNL     1       3.651  -2.874  -1.145  0.00  0.00    +0.138 C 
ATOM      9  N   UNL     1       2.856  -4.111  -1.199  0.00  0.00    -0.283 N 
ATOM     10  C   UNL     1       1.399  -4.056  -1.362  0.00  0.00    +0.114 C 
ATOM     11  C   UNL     1       0.789  -3.239  -0.209  0.00  0.00    +0.052 C 
ATOM     12  C   UNL     1       1.636  -2.000  -0.029  0.00  0.00    -0.036 C 
ATOM     13  C   UNL     1       1.291  -0.704  -0.011  0.00  0.00    -0.001 A 
ATOM     14  C   UNL     1      -0.001  -0.006   0.005  0.00  0.00    +0.010 A 
ATOM     15  C   UNL     1       3.472  -5.306  -1.099  0.00  0.00    +0.302 C 
ATOM     16  O   UNL     1       4.686  -5.362  -1.058  0.00  0.00    -0.253 OA
ATOM     17  N   UNL     1       2.743  -6.438  -1.042  0.00  0.00    -0.299 N 
ATOM     18  H   UNL     1       1.779  -6.399  -1.148  0.00  0.00    +0.150 HD
ATOM     19  H   UNL     1       4.508  -0.352  -0.106  0.00  0.00    +0.160 HD
ENDBRANCH   1  17
BRANCH   1  20
ATOM     20  C   UNL     1       2.357  -8.841  -0.801  0.00  0.00    +0.114 C 
BRANCH  20  21
ATOM     21  C   UNL     1       3.038 -10.166  -0.574  0.00  0.00    +0.217 C 
ATOM     22  O   UNL     1       4.243 -10.213  -0.442  0.00  0.00    -0.276 OA
ATOM     23  N   UNL     1       2.309 -11.297  -0.518  0.00  0.00    -0.301 N 
ATOM     24  C   UNL     1       0.849 -11.256  -0.682  0.00  0.00    +0.111 C 
ATOM     25  C   UNL     1       0.450 -12.235  -1.792  0.00  0.00    +0.058 C 
ATOM     26  C   UNL     1       1.007 -13.623  -1.466  0.00  0.00    +0.094 C 
ATOM     27  C   UNL     1       2.535 -13.559  -1.405  0.00  0.00    +0.058 C 
ATOM     28  C   UNL     1       2.958 -12.597  -0.298  0.00  0.00    +0.111 C 
BRANCH  26  29
ATOM     29  C   UNL     1       0.587 -14.596  -2.538  0.00  0.00    -0.016 A 
ATOM     30  C   UNL     1       0.395 -14.155  -3.834  0.00  0.00    +0.008 A 
ATOM     31  C   UNL     1       0.010 -15.047  -4.818  0.00  0.00    +0.020 A 
ATOM     32  C   UNL     1      -0.182 -16.381  -4.505  0.00  0.00    +0.041 A 
ATOM     33  C   UNL     1       0.011 -16.821  -3.207  0.00  0.00    +0.020 A 
ATOM     34  C   UNL     1       0.401 -15.929  -2.226  0.00  0.00    +0.008 A 
ATOM     35 CL   UNL     1      -0.666 -17.501  -5.739  0.00  0.00    -0.084 Cl
ENDBRANCH  26  29
BRANCH  26  36
ATOM     36  O   UNL     1       0.497 -14.057  -0.204  0.00  0.00    -0.384 OA
ATOM     37  H   UNL     1       0.809 -14.931   0.067  0.00  0.00    +0.211 HD
ENDBRANCH  26  36
ENDBRANCH  20  21
ENDBRANCH   1  20
TORSDOF 5
