REMARK  Name = ZINC12760327
REMARK  6 active torsions:
REMARK  status: ('A' for Active; 'I' for Inactive)
REMARK    1  A    between atoms: C_9  and  S_11
REMARK    2  A    between atoms: S_11  and  C_12
REMARK    3  A    between atoms: C_12  and  C_13
REMARK    4  A    between atoms: C_16  and  C_19
REMARK    5  A    between atoms: N_21  and  N_22
REMARK    6  A    between atoms: C_23  and  C_25
REMARK                            x       y       z     vdW  Elec       q    Type
REMARK                         _______ _______ _______ _____ _____    ______ ____
ROOT
ATOM      1  C   UNL     1      10.832   3.758  -0.079  0.00  0.00    -0.037 A 
ATOM      2  C   UNL     1      10.862   2.375  -0.087  0.00  0.00    +0.005 A 
ATOM      3  C   UNL     1       9.684   1.657  -0.080  0.00  0.00    +0.013 A 
ATOM      4  C   UNL     1       8.461   2.329  -0.065  0.00  0.00    +0.038 A 
ATOM      5  C   UNL     1       8.438   3.725  -0.062  0.00  0.00    +0.013 A 
ATOM      6  C   UNL     1       9.623   4.431  -0.064  0.00  0.00    +0.005 A 
ENDROOT
BRANCH   4   7
ATOM      7  C   UNL     1       7.194   1.566  -0.057  0.00  0.00    +0.260 C 
ATOM      8  O   UNL     1       7.217   0.351  -0.064  0.00  0.00    -0.269 OA
ATOM      9  N   UNL     1       6.015   2.218  -0.042  0.00  0.00    -0.230 N 
ATOM     10  H   UNL     1       5.997   3.188  -0.037  0.00  0.00    +0.173 HD
BRANCH   9  11
ATOM     11  N   UNL     1       4.815   1.495  -0.035  0.00  0.00    -0.230 N 
ATOM     12  C   UNL     1       3.635   2.147  -0.020  0.00  0.00    +0.263 C 
ATOM     13  O   UNL     1       3.613   3.363  -0.013  0.00  0.00    -0.269 OA
ATOM     14  H   UNL     1       4.833   0.525  -0.041  0.00  0.00    +0.173 HD
BRANCH  12  15
ATOM     15  C   UNL     1       2.376   1.387  -0.013  0.00  0.00    +0.069 A 
ATOM     16  C   UNL     1       2.387  -0.006  -0.021  0.00  0.00    +0.017 A 
ATOM     17  C   UNL     1       1.172  -0.692  -0.013  0.00  0.00    +0.018 A 
ATOM     18  C   UNL     1       0.002  -0.004   0.002  0.00  0.00    +0.083 A 
ATOM     19  N   UNL     1      -0.016   1.350   0.009  0.00  0.00    -0.355 N 
ATOM     20  H   UNL     1      -0.867   1.816   0.016  0.00  0.00    +0.166 HD
ATOM     21  C   UNL     1       1.128   2.061   0.002  0.00  0.00    +0.097 A 
ATOM     22  S   UNL     1       1.075   3.772   0.011  0.00  0.00    -0.032 S 
ENDBRANCH  12  15
ENDBRANCH   9  11
ENDBRANCH   4   7
BRANCH   1  23
ATOM     23  C   UNL     1      12.123   4.536  -0.087  0.00  0.00    +0.112 C 
BRANCH  23  24
ATOM     24  S   UNL     1      12.623   4.857  -1.797  0.00  0.00    -0.083 S 
BRANCH  24  33
ATOM     25  C   UNL     1      18.002   8.095  -1.415  0.00  0.00    +0.002 A 
ATOM     26  C   UNL     1      17.790   7.952  -0.051  0.00  0.00    +0.002 A 
ATOM     27  C   UNL     1      16.684   7.279   0.417  0.00  0.00    +0.030 A 
ATOM     28  C   UNL     1      15.768   6.736  -0.487  0.00  0.00    +0.090 A 
ATOM     29  C   UNL     1      15.987   6.884  -1.867  0.00  0.00    +0.067 A 
ATOM     30  C   UNL     1      17.106   7.565  -2.321  0.00  0.00    +0.028 A 
ATOM     31  N   UNL     1      14.926   6.253  -2.496  0.00  0.00    -0.333 N 
ATOM     32  H   UNL     1      14.782   6.177  -3.482  0.00  0.00    +0.168 HD
ATOM     33  C   UNL     1      14.115   5.753  -1.517  0.00  0.00    +0.168 A 
ATOM     34  N   UNL     1      14.608   6.043  -0.338  0.00  0.00    -0.222 NA
ENDBRANCH  24  33
ENDBRANCH  23  24
ENDBRANCH   1  23
TORSDOF 6
