REMARK  Name = ZINC09300035
REMARK  8 active torsions:
REMARK  status: ('A' for Active; 'I' for Inactive)
REMARK    1  A    between atoms: C_1  and  C_2
REMARK    2  A    between atoms: C_5  and  C_38
REMARK    3  A    between atoms: N_8  and  S_10
REMARK    4  A    between atoms: S_10  and  C_13
REMARK    5  A    between atoms: C_16  and  C_19
REMARK    6  A    between atoms: C_19  and  N_21
REMARK    7  A    between atoms: N_23  and  C_35
REMARK    8  A    between atoms: C_35  and  C_36
REMARK                            x       y       z     vdW  Elec       q    Type
REMARK                         _______ _______ _______ _____ _____    ______ ____
ROOT
ATOM      1  C   UNL     1      -3.175   9.020  -3.933  0.00  0.00    +0.269 C 
ATOM      2  O   UNL     1      -3.100   9.375  -2.769  0.00  0.00    -0.268 OA
ENDROOT
BRANCH   1   3
ATOM      3  N   UNL     1      -2.878   7.761  -4.268  0.00  0.00    -0.152 NA
ATOM      4  C   UNL     1      -2.501   6.896  -3.333  0.00  0.00    +0.167 A 
ATOM      5  N   UNL     1      -2.162   5.587  -3.481  0.00  0.00    -0.317 N 
ATOM      6  C   UNL     1      -1.792   4.836  -2.379  0.00  0.00    +0.062 A 
ATOM      7  C   UNL     1      -1.415   3.485  -2.334  0.00  0.00    +0.076 A 
ATOM      8  C   UNL     1      -1.073   2.881  -1.141  0.00  0.00    +0.164 A 
ATOM      9  C   UNL     1      -1.093   3.602   0.051  0.00  0.00    +0.163 A 
ATOM     10  C   UNL     1      -1.463   4.938   0.031  0.00  0.00    +0.066 A 
ATOM     11  C   UNL     1      -1.803   5.532  -1.162  0.00  0.00    +0.043 A 
ATOM     12  S   UNL     1      -2.322   7.164  -1.629  0.00  0.00    -0.052 S 
ATOM     13  O   UNL     1      -0.752   3.018   1.231  0.00  0.00    -0.485 OA
ATOM     14  C   UNL     1      -0.742   1.586   1.262  0.00  0.00    +0.270 C 
ATOM     15  C   UNL     1      -0.013   1.086   0.008  0.00  0.00    +0.270 C 
ATOM     16  O   UNL     1      -0.715   1.565  -1.143  0.00  0.00    -0.485 OA
BRANCH   5  17
ATOM     17  C   UNL     1      -2.188   4.971  -4.810  0.00  0.00    +0.151 C 
BRANCH  17  18
ATOM     18  C   UNL     1      -3.242   5.641  -5.654  0.00  0.00    -0.013 C 
ATOM     19  C   UNL     1      -2.922   6.155  -6.815  0.00  0.00    +0.005 C 
ENDBRANCH  17  18
ENDBRANCH   5  17
ENDBRANCH   1   3
BRANCH   1  23
ATOM     20  C   UNL     1      -4.381  11.787  -6.925  0.00  0.00    +0.106 A 
ATOM     21  C   UNL     1      -4.298  12.193  -5.605  0.00  0.00    +0.029 A 
ATOM     22  C   UNL     1      -3.907  11.299  -4.629  0.00  0.00    +0.015 A 
ATOM     23  C   UNL     1      -3.596   9.985  -4.976  0.00  0.00    +0.039 A 
ATOM     24  C   UNL     1      -3.677   9.583  -6.309  0.00  0.00    +0.015 A 
ATOM     25  C   UNL     1      -4.074  10.485  -7.275  0.00  0.00    +0.029 A 
BRANCH  20  26
ATOM     26  S   UNL     1      -4.881  12.935  -8.165  0.00  0.00    +0.061 S 
ATOM     27  O   UNL     1      -5.406  12.168  -9.240  0.00  0.00    -0.153 OA
ATOM     28  O   UNL     1      -5.638  13.941  -7.506  0.00  0.00    -0.153 OA
BRANCH  26  34
ATOM     29  C   UNL     1      -0.962  16.012  -7.198  0.00  0.00    +0.009 C 
ATOM     30  C   UNL     1      -1.540  14.697  -7.724  0.00  0.00    +0.002 C 
ATOM     31  C   UNL     1      -0.751  14.249  -8.957  0.00  0.00    +0.009 C 
ATOM     32  C   UNL     1      -1.307  12.917  -9.464  0.00  0.00    +0.002 C 
ATOM     33  C   UNL     1      -2.773  13.102  -9.870  0.00  0.00    +0.112 C 
ATOM     34  N   UNL     1      -3.510  13.670  -8.733  0.00  0.00    -0.176 NA
ATOM     35  C   UNL     1      -3.012  14.905  -8.114  0.00  0.00    +0.112 C 
ATOM     36  C   UNL     1      -1.213  11.868  -8.355  0.00  0.00    +0.009 C 
ENDBRANCH  26  34
ENDBRANCH  20  26
ENDBRANCH   1  23
TORSDOF 6
