REMARK  Name = ZINC14067877
REMARK  8 active torsions:
REMARK  status: ('A' for Active; 'I' for Inactive)
REMARK    1  A    between atoms: C_1  and  C_2
REMARK    2  A    between atoms: C_2  and  N_3
REMARK    3  A    between atoms: N_3  and  C_4
REMARK    4  A    between atoms: C_4  and  C_5
REMARK    5  A    between atoms: C_14  and  C_16
REMARK    6  A    between atoms: C_16  and  N_17
REMARK    7  A    between atoms: C_20  and  C_25
REMARK    8  A    between atoms: C_25  and  C_26
REMARK                            x       y       z     vdW  Elec       q    Type
REMARK                         _______ _______ _______ _____ _____    ______ ____
ROOT
ATOM      1  N   UNL     1      -1.137   1.940   0.018  0.00  0.00    -0.216 N 
ATOM      2  C   UNL     1      -0.871   3.261   0.028  0.00  0.00    +0.244 C 
ATOM      3  O   UNL     1      -1.675   4.169   0.040  0.00  0.00    -0.273 OA
ATOM      4  C   UNL     1       0.640   3.376   0.014  0.00  0.00    +0.165 C 
ATOM      5  N   UNL     1       1.094   1.974   0.002  0.00  0.00    -0.287 N 
ATOM      6  C   UNL     1      -0.014   1.211   0.009  0.00  0.00    +0.310 C 
ATOM      7  O   UNL     1       0.002  -0.004   0.002  0.00  0.00    -0.252 OA
ATOM      8  H   UNL     1       2.012   1.662  -0.008  0.00  0.00    +0.151 HD
ENDROOT
BRANCH   1   9
ATOM      9  C   UNL     1      -2.487   1.371   0.020  0.00  0.00    +0.213 C 
BRANCH   9  11
ATOM     10  N   UNL     1      -4.165   0.653   1.689  0.00  0.00    -0.296 N 
ATOM     11  C   UNL     1      -2.944   1.168   1.441  0.00  0.00    +0.234 C 
ATOM     12  O   UNL     1      -2.214   1.469   2.362  0.00  0.00    -0.274 OA
BRANCH  10  14
ATOM     13  C   UNL     1      -4.794  -1.166   0.180  0.00  0.00    +0.024 C 
ATOM     14  C   UNL     1      -5.046   0.290   0.577  0.00  0.00    +0.105 C 
ENDBRANCH  10  14
BRANCH  10  15
ATOM     15  C   UNL     1      -4.609   0.456   3.071  0.00  0.00    +0.143 C 
BRANCH  15  16
ATOM     16  C   UNL     1      -5.313   1.698   3.554  0.00  0.00    -0.026 A 
ATOM     17  C   UNL     1      -4.593   2.700   4.178  0.00  0.00    +0.009 A 
ATOM     18  C   UNL     1      -5.234   3.843   4.619  0.00  0.00    +0.050 A 
ATOM     19  C   UNL     1      -6.601   3.982   4.446  0.00  0.00    +0.166 A 
ATOM     20  C   UNL     1      -7.327   2.970   3.821  0.00  0.00    +0.167 A 
ATOM     21  C   UNL     1      -6.678   1.830   3.378  0.00  0.00    +0.054 A 
ATOM     22  O   UNL     1      -8.639   3.342   3.772  0.00  0.00    -0.453 OA
ATOM     23  C   UNL     1      -8.646   4.763   4.003  0.00  0.00    +0.466 C 
ATOM     24  O   UNL     1      -7.459   4.988   4.787  0.00  0.00    -0.453 OA
ENDBRANCH  15  16
ENDBRANCH  10  15
ENDBRANCH   9  11
ENDBRANCH   1   9
BRANCH   4  25
ATOM     25  C   UNL     1       1.113   4.105  -1.245  0.00  0.00    +0.069 C 
BRANCH  25  26
ATOM     26  C   UNL     1       2.616   4.218  -1.225  0.00  0.00    -0.020 A 
ATOM     27  C   UNL     1       3.332   5.263  -0.781  0.00  0.00    +0.087 A 
ATOM     28  N   UNL     1       4.669   5.006  -0.920  0.00  0.00    -0.360 N 
ATOM     29  H   UNL     1       5.382   5.613  -0.668  0.00  0.00    +0.165 HD
ATOM     30  C   UNL     1       4.850   3.757  -1.471  0.00  0.00    +0.047 A 
ATOM     31  C   UNL     1       3.572   3.207  -1.681  0.00  0.00    +0.003 A 
ATOM     32  C   UNL     1       3.445   1.934  -2.241  0.00  0.00    +0.010 A 
ATOM     33  C   UNL     1       4.565   1.225  -2.574  0.00  0.00    +0.001 A 
ATOM     34  C   UNL     1       5.827   1.761  -2.364  0.00  0.00    +0.002 A 
ATOM     35  C   UNL     1       5.976   3.017  -1.817  0.00  0.00    +0.026 A 
ENDBRANCH  25  26
ENDBRANCH   4  25
TORSDOF 7
