REMARK  Name = ZINC09683016
REMARK  9 active torsions:
REMARK  status: ('A' for Active; 'I' for Inactive)
REMARK    1  A    between atoms: C_1  and  C_2
REMARK    2  A    between atoms: C_2  and  C_22
REMARK    3  A    between atoms: C_4  and  C_11
REMARK    4  A    between atoms: C_14  and  S_17
REMARK    5  A    between atoms: S_17  and  N_20
REMARK    6  A    between atoms: N_20  and  C_21
REMARK    7  A    between atoms: C_25  and  S_28
REMARK    8  A    between atoms: S_28  and  N_31
REMARK    9  A    between atoms: N_31  and  C_32
REMARK                            x       y       z     vdW  Elec       q    Type
REMARK                         _______ _______ _______ _____ _____    ______ ____
ROOT
ATOM      1  C   UNL     1       6.644   2.298  -0.063  0.00  0.00    +0.041 C 
ATOM      2  C   UNL     1       5.718   3.516  -0.034  0.00  0.00    +0.078 C 
ATOM      3  C   UNL     1       5.990   4.314   1.212  0.00  0.00    +0.031 C 
ATOM      4  C   UNL     1       5.885   5.647   1.236  0.00  0.00    +0.074 C 
ATOM      5  N   UNL     1       5.541   6.301   0.049  0.00  0.00    -0.200 N 
ATOM      6  C   UNL     1       5.582   5.668  -1.158  0.00  0.00    +0.219 A 
ATOM      7  N   UNL     1       5.230   6.524  -2.071  0.00  0.00    -0.201 NA
ATOM      8  C   UNL     1       4.951   7.701  -1.497  0.00  0.00    +0.247 A 
ATOM      9  N   UNL     1       5.128   7.603  -0.201  0.00  0.00    -0.152 NA
ATOM     10  N   UNL     1       5.953   4.333  -1.236  0.00  0.00    -0.301 N 
ATOM     11  H   UNL     1       6.346   3.959  -2.040  0.00  0.00    +0.150 HD
ENDROOT
BRANCH   4  12
ATOM     12  C   UNL     1       6.124   6.408   2.483  0.00  0.00    +0.000 A 
ATOM     13  C   UNL     1       5.272   6.249   3.575  0.00  0.00    +0.012 A 
ATOM     14  C   UNL     1       5.505   6.956   4.737  0.00  0.00    +0.029 A 
ATOM     15  C   UNL     1       6.574   7.831   4.815  0.00  0.00    +0.105 A 
ATOM     16  C   UNL     1       7.419   7.998   3.733  0.00  0.00    +0.029 A 
ATOM     17  C   UNL     1       7.200   7.292   2.568  0.00  0.00    +0.012 A 
BRANCH  15  18
ATOM     18  S   UNL     1       6.859   8.736   6.300  0.00  0.00    +0.058 S 
ATOM     19  O   UNL     1       6.252   7.997   7.350  0.00  0.00    -0.153 OA
ATOM     20  O   UNL     1       8.239   9.078   6.308  0.00  0.00    -0.153 OA
BRANCH  18  21
ATOM     21  N   UNL     1       6.020  10.159   6.176  0.00  0.00    -0.193 NA
ATOM     22  C   UNL     1       4.556  10.142   6.116  0.00  0.00    +0.127 C 
ATOM     23  H   UNL     1       6.497  11.002   6.142  0.00  0.00    +0.148 HD
ENDBRANCH  18  21
ENDBRANCH  15  18
ENDBRANCH   4  12
BRANCH   2  24
ATOM     24  C   UNL     1       4.285   3.050  -0.022  0.00  0.00    -0.020 A 
ATOM     25  C   UNL     1       3.616   2.842  -1.214  0.00  0.00    +0.008 A 
ATOM     26  C   UNL     1       2.301   2.415  -1.204  0.00  0.00    +0.029 A 
ATOM     27  C   UNL     1       1.655   2.196  -0.002  0.00  0.00    +0.105 A 
ATOM     28  C   UNL     1       2.323   2.408   1.190  0.00  0.00    +0.029 A 
ATOM     29  C   UNL     1       3.639   2.830   1.180  0.00  0.00    +0.008 A 
BRANCH  27  30
ATOM     30  S   UNL     1      -0.020   1.652   0.011  0.00  0.00    +0.058 S 
ATOM     31  O   UNL     1      -0.589   2.057  -1.227  0.00  0.00    -0.153 OA
ATOM     32  O   UNL     1      -0.565   2.044   1.264  0.00  0.00    -0.153 OA
BRANCH  30  33
ATOM     33  N   UNL     1       0.002  -0.004   0.002  0.00  0.00    -0.193 NA
ATOM     34  C   UNL     1       0.559  -0.735   1.143  0.00  0.00    +0.127 C 
ATOM     35  H   UNL     1      -0.354  -0.490  -0.759  0.00  0.00    +0.148 HD
ENDBRANCH  30  33
ENDBRANCH  27  30
ENDBRANCH   2  24
TORSDOF 6
