REMARK  Name = ZINC20574717
REMARK  4 active torsions:
REMARK  status: ('A' for Active; 'I' for Inactive)
REMARK    1  A    between atoms: C_3  and  N_8
REMARK    2  A    between atoms: N_8  and  S_9
REMARK    3  A    between atoms: S_9  and  C_12
REMARK    4  A    between atoms: C_15  and  C_17
REMARK                            x       y       z     vdW  Elec       q    Type
REMARK                         _______ _______ _______ _____ _____    ______ ____
ROOT
ATOM      1  C   UNL     1      -2.693  -0.406   0.388  0.00  0.00    +0.148 A 
ATOM      2  C   UNL     1      -3.469  -1.136  -0.454  0.00  0.00    +0.037 A 
ATOM      3  C   UNL     1      -4.714  -0.661  -0.801  0.00  0.00    +0.020 A 
ATOM      4  C   UNL     1      -5.125   0.542  -0.290  0.00  0.00    +0.041 A 
ATOM      5  S   UNL     1      -3.725   1.014   0.712  0.00  0.00    -0.067 S 
ENDROOT
BRANCH   4   6
ATOM      6  C   UNL     1      -6.397   1.261  -0.510  0.00  0.00    +0.098 A 
ATOM      7  C   UNL     1      -6.622   2.508   0.123  0.00  0.00    +0.036 A 
ATOM      8  C   UNL     1      -7.806   3.142  -0.104  0.00  0.00    +0.073 A 
ATOM      9  C   UNL     1      -8.740   2.515  -0.960  0.00  0.00    +0.265 A 
ATOM     10  O   UNL     1      -9.814   3.046  -1.192  0.00  0.00    -0.266 OA
ATOM     11  N   UNL     1      -8.436   1.328  -1.517  0.00  0.00    -0.243 N 
ATOM     12  H   UNL     1      -9.159   0.831  -2.181  0.00  0.00    +0.192 HD
ATOM     13  N   UNL     1      -7.314   0.745  -1.298  0.00  0.00    -0.170 NA
ENDBRANCH   4   6
BRANCH   1  14
ATOM     14  S   UNL     1      -1.079  -0.765   0.999  0.00  0.00    +0.098 S 
ATOM     15  O   UNL     1      -0.879  -2.161   0.822  0.00  0.00    -0.148 OA
ATOM     16  O   UNL     1      -0.976  -0.136   2.268  0.00  0.00    -0.148 OA
BRANCH  14  17
ATOM     17  N   UNL     1       0.002  -0.003   0.003  0.00  0.00    -0.097 NA
BRANCH  17  20
ATOM     18  C   UNL     1       0.171   0.316  -3.655  0.00  0.00    +0.005 A 
ATOM     19  C   UNL     1       0.109   0.654  -2.317  0.00  0.00    +0.027 A 
ATOM     20  C   UNL     1       0.065  -0.343  -1.350  0.00  0.00    +0.077 A 
ATOM     21  C   UNL     1       0.089  -1.678  -1.732  0.00  0.00    +0.065 A 
ATOM     22  C   UNL     1       0.146  -2.011  -3.073  0.00  0.00    +0.125 A 
ATOM     23  C   UNL     1       0.190  -1.013  -4.034  0.00  0.00    +0.038 A 
ATOM     24  F   UNL     1       0.165  -3.309  -3.447  0.00  0.00    -0.205 F 
ENDBRANCH  17  20
ENDBRANCH  14  17
ENDBRANCH   1  14
TORSDOF 4
