REMARK  Name = ZINC46660284
REMARK  4 active torsions:
REMARK  status: ('A' for Active; 'I' for Inactive)
REMARK    1  A    between atoms: C_1  and  C_2
REMARK    2  A    between atoms: C_5  and  S_8
REMARK    3  A    between atoms: S_8  and  N_11
REMARK    4  A    between atoms: C_17  and  C_19
REMARK                            x       y       z     vdW  Elec       q    Type
REMARK                         _______ _______ _______ _____ _____    ______ ____
ROOT
ATOM      1  N   UNL     1       1.798  -5.950   0.293  0.00  0.00    -0.174 NA
ATOM      2  C   UNL     1       2.482  -6.168  -0.989  0.00  0.00    +0.128 C 
ATOM      3  C   UNL     1       3.485  -5.030  -1.209  0.00  0.00    +0.125 C 
ATOM      4  N   UNL     1       4.294  -4.875   0.008  0.00  0.00    -0.295 N 
ATOM      5  C   UNL     1       3.610  -4.656   1.290  0.00  0.00    +0.125 C 
ATOM      6  C   UNL     1       2.607  -5.789   1.510  0.00  0.00    +0.128 C 
ATOM      7  C   UNL     1       5.640  -4.932  -0.050  0.00  0.00    +0.247 C 
ATOM      8  O   UNL     1       6.300  -4.734   0.950  0.00  0.00    -0.270 OA
ENDROOT
BRANCH   7   9
ATOM      9  C   UNL     1       6.313  -5.237  -1.334  0.00  0.00    +0.039 A 
ATOM     10  C   UNL     1       5.986  -4.499  -2.483  0.00  0.00    +0.014 A 
ATOM     11  C   UNL     1       6.591  -4.760  -3.675  0.00  0.00    +0.016 A 
ATOM     12  C   UNL     1       7.552  -5.777  -3.762  0.00  0.00    +0.065 A 
ATOM     13  C   UNL     1       7.893  -6.531  -2.608  0.00  0.00    +0.080 A 
ATOM     14  C   UNL     1       7.263  -6.243  -1.389  0.00  0.00    +0.041 A 
ATOM     15  N   UNL     1       8.815  -7.499  -2.709  0.00  0.00    -0.223 NA
ATOM     16  C   UNL     1       9.404  -7.754  -3.867  0.00  0.00    +0.180 A 
ATOM     17  N   UNL     1       9.118  -7.069  -4.987  0.00  0.00    -0.301 N 
ATOM     18  H   UNL     1       9.576  -7.291  -5.813  0.00  0.00    +0.171 HD
ATOM     19  C   UNL     1       8.202  -6.077  -4.978  0.00  0.00    +0.260 A 
ATOM     20  O   UNL     1       7.917  -5.393  -6.100  0.00  0.00    -0.267 OA
ATOM     21  S   UNL     1      10.575  -9.002  -3.939  0.00  0.00    -0.011 S 
ENDBRANCH   7   9
BRANCH   1  22
ATOM     22  S   UNL     1       0.145  -5.879   0.365  0.00  0.00    +0.061 S 
ATOM     23  O   UNL     1      -0.219  -6.216   1.697  0.00  0.00    -0.153 OA
ATOM     24  O   UNL     1      -0.342  -6.596  -0.761  0.00  0.00    -0.153 OA
BRANCH  22  29
ATOM     25  C   UNL     1      -1.434  -0.113  -0.445  0.00  0.00    +0.044 C 
ATOM     26  C   UNL     1      -1.040  -1.553  -0.243  0.00  0.00    -0.050 A 
ATOM     27  C   UNL     1      -0.917  -2.396  -1.332  0.00  0.00    +0.005 A 
ATOM     28  C   UNL     1      -0.555  -3.717  -1.146  0.00  0.00    +0.029 A 
ATOM     29  C   UNL     1      -0.315  -4.195   0.129  0.00  0.00    +0.105 A 
ATOM     30  C   UNL     1      -0.437  -3.352   1.218  0.00  0.00    +0.029 A 
ATOM     31  C   UNL     1      -0.795  -2.030   1.031  0.00  0.00    +0.005 A 
ENDBRANCH  22  29
ENDBRANCH   1  22
TORSDOF 3
