REMARK  Name = ZINC09488290
REMARK  4 active torsions:
REMARK  status: ('A' for Active; 'I' for Inactive)
REMARK    1  A    between atoms: C_6  and  C_7
REMARK    2  A    between atoms: C_7  and  S_8
REMARK    3  A    between atoms: S_8  and  C_9
REMARK    4  A    between atoms: C_20  and  C_22
REMARK                            x       y       z     vdW  Elec       q    Type
REMARK                         _______ _______ _______ _____ _____    ______ ____
ROOT
ATOM      1  C   UNL     1      -3.335  -1.972  -1.519  0.00  0.00    +0.194 A 
ATOM      2  N   UNL     1      -3.782  -2.246  -0.301  0.00  0.00    -0.183 NA
ATOM      3  C   UNL     1      -4.914  -2.921  -0.127  0.00  0.00    +0.280 A 
ATOM      4  O   UNL     1      -5.368  -3.197   1.120  0.00  0.00    -0.265 OA
ATOM      5  C   UNL     1      -5.624  -3.337  -1.245  0.00  0.00    +0.067 A 
ATOM      6  C   UNL     1      -5.127  -3.034  -2.506  0.00  0.00    +0.137 A 
ATOM      7  N   UNL     1      -3.991  -2.351  -2.607  0.00  0.00    -0.206 NA
ATOM      8  N   UNL     1      -5.817  -3.440  -3.640  0.00  0.00    -0.270 N 
ATOM      9  C   UNL     1      -6.746  -4.411  -3.564  0.00  0.00    +0.219 C 
ATOM     10  O   UNL     1      -7.355  -4.735  -4.561  0.00  0.00    -0.275 OA
ATOM     11  C   UNL     1      -7.039  -5.099  -2.259  0.00  0.00    +0.109 C 
ATOM     12  C   UNL     1      -6.910  -4.104  -1.103  0.00  0.00    +0.067 C 
ATOM     13  H   UNL     1      -5.629  -3.020  -4.494  0.00  0.00    +0.156 HD
ENDROOT
BRANCH  12  14
ATOM     14  C   UNL     1      -8.072  -3.146  -1.132  0.00  0.00    -0.036 A 
ATOM     15  C   UNL     1      -8.283  -2.350  -2.243  0.00  0.00    +0.008 A 
ATOM     16  C   UNL     1      -9.348  -1.470  -2.275  0.00  0.00    +0.050 A 
ATOM     17  C   UNL     1     -10.207  -1.382  -1.192  0.00  0.00    +0.166 A 
ATOM     18  C   UNL     1      -9.995  -2.184  -0.072  0.00  0.00    +0.167 A 
ATOM     19  C   UNL     1      -8.929  -3.068  -0.050  0.00  0.00    +0.053 A 
ATOM     20  O   UNL     1     -10.967  -1.914   0.848  0.00  0.00    -0.453 OA
ATOM     21  C   UNL     1     -11.534  -0.652   0.450  0.00  0.00    +0.466 C 
ATOM     22  O   UNL     1     -11.312  -0.611  -0.973  0.00  0.00    -0.453 OA
ENDBRANCH  12  14
BRANCH   1  23
ATOM     23  S   UNL     1      -1.829  -1.075  -1.697  0.00  0.00    -0.081 S 
BRANCH  23  24
ATOM     24  C   UNL     1      -1.293  -0.775   0.010  0.00  0.00    +0.112 C 
BRANCH  24  30
ATOM     25  C   UNL     1      -0.017   1.378   0.010  0.00  0.00    +0.007 A 
ATOM     26  C   UNL     1       1.170   2.086   0.002  0.00  0.00    +0.038 A 
ATOM     27  C   UNL     1       2.379   1.410  -0.013  0.00  0.00    +0.123 A 
ATOM     28  C   UNL     1       2.396   0.026  -0.021  0.00  0.00    +0.038 A 
ATOM     29  C   UNL     1       1.208  -0.680  -0.013  0.00  0.00    +0.007 A 
ATOM     30  C   UNL     1       0.002  -0.004   0.002  0.00  0.00    -0.037 A 
ATOM     31  F   UNL     1       3.540   2.101  -0.021  0.00  0.00    -0.205 F 
ENDBRANCH  24  30
ENDBRANCH  23  24
ENDBRANCH   1  23
TORSDOF 4
