REMARK  Name = ZINC06409848
REMARK  9 active torsions:
REMARK  status: ('A' for Active; 'I' for Inactive)
REMARK    1  A    between atoms: C_1  and  C_2
REMARK    2  A    between atoms: C_7  and  C_14
REMARK    3  A    between atoms: C_14  and  C_16
REMARK    4  A    between atoms: C_14  and  N_71
REMARK    5  A    between atoms: N_20  and  C_21
REMARK    6  A    between atoms: C_27  and  C_28
REMARK    7  A    between atoms: C_27  and  N_71
REMARK    8  A    between atoms: C_33  and  C_34
REMARK    9  A    between atoms: C_33  and  N_71
REMARK                            x       y       z     vdW  Elec       q    Type
REMARK                         _______ _______ _______ _____ _____    ______ ____
ROOT
ATOM      1  C   UNL     1      -1.719   5.178   6.505  0.00  0.00    +0.039 C 
ENDROOT
BRANCH   1   8
ATOM      2  C   UNL     1       4.957   5.788   2.184  0.00  0.00    +0.044 C 
ATOM      3  C   UNL     1       3.588   5.761   2.812  0.00  0.00    -0.048 A 
ATOM      4  C   UNL     1       2.491   6.209   2.089  0.00  0.00    +0.004 A 
ATOM      5  C   UNL     1       1.240   6.187   2.639  0.00  0.00    +0.010 A 
ATOM      6  C   UNL     1       1.065   5.720   3.945  0.00  0.00    -0.001 A 
ATOM      7  C   UNL     1      -0.260   5.688   4.566  0.00  0.00    +0.017 A 
ATOM      8  C   UNL     1      -0.369   5.224   5.836  0.00  0.00    +0.011 A 
ATOM      9  C   UNL     1       0.776   4.784   6.533  0.00  0.00    +0.251 A 
ATOM     10  O   UNL     1       0.656   4.370   7.673  0.00  0.00    -0.268 OA
ATOM     11  N   UNL     1       1.998   4.810   5.971  0.00  0.00    -0.322 N 
ATOM     12  H   UNL     1       2.764   4.500   6.478  0.00  0.00    +0.169 HD
ATOM     13  C   UNL     1       2.176   5.270   4.683  0.00  0.00    +0.049 A 
ATOM     14  C   UNL     1       3.439   5.296   4.101  0.00  0.00    +0.029 A 
ENDBRANCH   1   8
BRANCH   1  15
ATOM     15  C   UNL     1      -2.111   3.744   6.748  0.00  0.00    +0.143 A 
ATOM     16  N   UNL     1      -1.396   2.829   7.357  0.00  0.00    -0.115 NA
ATOM     17  N   UNL     1      -2.074   1.734   7.366  0.00  0.00    -0.023 NA
ATOM     18  N   UNL     1      -3.200   1.924   6.772  0.00  0.00    -0.044 NA
ATOM     19  N   UNL     1      -3.260   3.151   6.376  0.00  0.00    -0.227 N 
BRANCH  19  20
ATOM     20  C   UNL     1      -4.372   3.780   5.658  0.00  0.00    +0.111 C 
ATOM     21  C   UNL     1      -5.640   3.700   6.510  0.00  0.00    +0.027 C 
ATOM     22  C   UNL     1      -6.800   4.357   5.760  0.00  0.00    +0.002 C 
ATOM     23  C   UNL     1      -7.029   3.628   4.435  0.00  0.00    +0.000 C 
ATOM     24  C   UNL     1      -5.761   3.707   3.583  0.00  0.00    +0.002 C 
ATOM     25  C   UNL     1      -4.601   3.050   4.333  0.00  0.00    +0.027 C 
ENDBRANCH  19  20
ENDBRANCH   1  15
BRANCH   1  26
ATOM     26  N   UNL     1      -1.629   5.885   7.800  0.00  0.00    +0.394 N 
ATOM     27  H   UNL     1      -0.736   5.649   8.248  0.00  0.00    -0.080 HD
BRANCH  26  28
ATOM     28  C   UNL     1      -2.737   5.464   8.684  0.00  0.00    -0.034 C 
BRANCH  28  29
ATOM     29  C   UNL     1      -2.192   4.497   9.704  0.00  0.00    -0.027 A 
ATOM     30  C   UNL     1      -1.087   4.610  10.481  0.00  0.00    +0.009 A 
ATOM     31  C   UNL     1      -0.779   3.588  11.360  0.00  0.00    +0.008 A 
ATOM     32  C   UNL     1      -1.584   2.499  11.409  0.00  0.00    +0.045 A 
ATOM     33  S   UNL     1      -2.829   2.904  10.195  0.00  0.00    -0.103 S 
ENDBRANCH  28  29
ENDBRANCH  26  28
BRANCH  26  34
ATOM     34  C   UNL     1      -1.685   7.346   7.583  0.00  0.00    -0.045 C 
BRANCH  34  35
ATOM     35  C   UNL     1      -0.256   7.894   7.601  0.00  0.00    +0.102 C 
ATOM     36  C   UNL     1      -0.272   9.439   7.603  0.00  0.00    +0.032 C 
ATOM     37  C   UNL     1       0.928   9.828   6.712  0.00  0.00    +0.030 C 
ATOM     38  C   UNL     1       1.528   8.473   6.276  0.00  0.00    +0.160 C 
ATOM     39  O   UNL     1       0.435   7.534   6.385  0.00  0.00    -0.378 OA
ENDBRANCH  34  35
ENDBRANCH  26  34
ENDBRANCH   1  26
TORSDOF 8
