REMARK  Name = ZINC63266643
REMARK  6 active torsions:
REMARK  status: ('A' for Active; 'I' for Inactive)
REMARK    1  A    between atoms: C_4  and  C_7
REMARK    2  A    between atoms: N_9  and  C_10
REMARK    3  A    between atoms: C_10  and  C_12
REMARK    4  A    between atoms: C_10  and  C_22
REMARK    5  A    between atoms: C_12  and  C_13
REMARK    6  A    between atoms: N_24  and  N_25
REMARK                            x       y       z     vdW  Elec       q    Type
REMARK                         _______ _______ _______ _____ _____    ______ ____
ROOT
ATOM      1  C   UNL     1       5.102  -2.761  -0.031  0.00  0.00    +0.165 C 
ENDROOT
BRANCH   1   4
ATOM      2  C   UNL     1       4.007  -0.639   0.454  0.00  0.00    +0.245 C 
ATOM      3  O   UNL     1       5.100  -0.164   0.694  0.00  0.00    -0.270 OA
ATOM      4  N   UNL     1       3.901  -1.930   0.083  0.00  0.00    -0.300 N 
ATOM      5  H   UNL     1       3.029  -2.309  -0.109  0.00  0.00    +0.150 HD
BRANCH   2   9
ATOM      6  C   UNL     1       0.524   1.770   0.785  0.00  0.00    +0.000 A 
ATOM      7  C   UNL     1       1.766   2.314   1.059  0.00  0.00    +0.001 A 
ATOM      8  C   UNL     1       2.901   1.537   0.954  0.00  0.00    +0.013 A 
ATOM      9  C   UNL     1       2.795   0.200   0.570  0.00  0.00    +0.037 A 
ATOM     10  C   UNL     1       1.539  -0.343   0.294  0.00  0.00    +0.013 A 
ATOM     11  C   UNL     1       0.411   0.445   0.403  0.00  0.00    +0.001 A 
ENDBRANCH   2   9
ENDBRANCH   1   4
BRANCH   1  12
ATOM     12  C   UNL     1       4.859  -4.090   0.636  0.00  0.00    +0.250 C 
ATOM     13  O   UNL     1       3.788  -4.321   1.156  0.00  0.00    -0.272 OA
ATOM     14  N   UNL     1       5.832  -5.022   0.655  0.00  0.00    -0.231 N 
ATOM     15  H   UNL     1       6.689  -4.838   0.239  0.00  0.00    +0.173 HD
BRANCH  14  16
ATOM     16  N   UNL     1       5.606  -6.258   1.275  0.00  0.00    -0.231 N 
ATOM     17  C   UNL     1       6.138  -6.676   2.577  0.00  0.00    +0.165 C 
ATOM     18  C   UNL     1       5.627  -8.074   2.821  0.00  0.00    -0.018 A 
ATOM     19  C   UNL     1       5.794  -8.963   3.860  0.00  0.00    +0.006 A 
ATOM     20  C   UNL     1       5.190 -10.208   3.809  0.00  0.00    +0.000 A 
ATOM     21  C   UNL     1       4.419 -10.562   2.717  0.00  0.00    +0.001 A 
ATOM     22  C   UNL     1       4.245  -9.679   1.671  0.00  0.00    +0.011 A 
ATOM     23  C   UNL     1       4.850  -8.422   1.716  0.00  0.00    +0.019 A 
ATOM     24  C   UNL     1       4.843  -7.285   0.771  0.00  0.00    +0.117 C 
ATOM     25  N   UNL     1       4.213  -7.261  -0.368  0.00  0.00    -0.385 N 
ATOM     26  H   UNL     1       4.261  -6.474  -0.933  0.00  0.00    +0.157 HD
ATOM     27  H   UNL     1       3.694  -8.030  -0.652  0.00  0.00    +0.157 HD
ENDBRANCH  14  16
ENDBRANCH   1  12
BRANCH   1  28
ATOM     28  C   UNL     1       5.429  -2.984  -1.509  0.00  0.00    +0.065 C 
BRANCH  28  29
ATOM     29  C   UNL     1       5.817  -1.673  -2.142  0.00  0.00    -0.039 C 
ATOM     30  C   UNL     1       7.071  -1.198  -2.326  0.00  0.00    -0.001 A 
ATOM     31  C   UNL     1       8.396  -1.740  -2.004  0.00  0.00    +0.010 A 
ATOM     32  C   UNL     1       9.495  -1.016  -2.317  0.00  0.00    +0.001 A 
ATOM     33  C   UNL     1       9.399   0.236  -2.939  0.00  0.00    +0.002 A 
ATOM     34  C   UNL     1       8.217   0.800  -3.266  0.00  0.00    +0.026 A 
ATOM     35  C   UNL     1       6.997   0.126  -2.984  0.00  0.00    +0.043 A 
ATOM     36  N   UNL     1       5.747   0.457  -3.198  0.00  0.00    -0.380 N 
ATOM     37  C   UNL     1       4.885  -0.624  -2.705  0.00  0.00    +0.144 C 
ATOM     38  H   UNL     1       5.442   1.278  -3.616  0.00  0.00    +0.160 HD
ENDBRANCH  28  29
ENDBRANCH   1  28
TORSDOF 6
