REMARK  Name = ZINC12876854
REMARK  5 active torsions:
REMARK  status: ('A' for Active; 'I' for Inactive)
REMARK    1  A    between atoms: C_1  and  C_2
REMARK    2  A    between atoms: C_2  and  C_4
REMARK    3  A    between atoms: C_2  and  O_35
REMARK    4  A    between atoms: N_12  and  C_15
REMARK    5  A    between atoms: C_15  and  C_16
REMARK                            x       y       z     vdW  Elec       q    Type
REMARK                         _______ _______ _______ _____ _____    ______ ____
ROOT
ATOM      1  C   UNL     1      -0.729   1.579   1.267  0.00  0.00    -0.028 C 
ATOM      2  C   UNL     1       0.002   1.079   2.531  0.00  0.00    +0.075 C 
ATOM      3  C   UNL     1      -0.095   2.256   3.541  0.00  0.00    +0.088 C 
ATOM      4  C   UNL     1       1.346   2.677   3.724  0.00  0.00    +0.225 C 
ATOM      5  O   UNL     1       1.728   3.571   4.448  0.00  0.00    -0.275 OA
ATOM      6  N   UNL     1       2.133   1.911   2.961  0.00  0.00    -0.237 N 
ATOM      7  C   UNL     1       1.483   0.984   2.247  0.00  0.00    +0.224 C 
ATOM      8  O   UNL     1       2.002   0.191   1.491  0.00  0.00    -0.275 OA
ATOM      9  C   UNL     1      -0.873   3.344   2.790  0.00  0.00    +0.050 C 
ATOM     10  C   UNL     1      -2.327   3.343   3.169  0.00  0.00    -0.028 A 
ATOM     11  C   UNL     1      -3.324   2.396   3.098  0.00  0.00    +0.004 A 
ATOM     12  C   UNL     1      -4.599   2.700   3.539  0.00  0.00    +0.000 A 
ATOM     13  C   UNL     1      -4.870   3.956   4.052  0.00  0.00    +0.002 A 
ATOM     14  C   UNL     1      -3.874   4.908   4.124  0.00  0.00    +0.023 A 
ATOM     15  C   UNL     1      -2.587   4.611   3.682  0.00  0.00    +0.036 A 
ATOM     16  N   UNL     1      -1.429   5.391   3.651  0.00  0.00    -0.286 N 
ATOM     17  C   UNL     1      -0.377   4.720   3.143  0.00  0.00    +0.211 C 
ATOM     18  O   UNL     1       0.750   5.142   2.999  0.00  0.00    -0.277 OA
ATOM     19  H   UNL     1      -1.387   6.309   3.960  0.00  0.00    +0.155 HD
ATOM     20  N   UNL     1      -0.670   3.037   1.380  0.00  0.00    +0.396 N 
ATOM     21  H   UNL     1      -1.409   3.468   0.812  0.00  0.00    -0.083 HD
ATOM     22  H   UNL     1       0.245   3.381   1.069  0.00  0.00    -0.083 HD
ENDROOT
BRANCH   1  24
ATOM     23  C   UNL     1      -0.134  -0.437  -0.084  0.00  0.00    +0.036 C 
ATOM     24  C   UNL     1      -0.013   1.086   0.008  0.00  0.00    +0.098 C 
BRANCH  24  25
ATOM     25  O   UNL     1      -0.611   1.682  -1.145  0.00  0.00    -0.394 OA
ATOM     26  H   UNL     1      -1.550   1.476  -1.252  0.00  0.00    +0.210 HD
ENDBRANCH  24  25
ENDBRANCH   1  24
BRANCH   6  27
ATOM     27  C   UNL     1       3.588   2.073   2.910  0.00  0.00    +0.151 C 
BRANCH  27  28
ATOM     28  C   UNL     1       4.227   1.206   3.964  0.00  0.00    -0.026 A 
ATOM     29  C   UNL     1       4.593  -0.092   3.661  0.00  0.00    +0.009 A 
ATOM     30  C   UNL     1       5.179  -0.891   4.624  0.00  0.00    +0.050 A 
ATOM     31  C   UNL     1       5.402  -0.393   5.897  0.00  0.00    +0.166 A 
ATOM     32  C   UNL     1       5.034   0.915   6.203  0.00  0.00    +0.167 A 
ATOM     33  C   UNL     1       4.452   1.712   5.230  0.00  0.00    +0.054 A 
ATOM     34  O   UNL     1       5.354   1.166   7.506  0.00  0.00    -0.453 OA
ATOM     35  C   UNL     1       6.292   0.138   7.876  0.00  0.00    +0.466 C 
ATOM     36  O   UNL     1       5.953  -0.961   7.009  0.00  0.00    -0.453 OA
ENDBRANCH  27  28
ENDBRANCH   6  27
TORSDOF 4
