REMARK  Name = ZINC44941655
REMARK  10 active torsions:
REMARK  status: ('A' for Active; 'I' for Inactive)
REMARK    1  A    between atoms: C_1  and  C_2
REMARK    2  A    between atoms: C_2  and  C_3
REMARK    3  A    between atoms: C_2  and  C_4
REMARK    4  A    between atoms: C_2  and  C_5
REMARK    5  A    between atoms: N_11  and  S_29
REMARK    6  A    between atoms: C_13  and  C_16
REMARK    7  A    between atoms: N_18  and  C_19
REMARK    8  A    between atoms: N_18  and  C_20
REMARK    9  A    between atoms: C_26  and  O_28
REMARK   10  A    between atoms: S_29  and  C_32
REMARK                            x       y       z     vdW  Elec       q    Type
REMARK                         _______ _______ _______ _____ _____    ______ ____
ROOT
ATOM      1  C   UNL     1       1.017   0.116  -1.112  0.00  0.00    -0.040 A 
ATOM      2  C   UNL     1       0.248  -0.654  -1.965  0.00  0.00    +0.008 A 
ATOM      3  C   UNL     1       0.806  -1.198  -3.107  0.00  0.00    +0.048 A 
ATOM      4  C   UNL     1       2.142  -0.974  -3.403  0.00  0.00    +0.144 A 
ATOM      5  C   UNL     1       2.914  -0.196  -2.543  0.00  0.00    +0.093 A 
ATOM      6  C   UNL     1       2.349   0.351  -1.402  0.00  0.00    +0.032 A 
ATOM      7  N   UNL     1       4.265   0.041  -2.842  0.00  0.00    -0.200 N 
ATOM      8  C   UNL     1       4.892  -0.793  -3.882  0.00  0.00    +0.185 C 
ATOM      9  C   UNL     1       3.886  -0.934  -5.033  0.00  0.00    +0.278 C 
ATOM     10  O   UNL     1       2.683  -1.516  -4.525  0.00  0.00    -0.476 OA
ENDROOT
BRANCH   1  12
ATOM     11  C   UNL     1       0.505   2.230   0.077  0.00  0.00    +0.015 C 
ATOM     12  C   UNL     1       0.402   0.705   0.131  0.00  0.00    -0.013 C 
ATOM     13  C   UNL     1       1.146   0.186   1.363  0.00  0.00    +0.015 C 
ATOM     14  C   UNL     1      -1.070   0.296   0.214  0.00  0.00    +0.015 C 
ENDBRANCH   1  12
BRANCH   9  15
ATOM     15  C   UNL     1       4.466  -1.821  -6.105  0.00  0.00    +0.258 C 
ATOM     16  O   UNL     1       3.951  -2.890  -6.352  0.00  0.00    -0.271 OA
ATOM     17  N   UNL     1       5.558  -1.425  -6.789  0.00  0.00    -0.296 N 
ATOM     18  C   UNL     1       6.180  -0.132  -6.491  0.00  0.00    +0.132 C 
BRANCH  17  19
ATOM     19  C   UNL     1       6.122  -2.286  -7.831  0.00  0.00    +0.104 C 
ATOM     20  C   UNL     1       6.567  -3.612  -7.211  0.00  0.00    +0.025 C 
ATOM     21  C   UNL     1       7.628  -3.344  -6.141  0.00  0.00    +0.002 C 
ATOM     22  C   UNL     1       8.832  -2.649  -6.781  0.00  0.00    +0.003 C 
ATOM     23  C   UNL     1       8.387  -1.324  -7.401  0.00  0.00    +0.033 C 
ATOM     24  C   UNL     1       7.326  -1.592  -8.470  0.00  0.00    +0.135 C 
BRANCH  24  25
ATOM     25  O   UNL     1       6.910  -0.354  -9.050  0.00  0.00    -0.390 OA
ATOM     26  H   UNL     1       7.624   0.141  -9.474  0.00  0.00    +0.210 HD
ENDBRANCH  24  25
ENDBRANCH  17  19
ENDBRANCH   9  15
BRANCH   7  27
ATOM     27  S   UNL     1       5.123   1.218  -2.054  0.00  0.00    +0.043 S 
ATOM     28  O   UNL     1       6.149   1.589  -2.964  0.00  0.00    -0.155 OA
ATOM     29  O   UNL     1       4.146   2.162  -1.639  0.00  0.00    -0.155 OA
ATOM     30  C   UNL     1       5.839   0.384  -0.611  0.00  0.00    +0.218 C 
ENDBRANCH   7  27
TORSDOF 5
