REMARK  Name = ZINC38519778
REMARK  4 active torsions:
REMARK  status: ('A' for Active; 'I' for Inactive)
REMARK    1  A    between atoms: C_1  and  N_2
REMARK    2  A    between atoms: C_8  and  C_10
REMARK    3  A    between atoms: N_15  and  C_17
REMARK    4  A    between atoms: C_24  and  C_30
REMARK                            x       y       z     vdW  Elec       q    Type
REMARK                         _______ _______ _______ _____ _____    ______ ____
ROOT
ATOM      1  C   UNL     1      -0.100   1.471   0.044  0.00  0.00    +0.174 C 
ATOM      2  N   UNL     1      -0.066   0.006   0.029  0.00  0.00    -0.251 N 
ATOM      3  C   UNL     1      -0.059  -0.775  -1.067  0.00  0.00    +0.129 A 
ATOM      4  C   UNL     1      -0.010  -2.078  -0.648  0.00  0.00    +0.042 A 
ATOM      5  C   UNL     1      -0.002  -2.082   0.743  0.00  0.00    +0.152 A 
ATOM      6  N   UNL     1      -0.029  -0.832   1.155  0.00  0.00    -0.154 NA
ATOM      7  N   UNL     1       0.035  -3.218   1.563  0.00  0.00    -0.268 N 
ATOM      8  C   UNL     1       0.040  -3.081   2.904  0.00  0.00    +0.223 C 
ATOM      9  O   UNL     1       0.012  -1.975   3.401  0.00  0.00    -0.275 OA
ATOM     10  C   UNL     1       0.033  -3.235  -1.614  0.00  0.00    +0.064 C 
ATOM     11  C   UNL     1      -0.680  -2.813  -2.903  0.00  0.00    +0.109 C 
ATOM     12  C   UNL     1      -0.276  -1.427  -3.319  0.00  0.00    +0.219 C 
ATOM     13  O   UNL     1      -0.125  -1.188  -4.498  0.00  0.00    -0.275 OA
ATOM     14  N   UNL     1      -0.076  -0.439  -2.421  0.00  0.00    -0.270 N 
ATOM     15  H   UNL     1       0.058  -4.102   1.166  0.00  0.00    +0.156 HD
ATOM     16  H   UNL     1       0.051   0.479  -2.708  0.00  0.00    +0.156 HD
ENDROOT
BRANCH   8  17
ATOM     17  C   UNL     1       0.080  -4.303   3.786  0.00  0.00    +0.102 C 
ATOM     18  C   UNL     1       1.404  -5.078   3.597  0.00  0.00    +0.110 C 
ATOM     19  C   UNL     1       2.311  -4.531   4.677  0.00  0.00    +0.221 C 
ATOM     20  O   UNL     1       3.517  -4.664   4.705  0.00  0.00    -0.275 OA
ATOM     21  N   UNL     1       1.588  -3.875   5.601  0.00  0.00    -0.271 N 
ATOM     22  C   UNL     1       0.155  -3.906   5.277  0.00  0.00    +0.127 C 
BRANCH  21  23
ATOM     23  C   UNL     1       2.129  -3.244   6.727  0.00  0.00    +0.036 A 
ATOM     24  C   UNL     1       3.484  -3.365   7.007  0.00  0.00    +0.025 A 
ATOM     25  C   UNL     1       4.016  -2.741   8.119  0.00  0.00    +0.022 A 
ATOM     26  C   UNL     1       3.200  -1.996   8.953  0.00  0.00    +0.041 A 
ATOM     27  C   UNL     1       1.850  -1.874   8.675  0.00  0.00    +0.022 A 
ATOM     28  C   UNL     1       1.314  -2.491   7.562  0.00  0.00    +0.025 A 
ATOM     29 CL   UNL     1       3.872  -1.214  10.349  0.00  0.00    -0.084 Cl
ENDBRANCH  21  23
ENDBRANCH   8  17
BRANCH  10  30
ATOM     30  C   UNL     1       1.466  -3.590  -1.918  0.00  0.00    -0.039 A 
ATOM     31  C   UNL     1       2.305  -2.649  -2.485  0.00  0.00    +0.004 A 
ATOM     32  C   UNL     1       3.619  -2.974  -2.764  0.00  0.00    +0.000 A 
ATOM     33  C   UNL     1       4.094  -4.240  -2.476  0.00  0.00    +0.000 A 
ATOM     34  C   UNL     1       3.255  -5.180  -1.909  0.00  0.00    +0.000 A 
ATOM     35  C   UNL     1       1.942  -4.854  -1.626  0.00  0.00    +0.004 A 
ENDBRANCH  10  30
TORSDOF 3
