REMARK  Name = ZINC13032328
REMARK  12 active torsions:
REMARK  status: ('A' for Active; 'I' for Inactive)
REMARK    1  A    between atoms: C_1  and  C_2
REMARK    2  A    between atoms: C_2  and  C_3
REMARK    3  A    between atoms: C_3  and  C_4
REMARK    4  A    between atoms: C_3  and  C_5
REMARK    5  A    between atoms: C_3  and  N_6
REMARK    6  A    between atoms: C_7  and  C_9
REMARK    7  A    between atoms: C_9  and  C_11
REMARK    8  A    between atoms: C_9  and  N_18
REMARK    9  A    between atoms: C_14  and  O_17
REMARK   10  A    between atoms: N_18  and  C_19
REMARK   11  A    between atoms: C_28  and  C_30
REMARK   12  A    between atoms: C_30  and  N_31
REMARK                            x       y       z     vdW  Elec       q    Type
REMARK                         _______ _______ _______ _____ _____    ______ ____
ROOT
ATOM      1  N   UNL     1      -5.276   3.692  -1.871  0.00  0.00    -0.254 N 
ATOM      2  C   UNL     1      -4.142   3.035  -1.556  0.00  0.00    +0.242 C 
ATOM      3  O   UNL     1      -3.816   2.051  -2.186  0.00  0.00    -0.273 OA
ENDROOT
BRANCH   1   4
ATOM      4  C   UNL     1      -5.600   4.886  -1.215  0.00  0.00    +0.041 A 
ATOM      5  C   UNL     1      -5.960   4.866   0.126  0.00  0.00    +0.027 A 
ATOM      6  C   UNL     1      -6.279   6.043   0.775  0.00  0.00    +0.051 A 
ATOM      7  C   UNL     1      -6.241   7.247   0.090  0.00  0.00    +0.166 A 
ATOM      8  C   UNL     1      -5.880   7.271  -1.255  0.00  0.00    +0.168 A 
ATOM      9  C   UNL     1      -5.554   6.091  -1.903  0.00  0.00    +0.073 A 
ATOM     10  O   UNL     1      -5.919   8.562  -1.695  0.00  0.00    -0.453 OA
ATOM     11  C   UNL     1      -5.909   9.374  -0.506  0.00  0.00    +0.466 C 
ATOM     12  O   UNL     1      -6.506   8.525   0.492  0.00  0.00    -0.453 OA
ENDBRANCH   1   4
BRANCH   1  13
ATOM     13  C   UNL     1      -6.171   3.156  -2.901  0.00  0.00    +0.197 C 
BRANCH  13  14
ATOM     14  C   UNL     1      -7.283   4.139  -3.160  0.00  0.00    -0.018 A 
ATOM     15  C   UNL     1      -8.082   4.569  -2.116  0.00  0.00    +0.009 A 
ATOM     16  C   UNL     1      -9.099   5.474  -2.350  0.00  0.00    +0.046 A 
ATOM     17  C   UNL     1      -9.326   5.942  -3.636  0.00  0.00    +0.117 A 
ATOM     18  C   UNL     1      -8.527   5.505  -4.683  0.00  0.00    +0.046 A 
ATOM     19  C   UNL     1      -7.508   4.605  -4.442  0.00  0.00    +0.009 A 
BRANCH  17  20
ATOM     20  O   UNL     1     -10.330   6.828  -3.870  0.00  0.00    -0.507 OA
ATOM     21  H   UNL     1     -11.178   6.414  -4.083  0.00  0.00    +0.292 HD
ENDBRANCH  17  20
ENDBRANCH  13  14
BRANCH  13  23
ATOM     22  N   UNL     1      -7.612   1.170  -3.217  0.00  0.00    -0.308 N 
ATOM     23  C   UNL     1      -6.755   1.849  -2.429  0.00  0.00    +0.239 C 
ATOM     24  O   UNL     1      -6.453   1.409  -1.340  0.00  0.00    -0.273 OA
ATOM     25  H   UNL     1      -7.853   1.523  -4.088  0.00  0.00    +0.149 HD
BRANCH  22  26
ATOM     26  C   UNL     1      -8.179  -0.100  -2.758  0.00  0.00    +0.029 C 
ATOM     27  C   UNL     1      -7.049  -1.098  -2.495  0.00  0.00    +0.031 C 
ATOM     28  C   UNL     1      -8.967   0.130  -1.467  0.00  0.00    +0.031 C 
BRANCH  26  30
ATOM     29  C   UNL     1      -9.706  -1.986  -3.354  0.00  0.00    +0.006 C 
ATOM     30  C   UNL     1      -9.113  -0.659  -3.833  0.00  0.00    +0.022 C 
ENDBRANCH  26  30
ENDBRANCH  22  26
ENDBRANCH  13  23
ENDBRANCH   1  13
BRANCH   2  31
ATOM     31  C   UNL     1      -3.279   3.523  -0.421  0.00  0.00    +0.242 C 
BRANCH  31  32
ATOM     32  N   UNL     1      -2.174   2.585  -0.209  0.00  0.00    -0.235 N 
ATOM     33  C   UNL     1      -2.172   1.492   0.623  0.00  0.00    +0.090 A 
ATOM     34  C   UNL     1      -3.113   0.925   1.477  0.00  0.00    +0.029 A 
ATOM     35  C   UNL     1      -2.793  -0.195   2.192  0.00  0.00    +0.002 A 
ATOM     36  C   UNL     1      -1.540  -0.780   2.067  0.00  0.00    +0.002 A 
ATOM     37  C   UNL     1      -0.601  -0.246   1.233  0.00  0.00    +0.032 A 
ATOM     38  C   UNL     1      -0.901   0.905   0.492  0.00  0.00    +0.113 A 
ATOM     39  N   UNL     1      -0.199   1.643  -0.390  0.00  0.00    -0.129 NA
ATOM     40  N   UNL     1      -0.910   2.626  -0.816  0.00  0.00    -0.064 NA
ENDBRANCH  31  32
ENDBRANCH   2  31
TORSDOF 9
