REMARK  Name = ZINC04854561
REMARK  2 active torsions:
REMARK  status: ('A' for Active; 'I' for Inactive)
REMARK    1  A    between atoms: C_9  and  C_11
REMARK    2  A    between atoms: N_18  and  C_19
REMARK                            x       y       z     vdW  Elec       q    Type
REMARK                         _______ _______ _______ _____ _____    ______ ____
ROOT
ATOM      1  C   UNL     1      -0.086   0.665   0.465  0.00  0.00    +0.019 A 
ATOM      2  C   UNL     1       1.135   1.359   0.339  0.00  0.00    +0.025 A 
ATOM      3  C   UNL     1       2.097   0.443   0.149  0.00  0.00    +0.044 A 
ATOM      4  N   UNL     1       1.522  -0.799   0.157  0.00  0.00    -0.347 N 
ATOM      5  C   UNL     1       0.183  -0.652   0.347  0.00  0.00    +0.086 A 
ATOM      6  C   UNL     1       2.256  -2.059  -0.009  0.00  0.00    +0.140 C 
ATOM      7  C   UNL     1       3.619  -1.768  -0.646  0.00  0.00    +0.132 C 
ATOM      8  N   UNL     1       4.243  -0.627   0.040  0.00  0.00    -0.271 N 
ATOM      9  C   UNL     1       3.576   0.685  -0.050  0.00  0.00    +0.161 C 
ATOM     10  C   UNL     1       5.391  -0.775   0.730  0.00  0.00    +0.303 C 
ATOM     11  O   UNL     1       5.936   0.195   1.220  0.00  0.00    -0.253 OA
ATOM     12  N   UNL     1       5.936  -1.999   0.877  0.00  0.00    -0.296 N 
ATOM     13  H   UNL     1       5.543  -2.763   0.425  0.00  0.00    +0.151 HD
ENDROOT
BRANCH  12  14
ATOM     14  C   UNL     1       7.122  -2.177   1.718  0.00  0.00    +0.074 C 
ATOM     15  C   UNL     1       8.379  -1.877   0.898  0.00  0.00    +0.022 C 
ATOM     16  C   UNL     1       9.617  -2.063   1.777  0.00  0.00    +0.002 C 
ATOM     17  C   UNL     1       9.671  -3.506   2.284  0.00  0.00    +0.000 C 
ATOM     18  C   UNL     1       8.414  -3.806   3.104  0.00  0.00    +0.002 C 
ATOM     19  C   UNL     1       7.176  -3.620   2.225  0.00  0.00    +0.022 C 
ENDBRANCH  12  14
BRANCH   9  20
ATOM     20  C   UNL     1       4.098   1.603   1.025  0.00  0.00    +0.016 A 
ATOM     21  C   UNL     1       4.549   2.876   0.916  0.00  0.00    +0.013 A 
ATOM     22  C   UNL     1       4.985   3.533   2.051  0.00  0.00    +0.008 A 
ATOM     23  C   UNL     1       4.947   2.884   3.241  0.00  0.00    +0.045 A 
ATOM     24  S   UNL     1       4.274   1.297   2.775  0.00  0.00    -0.099 S 
ENDBRANCH   9  20
TORSDOF 2
