REMARK  Name = ZINC63467764
REMARK  7 active torsions:
REMARK  status: ('A' for Active; 'I' for Inactive)
REMARK    1  A    between atoms: C_1  and  C_2
REMARK    2  A    between atoms: C_7  and  C_8
REMARK    3  A    between atoms: N_12  and  C_34
REMARK    4  A    between atoms: C_15  and  C_20
REMARK    5  A    between atoms: N_22  and  C_23
REMARK    6  A    between atoms: C_23  and  C_24
REMARK    7  A    between atoms: C_24  and  C_25
REMARK                            x       y       z     vdW  Elec       q    Type
REMARK                         _______ _______ _______ _____ _____    ______ ____
ROOT
ATOM      1  C   UNL     1       0.025   0.011   2.489  0.00  0.00    +0.028 C 
ATOM      2  C   UNL     1      -0.056  -0.676   3.654  0.00  0.00    +0.076 C 
ATOM      3  C   UNL     1      -0.173   0.010   4.960  0.00  0.00    +0.257 C 
ATOM      4  O   UNL     1       0.285   1.128   5.098  0.00  0.00    -0.269 OA
ATOM      5  N   UNL     1      -0.778  -0.589   5.990  0.00  0.00    -0.269 N 
ATOM      6  C   UNL     1      -1.432  -1.815   5.969  0.00  0.00    +0.051 A 
ATOM      7  C   UNL     1      -2.353  -2.090   6.973  0.00  0.00    +0.037 A 
ATOM      8  C   UNL     1      -3.034  -3.307   6.990  0.00  0.00    +0.039 A 
ATOM      9  C   UNL     1      -2.795  -4.261   5.996  0.00  0.00    +0.014 A 
ATOM     10  C   UNL     1      -1.883  -3.993   5.000  0.00  0.00    +0.017 A 
ATOM     11  C   UNL     1      -1.203  -2.781   4.983  0.00  0.00    +0.034 A 
ATOM     12  S   UNL     1      -0.037  -2.449   3.702  0.00  0.00    -0.082 S 
ATOM     13  C   UNL     1      -0.750   0.120   7.272  0.00  0.00    +0.138 C 
ENDROOT
BRANCH   1  20
ATOM     14  C   UNL     1      -1.179   0.958   0.035  0.00  0.00    +0.044 C 
ATOM     15  C   UNL     1      -0.289  -0.259   0.037  0.00  0.00    -0.043 A 
ATOM     16  C   UNL     1      -0.036  -0.932  -1.140  0.00  0.00    +0.004 A 
ATOM     17  C   UNL     1       0.781  -2.049  -1.140  0.00  0.00    +0.000 A 
ATOM     18  C   UNL     1       1.349  -2.500   0.039  0.00  0.00    +0.001 A 
ATOM     19  C   UNL     1       1.106  -1.839   1.223  0.00  0.00    +0.008 A 
ATOM     20  C   UNL     1       0.286  -0.705   1.231  0.00  0.00    -0.021 A 
ENDBRANCH   1  20
BRANCH   8  21
ATOM     21  C   UNL     1      -4.008  -3.589   8.061  0.00  0.00    +0.244 C 
ATOM     22  O   UNL     1      -4.218  -2.761   8.926  0.00  0.00    -0.270 OA
ATOM     23  N   UNL     1      -4.668  -4.764   8.080  0.00  0.00    -0.311 N 
ATOM     24  H   UNL     1      -4.501  -5.425   7.389  0.00  0.00    +0.149 HD
BRANCH  23  25
ATOM     25  C   UNL     1      -5.636  -5.044   9.143  0.00  0.00    +0.109 C 
BRANCH  25  26
ATOM     26  C   UNL     1      -6.237  -6.435   8.932  0.00  0.00    +0.052 C 
BRANCH  26  27
ATOM     27  C   UNL     1      -7.233  -6.723  10.026  0.00  0.00    -0.040 C 
ATOM     28  C   UNL     1      -8.572  -6.539   9.976  0.00  0.00    -0.001 A 
ATOM     29  C   UNL     1      -9.467  -6.033   8.929  0.00  0.00    +0.010 A 
ATOM     30  C   UNL     1     -10.794  -5.962   9.178  0.00  0.00    +0.001 A 
ATOM     31  C   UNL     1     -11.335  -6.358  10.409  0.00  0.00    +0.002 A 
ATOM     32  C   UNL     1     -10.576  -6.833  11.420  0.00  0.00    +0.026 A 
ATOM     33  C   UNL     1      -9.167  -6.951  11.267  0.00  0.00    +0.043 A 
ATOM     34  N   UNL     1      -8.233  -7.374  12.083  0.00  0.00    -0.380 N 
ATOM     35  C   UNL     1      -6.938  -7.284  11.399  0.00  0.00    +0.144 C 
ATOM     36  H   UNL     1      -8.375  -7.697  12.987  0.00  0.00    +0.160 HD
ENDBRANCH  26  27
ENDBRANCH  25  26
ENDBRANCH  23  25
ENDBRANCH   8  21
TORSDOF 5
