REMARK  Name = ZINC38700546
REMARK  6 active torsions:
REMARK  status: ('A' for Active; 'I' for Inactive)
REMARK    1  A    between atoms: C_9  and  C_12
REMARK    2  A    between atoms: C_12  and  O_14
REMARK    3  A    between atoms: O_14  and  C_15
REMARK    4  A    between atoms: C_22  and  N_36
REMARK    5  A    between atoms: C_23  and  C_34
REMARK    6  A    between atoms: C_24  and  C_26
REMARK                            x       y       z     vdW  Elec       q    Type
REMARK                         _______ _______ _______ _____ _____    ______ ____
ROOT
ATOM      1  C   UNL     1       6.315  -4.532  -0.112  0.00  0.00    +0.135 A 
ATOM      2  C   UNL     1       7.293  -3.866   0.613  0.00  0.00    +0.047 A 
ATOM      3  C   UNL     1       8.490  -4.493   0.895  0.00  0.00    +0.012 A 
ATOM      4  C   UNL     1       8.721  -5.785   0.457  0.00  0.00    +0.008 A 
ATOM      5  C   UNL     1       7.747  -6.455  -0.267  0.00  0.00    +0.138 A 
ATOM      6  C   UNL     1       6.540  -5.828  -0.546  0.00  0.00    +0.093 A 
ATOM      7  O   UNL     1       7.955  -7.722  -0.705  0.00  0.00    -0.441 OA
ATOM      8  C   UNL     1       8.910  -8.479  -0.139  0.00  0.00    +0.199 C 
ATOM      9  C   UNL     1       9.924  -7.937   0.576  0.00  0.00    +0.098 C 
ATOM     10  C   UNL     1      10.034  -6.451   0.774  0.00  0.00    +0.101 C 
ENDROOT
BRANCH  10  11
ATOM     11  C   UNL     1      11.103  -5.904  -0.136  0.00  0.00    +0.002 A 
ATOM     12  C   UNL     1      10.978  -6.034  -1.508  0.00  0.00    +0.046 A 
ATOM     13  C   UNL     1      11.960  -5.531  -2.343  0.00  0.00    +0.020 A 
ATOM     14  C   UNL     1      13.067  -4.900  -1.806  0.00  0.00    +0.003 A 
ATOM     15  C   UNL     1      13.193  -4.770  -0.436  0.00  0.00    +0.020 A 
ATOM     16  C   UNL     1      12.208  -5.267   0.400  0.00  0.00    +0.046 A 
ATOM     17 CL   UNL     1      12.363  -5.097   2.120  0.00  0.00    -0.083 Cl
ATOM     18 CL   UNL     1       9.588  -6.827  -2.181  0.00  0.00    -0.083 Cl
ENDBRANCH  10  11
BRANCH   8  19
ATOM     19  N   UNL     1       8.855  -9.842  -0.290  0.00  0.00    -0.328 N 
ATOM     20  H   UNL     1       8.135 -10.245  -0.800  0.00  0.00    +0.145 HD
ATOM     21  H   UNL     1       9.538 -10.402   0.112  0.00  0.00    +0.145 HD
ENDBRANCH   8  19
BRANCH   9  22
ATOM     22  C   UNL     1      10.911  -8.797   1.156  0.00  0.00    +0.101 C 
ATOM     23  N   UNL     1      11.694  -9.479   1.616  0.00  0.00    -0.191 NA
ENDBRANCH   9  22
BRANCH   1  24
ATOM     24  O   UNL     1       5.135  -3.917  -0.390  0.00  0.00    -0.423 OA
BRANCH  24  25
ATOM     25  C   UNL     1       5.118  -3.004  -1.375  0.00  0.00    +0.357 C 
ATOM     26  O   UNL     1       6.147  -2.687  -1.923  0.00  0.00    -0.246 OA
BRANCH  25  35
ATOM     27  C   UNL     1       1.002   1.121  -3.893  0.00  0.00    +0.004 A 
ATOM     28  C   UNL     1       2.000   0.837  -4.806  0.00  0.00    +0.004 A 
ATOM     29  C   UNL     1       3.013  -0.043  -4.475  0.00  0.00    +0.049 A 
ATOM     30  C   UNL     1       3.030  -0.644  -3.225  0.00  0.00    +0.163 A 
ATOM     31  C   UNL     1       2.026  -0.360  -2.308  0.00  0.00    +0.162 A 
ATOM     32  C   UNL     1       1.013   0.526  -2.646  0.00  0.00    +0.049 A 
ATOM     33  O   UNL     1       2.019  -0.945  -1.079  0.00  0.00    -0.484 OA
ATOM     34  C   UNL     1       3.247  -1.538  -0.642  0.00  0.00    +0.285 C 
ATOM     35  C   UNL     1       3.815  -2.375  -1.796  0.00  0.00    +0.319 C 
ATOM     36  O   UNL     1       4.036  -1.507  -2.913  0.00  0.00    -0.470 OA
ENDBRANCH  25  35
ENDBRANCH  24  25
ENDBRANCH   1  24
TORSDOF 6
