REMARK  Name = ZINC31817940
REMARK  9 active torsions:
REMARK  status: ('A' for Active; 'I' for Inactive)
REMARK    1  A    between atoms: C_1  and  C_2
REMARK    2  A    between atoms: C_18  and  C_20
REMARK    3  A    between atoms: C_24  and  O_31
REMARK    4  A    between atoms: C_25  and  O_26
REMARK    5  A    between atoms: O_26  and  C_27
REMARK    6  A    between atoms: C_27  and  C_28
REMARK    7  A    between atoms: C_28  and  C_29
REMARK    8  A    between atoms: C_28  and  C_30
REMARK    9  A    between atoms: O_31  and  C_32
REMARK                            x       y       z     vdW  Elec       q    Type
REMARK                         _______ _______ _______ _____ _____    ______ ____
ROOT
ATOM      1  C   UNL     1      -0.018   1.503   0.010  0.00  0.00    +0.068 C 
ATOM      2  C   UNL     1       0.002  -0.004   0.002  0.00  0.00    +0.066 A 
ATOM      3  C   UNL     1       0.008  -0.810  -1.127  0.00  0.00    +0.023 A 
ATOM      4  C   UNL     1       0.032  -2.116  -0.714  0.00  0.00    +0.134 A 
ATOM      5  N   UNL     1       0.032  -2.117   0.636  0.00  0.00    -0.198 N 
ATOM      6  N   UNL     1       0.023  -0.779   1.062  0.00  0.00    -0.168 NA
ATOM      7  C   UNL     1       0.044  -3.247   1.461  0.00  0.00    +0.178 A 
ATOM      8  C   UNL     1       0.548  -3.159   2.758  0.00  0.00    +0.055 A 
ATOM      9  C   UNL     1       0.539  -4.304   3.537  0.00  0.00    +0.077 A 
ATOM     10  C   UNL     1       0.028  -5.472   2.976  0.00  0.00    +0.289 A 
ATOM     11  O   UNL     1      -0.002  -6.619   3.701  0.00  0.00    -0.264 OA
ATOM     12  N   UNL     1      -0.429  -5.461   1.735  0.00  0.00    -0.105 NA
ATOM     13  N   UNL     1      -0.427  -4.399   1.014  0.00  0.00    -0.126 NA
ATOM     14  N   UNL     1       0.064  -3.175  -1.620  0.00  0.00    -0.270 N 
ATOM     15  C   UNL     1       0.274  -2.892  -2.923  0.00  0.00    +0.219 C 
ATOM     16  O   UNL     1       0.118  -3.767  -3.747  0.00  0.00    -0.275 OA
ATOM     17  C   UNL     1       0.694  -1.524  -3.383  0.00  0.00    +0.109 C 
ATOM     18  C   UNL     1      -0.013  -0.426  -2.584  0.00  0.00    +0.067 C 
ATOM     19  H   UNL     1      -0.061  -4.090  -1.322  0.00  0.00    +0.156 HD
ENDROOT
BRANCH  18  20
ATOM     20  C   UNL     1      -1.439  -0.295  -3.054  0.00  0.00    +0.006 A 
ATOM     21  C   UNL     1      -2.294  -1.380  -2.981  0.00  0.00    +0.008 A 
ATOM     22  C   UNL     1      -3.602  -1.264  -3.411  0.00  0.00    +0.004 A 
ATOM     23  C   UNL     1      -4.062  -0.062  -3.917  0.00  0.00    +0.049 A 
ATOM     24  C   UNL     1      -3.212   1.028  -3.993  0.00  0.00    +0.162 A 
ATOM     25  C   UNL     1      -1.896   0.913  -3.554  0.00  0.00    +0.166 A 
BRANCH  24  26
ATOM     26  O   UNL     1      -3.663   2.211  -4.491  0.00  0.00    -0.491 OA
ATOM     27  C   UNL     1      -5.027   2.258  -4.917  0.00  0.00    +0.277 C 
ENDBRANCH  24  26
BRANCH  25  28
ATOM     28  O   UNL     1      -1.059   1.983  -3.622  0.00  0.00    -0.488 OA
BRANCH  28  29
ATOM     29  C   UNL     1      -0.305   2.142  -4.826  0.00  0.00    +0.232 C 
BRANCH  29  30
ATOM     30  C   UNL     1       0.573   3.390  -4.717  0.00  0.00    +0.020 C 
ATOM     31  C   UNL     1       1.612   3.188  -3.612  0.00  0.00    +0.010 C 
ATOM     32  C   UNL     1       1.284   3.631  -6.049  0.00  0.00    +0.010 C 
ENDBRANCH  29  30
ENDBRANCH  28  29
ENDBRANCH  25  28
ENDBRANCH  18  20
TORSDOF 5
