REMARK  Name = ZINC06196924
REMARK  7 active torsions:
REMARK  status: ('A' for Active; 'I' for Inactive)
REMARK    1  A    between atoms: C_1  and  C_2
REMARK    2  A    between atoms: C_2  and  O_3
REMARK    3  A    between atoms: O_3  and  C_4
REMARK    4  A    between atoms: C_11  and  C_16
REMARK    5  A    between atoms: C_16  and  C_18
REMARK    6  A    between atoms: C_16  and  N_74
REMARK    7  A    between atoms: N_22  and  C_23
REMARK                            x       y       z     vdW  Elec       q    Type
REMARK                         _______ _______ _______ _____ _____    ______ ____
ROOT
ATOM      1  C   UNL     1       3.510   0.737  -0.027  0.00  0.00    +0.039 C 
ENDROOT
BRANCH   1   9
ATOM      2  C   UNL     1       6.595  -0.062  -5.344  0.00  0.00    +0.121 A 
ATOM      3  C   UNL     1       6.511   1.263  -5.767  0.00  0.00    +0.047 A 
ATOM      4  C   UNL     1       5.868   2.206  -4.996  0.00  0.00    +0.030 A 
ATOM      5  C   UNL     1       5.294   1.838  -3.783  0.00  0.00    +0.049 A 
ATOM      6  C   UNL     1       5.377   0.501  -3.352  0.00  0.00    +0.002 A 
ATOM      7  C   UNL     1       6.033  -0.448  -4.144  0.00  0.00    +0.055 A 
ATOM      8  C   UNL     1       4.770   0.128  -2.074  0.00  0.00    +0.017 A 
ATOM      9  C   UNL     1       4.146   1.088  -1.347  0.00  0.00    +0.011 A 
ATOM     10  C   UNL     1       4.085   2.414  -1.827  0.00  0.00    +0.251 A 
ATOM     11  O   UNL     1       3.515   3.261  -1.160  0.00  0.00    -0.268 OA
ATOM     12  N   UNL     1       4.645   2.768  -2.996  0.00  0.00    -0.322 N 
ATOM     13  H   UNL     1       4.590   3.719  -3.301  0.00  0.00    +0.169 HD
BRANCH   2  14
ATOM     14  O   UNL     1       7.234  -0.979  -6.118  0.00  0.00    -0.492 OA
BRANCH  14  16
ATOM     15  C   UNL     1       8.466  -1.679  -8.076  0.00  0.00    +0.048 C 
ATOM     16  C   UNL     1       7.793  -0.514  -7.348  0.00  0.00    +0.225 C 
ENDBRANCH  14  16
ENDBRANCH   2  14
ENDBRANCH   1   9
BRANCH   1  27
ATOM     17  C   UNL     1       3.312   1.431   2.284  0.00  0.00    -0.077 C 
ATOM     18  C   UNL     1       3.783   2.467   3.307  0.00  0.00    -0.018 C 
ATOM     19  C   UNL     1       5.289   2.308   3.529  0.00  0.00    +0.003 C 
ATOM     20  C   UNL     1       6.014   2.466   2.190  0.00  0.00    -0.044 C 
ATOM     21  C   UNL     1       5.479   1.430   1.199  0.00  0.00    -0.071 C 
ATOM     22  C   UNL     1       5.769   3.873   1.641  0.00  0.00    +0.005 C 
ATOM     23  C   UNL     1       6.495   4.033   0.304  0.00  0.00    +0.000 C 
ATOM     24  C   UNL     1       7.996   3.820   0.510  0.00  0.00    +0.000 C 
ATOM     25  C   UNL     1       8.241   2.412   1.057  0.00  0.00    +0.000 C 
ATOM     26  C   UNL     1       7.515   2.251   2.394  0.00  0.00    +0.005 C 
ATOM     27  N   UNL     1       4.029   1.652   1.010  0.00  0.00    +0.390 N 
ATOM     28  H   UNL     1       3.877   2.621   0.707  0.00  0.00    -0.080 HD
ENDBRANCH   1  27
BRANCH   1  29
ATOM     29  C   UNL     1       2.016   0.906  -0.128  0.00  0.00    +0.143 A 
ATOM     30  N   UNL     1       1.356   2.039  -0.139  0.00  0.00    -0.115 NA
ATOM     31  N   UNL     1       0.101   1.767  -0.236  0.00  0.00    -0.023 NA
ATOM     32  N   UNL     1      -0.057   0.490  -0.288  0.00  0.00    -0.044 NA
ATOM     33  N   UNL     1       1.101  -0.075  -0.224  0.00  0.00    -0.227 N 
BRANCH  33  34
ATOM     34  C   UNL     1       1.368  -1.515  -0.250  0.00  0.00    +0.111 C 
ATOM     35  C   UNL     1       0.796  -2.135  -1.542  0.00  0.00    +0.027 C 
ATOM     36  C   UNL     1       0.263  -3.520  -1.094  0.00  0.00    +0.002 C 
ATOM     37  C   UNL     1      -0.329  -3.222   0.306  0.00  0.00    +0.002 C 
ATOM     38  C   UNL     1       0.654  -2.206   0.924  0.00  0.00    +0.027 C 
ENDBRANCH  33  34
ENDBRANCH   1  29
TORSDOF 6
