REMARK  Name = ZINC00931402
REMARK  11 active torsions:
REMARK  status: ('A' for Active; 'I' for Inactive)
REMARK    1  A    between atoms: C_1  and  C_2
REMARK    2  A    between atoms: C_3  and  C_8
REMARK    3  A    between atoms: N_5  and  C_7
REMARK    4  A    between atoms: C_8  and  C_10
REMARK    5  A    between atoms: C_8  and  N_19
REMARK    6  A    between atoms: N_12  and  C_13
REMARK    7  A    between atoms: N_19  and  C_20
REMARK    8  A    between atoms: C_20  and  C_21
REMARK    9  A    between atoms: C_25  and  O_27
REMARK   10  A    between atoms: O_27  and  C_28
REMARK   11  A    between atoms: C_29  and  C_31
REMARK                            x       y       z     vdW  Elec       q    Type
REMARK                         _______ _______ _______ _____ _____    ______ ____
ROOT
ATOM      1  N   UNL     1      -1.906  -1.733  -0.212  0.00  0.00    -0.278 N 
ATOM      2  C   UNL     1      -1.709  -0.536   0.376  0.00  0.00    +0.261 C 
ATOM      3  O   UNL     1      -2.366   0.424   0.032  0.00  0.00    -0.271 OA
ENDROOT
BRANCH   2   4
ATOM      4  C   UNL     1      -0.673  -0.390   1.460  0.00  0.00    +0.296 C 
ATOM      5  C   UNL     1       0.731  -0.409   0.841  0.00  0.00    +0.283 C 
ATOM      6  O   UNL     1       1.688  -0.256   1.895  0.00  0.00    -0.484 OA
ATOM      7  C   UNL     1       1.440   0.722   2.808  0.00  0.00    +0.162 A 
ATOM      8  C   UNL     1       2.468   1.165   3.627  0.00  0.00    +0.049 A 
ATOM      9  C   UNL     1       2.231   2.156   4.562  0.00  0.00    +0.004 A 
ATOM     10  C   UNL     1       0.969   2.707   4.683  0.00  0.00    +0.004 A 
ATOM     11  C   UNL     1      -0.060   2.271   3.869  0.00  0.00    +0.049 A 
ATOM     12  C   UNL     1       0.172   1.278   2.929  0.00  0.00    +0.163 A 
ATOM     13  O   UNL     1      -0.850   0.862   2.132  0.00  0.00    -0.473 OA
ENDBRANCH   2   4
BRANCH   1  14
ATOM     14  C   UNL     1      -2.867  -1.860  -1.310  0.00  0.00    +0.196 C 
BRANCH  14  17
ATOM     15  C   UNL     1      -0.318  -0.336  -2.415  0.00  0.00    +0.068 C 
ATOM     16  C   UNL     1      -1.006  -1.503  -3.076  0.00  0.00    +0.065 A 
ATOM     17  C   UNL     1      -2.132  -2.175  -2.587  0.00  0.00    +0.022 A 
ATOM     18  C   UNL     1      -2.440  -3.160  -3.462  0.00  0.00    +0.114 A 
ATOM     19  N   UNL     1      -1.547  -3.108  -4.472  0.00  0.00    -0.274 N 
ATOM     20  N   UNL     1      -0.655  -2.062  -4.205  0.00  0.00    -0.176 NA
ATOM     21  C   UNL     1      -1.512  -3.994  -5.638  0.00  0.00    +0.172 C 
ENDBRANCH  14  17
BRANCH  14  22
ATOM     22  C   UNL     1      -3.837  -2.972  -1.002  0.00  0.00    +0.238 C 
ATOM     23  O   UNL     1      -3.702  -3.633   0.005  0.00  0.00    -0.273 OA
ATOM     24  N   UNL     1      -4.855  -3.231  -1.847  0.00  0.00    -0.311 N 
ATOM     25  H   UNL     1      -4.923  -2.751  -2.687  0.00  0.00    +0.149 HD
BRANCH  24  26
ATOM     26  C   UNL     1      -5.859  -4.238  -1.496  0.00  0.00    +0.073 C 
ATOM     27  C   UNL     1      -5.358  -5.624  -1.908  0.00  0.00    +0.022 C 
ATOM     28  C   UNL     1      -6.407  -6.676  -1.542  0.00  0.00    +0.002 C 
ATOM     29  C   UNL     1      -7.715  -6.368  -2.274  0.00  0.00    +0.000 C 
ATOM     30  C   UNL     1      -8.216  -4.983  -1.861  0.00  0.00    +0.002 C 
ATOM     31  C   UNL     1      -7.167  -3.931  -2.228  0.00  0.00    +0.022 C 
ENDBRANCH  24  26
ENDBRANCH  14  22
ENDBRANCH   1  14
BRANCH   1  32
ATOM     32  C   UNL     1      -1.159  -2.906   0.248  0.00  0.00    +0.144 C 
BRANCH  32  33
ATOM     33  C   UNL     1      -0.522  -3.590  -0.934  0.00  0.00    -0.027 A 
ATOM     34  C   UNL     1       0.699  -3.151  -1.411  0.00  0.00    +0.005 A 
ATOM     35  C   UNL     1       1.287  -3.777  -2.495  0.00  0.00    +0.004 A 
ATOM     36  C   UNL     1       0.655  -4.844  -3.103  0.00  0.00    +0.045 A 
ATOM     37  C   UNL     1      -0.571  -5.287  -2.627  0.00  0.00    +0.120 A 
ATOM     38  C   UNL     1      -1.155  -4.660  -1.536  0.00  0.00    +0.050 A 
BRANCH  37  39
ATOM     39  O   UNL     1      -1.194  -6.337  -3.224  0.00  0.00    -0.495 OA
ATOM     40  C   UNL     1      -0.476  -7.016  -4.255  0.00  0.00    +0.277 C 
ENDBRANCH  37  39
ENDBRANCH  32  33
ENDBRANCH   1  32
TORSDOF 8
