REMARK  Name = ZINC05610865
REMARK  12 active torsions:
REMARK  status: ('A' for Active; 'I' for Inactive)
REMARK    1  A    between atoms: C_1  and  C_2
REMARK    2  A    between atoms: C_2  and  C_3
REMARK    3  A    between atoms: C_3  and  C_5
REMARK    4  A    between atoms: C_3  and  N_62
REMARK    5  A    between atoms: C_6  and  C_7
REMARK    6  A    between atoms: C_6  and  N_62
REMARK    7  A    between atoms: C_7  and  C_9
REMARK    8  A    between atoms: C_7  and  O_32
REMARK    9  A    between atoms: C_9  and  N_10
REMARK   10  A    between atoms: C_14  and  C_31
REMARK   11  A    between atoms: C_17  and  C_25
REMARK   12  A    between atoms: C_18  and  C_19
REMARK                            x       y       z     vdW  Elec       q    Type
REMARK                         _______ _______ _______ _____ _____    ______ ____
ROOT
ATOM      1  N   UNL     1      -4.704   0.899  -4.090  0.00  0.00    -0.337 N 
ATOM      2  C   UNL     1      -4.663   0.595  -5.434  0.00  0.00    +0.050 A 
ATOM      3  C   UNL     1      -4.044  -0.421  -6.158  0.00  0.00    +0.027 A 
ATOM      4  C   UNL     1      -4.185  -0.471  -7.527  0.00  0.00    +0.005 A 
ATOM      5  C   UNL     1      -4.939   0.483  -8.196  0.00  0.00    -0.050 A 
ATOM      6  C   UNL     1      -5.555   1.489  -7.506  0.00  0.00    +0.014 A 
ATOM      7  C   UNL     1      -5.426   1.558  -6.118  0.00  0.00    +0.008 A 
ATOM      8  C   UNL     1      -5.941   2.479  -5.095  0.00  0.00    +0.015 A 
ATOM      9  C   UNL     1      -5.471   2.020  -3.882  0.00  0.00    +0.058 A 
ATOM     10  C   UNL     1      -5.080   0.409  -9.695  0.00  0.00    +0.044 C 
ENDROOT
BRANCH   9  11
ATOM     11  C   UNL     1      -5.745   2.637  -2.570  0.00  0.00    -0.001 A 
ATOM     12  C   UNL     1      -7.062   2.842  -2.152  0.00  0.00    +0.010 A 
ATOM     13  C   UNL     1      -7.311   3.415  -0.922  0.00  0.00    +0.001 A 
ATOM     14  C   UNL     1      -6.259   3.796  -0.107  0.00  0.00    +0.000 A 
ATOM     15  C   UNL     1      -4.952   3.600  -0.516  0.00  0.00    +0.001 A 
ATOM     16  C   UNL     1      -4.689   3.024  -1.742  0.00  0.00    +0.010 A 
ENDBRANCH   9  11
BRANCH   8  17
ATOM     17  C   UNL     1      -6.799   3.663  -5.321  0.00  0.00    -0.015 A 
ATOM     18  C   UNL     1      -6.313   4.943  -5.051  0.00  0.00    +0.008 A 
ATOM     19  C   UNL     1      -7.117   6.043  -5.269  0.00  0.00    +0.001 A 
ATOM     20  C   UNL     1      -8.406   5.878  -5.744  0.00  0.00    +0.000 A 
ATOM     21  C   UNL     1      -8.896   4.612  -6.008  0.00  0.00    +0.001 A 
ATOM     22  C   UNL     1      -8.100   3.504  -5.800  0.00  0.00    +0.008 A 
ENDBRANCH   8  17
BRANCH   1  23
ATOM     23  C   UNL     1      -4.034   0.134  -3.036  0.00  0.00    +0.151 C 
BRANCH  23  24
ATOM     24  C   UNL     1      -2.580   0.596  -2.918  0.00  0.00    +0.117 C 
BRANCH  24  25
ATOM     25  O   UNL     1      -1.875   0.262  -4.116  0.00  0.00    -0.392 OA
ATOM     26  H   UNL     1      -1.859  -0.684  -4.312  0.00  0.00    +0.210 HD
ENDBRANCH  24  25
BRANCH  24  27
ATOM     27  C   UNL     1      -1.919  -0.102  -1.727  0.00  0.00    -0.049 C 
BRANCH  27  28
ATOM     28  N   UNL     1      -0.557   0.437  -1.547  0.00  0.00    +0.382 N 
ATOM     29  H   UNL     1      -0.010   0.266  -2.399  0.00  0.00    -0.085 HD
ATOM     30  H   UNL     1      -0.613   1.447  -1.373  0.00  0.00    -0.085 HD
BRANCH  28  31
ATOM     31  C   UNL     1       0.105  -0.218  -0.403  0.00  0.00    -0.075 C 
ATOM     32  C   UNL     1      -0.282   0.499   0.891  0.00  0.00    -0.014 C 
BRANCH  31  34
ATOM     33  C   UNL     1       2.023  -0.968  -1.819  0.00  0.00    +0.002 C 
ATOM     34  C   UNL     1       1.622  -0.145  -0.592  0.00  0.00    -0.019 C 
ENDBRANCH  31  34
ENDBRANCH  28  31
ENDBRANCH  27  28
ENDBRANCH  24  27
ENDBRANCH  23  24
ENDBRANCH   1  23
TORSDOF 9
