REMARK  Name = ZINC40708631
REMARK  5 active torsions:
REMARK  status: ('A' for Active; 'I' for Inactive)
REMARK    1  A    between atoms: C_1  and  O_2
REMARK    2  A    between atoms: O_2  and  C_3
REMARK    3  A    between atoms: C_14  and  N_26
REMARK    4  A    between atoms: C_15  and  N_19
REMARK    5  A    between atoms: N_19  and  C_20
REMARK                            x       y       z     vdW  Elec       q    Type
REMARK                         _______ _______ _______ _____ _____    ______ ____
ROOT
ATOM      1  C   UNL     1      -1.201  -0.638   0.010  0.00  0.00    +0.121 A 
ATOM      2  C   UNL     1      -2.383   0.096   0.019  0.00  0.00    +0.048 A 
ATOM      3  C   UNL     1      -3.607  -0.520   0.028  0.00  0.00    +0.032 A 
ATOM      4  C   UNL     1      -3.708  -1.931   0.027  0.00  0.00    +0.081 A 
ATOM      5  C   UNL     1      -2.488  -2.645   0.017  0.00  0.00    +0.044 A 
ATOM      6  C   UNL     1      -1.264  -2.023   0.003  0.00  0.00    +0.063 A 
ATOM      7  S   UNL     1      -3.039  -4.334   0.018  0.00  0.00    -0.052 S 
ATOM      8  C   UNL     1      -4.794  -3.999   0.032  0.00  0.00    +0.165 A 
ATOM      9  N   UNL     1      -4.829  -2.687   0.034  0.00  0.00    -0.225 NA
ATOM     10  N   UNL     1      -5.848  -4.894   0.039  0.00  0.00    -0.277 N 
ATOM     11  C   UNL     1      -7.158  -4.426   0.049  0.00  0.00    +0.150 A 
ATOM     12  C   UNL     1      -8.230  -5.321   0.062  0.00  0.00    +0.106 A 
ATOM     13  C   UNL     1      -9.524  -4.798   0.072  0.00  0.00    +0.145 A 
ATOM     14  N   UNL     1      -9.686  -3.477   0.069  0.00  0.00    -0.219 NA
ATOM     15  C   UNL     1      -8.646  -2.667   0.057  0.00  0.00    +0.225 A 
ATOM     16  N   UNL     1      -7.409  -3.120   0.053  0.00  0.00    -0.219 NA
ATOM     17  H   UNL     1      -5.673  -5.849   0.036  0.00  0.00    +0.156 HD
ENDROOT
BRANCH  12  18
ATOM     18  N   UNL     1      -8.012  -6.708   0.064  0.00  0.00    -0.353 N 
ATOM     19  H   UNL     1      -7.107  -7.056   0.056  0.00  0.00    +0.143 HD
ATOM     20  H   UNL     1      -8.767  -7.317   0.072  0.00  0.00    +0.143 HD
ENDBRANCH  12  18
BRANCH   1  22
ATOM     21  C   UNL     1      -0.017   1.425   0.010  0.00  0.00    +0.277 C 
ATOM     22  O   UNL     1       0.002  -0.004   0.002  0.00  0.00    -0.495 OA
ENDBRANCH   1  22
BRANCH  13  23
ATOM     23  N   UNL     1     -10.627  -5.644   0.084  0.00  0.00    -0.325 N 
ATOM     24  H   UNL     1     -10.501  -6.605   0.086  0.00  0.00    +0.148 HD
BRANCH  23  25
ATOM     25  C   UNL     1     -11.980  -5.083   0.095  0.00  0.00    +0.072 C 
ATOM     26  C   UNL     1     -12.391  -4.768   1.534  0.00  0.00    +0.022 C 
ATOM     27  C   UNL     1     -13.804  -4.182   1.545  0.00  0.00    +0.002 C 
ATOM     28  C   UNL     1     -14.781  -5.196   0.947  0.00  0.00    +0.000 C 
ATOM     29  C   UNL     1     -14.371  -5.512  -0.492  0.00  0.00    +0.002 C 
ATOM     30  C   UNL     1     -12.957  -6.097  -0.503  0.00  0.00    +0.022 C 
ENDBRANCH  23  25
ENDBRANCH  13  23
TORSDOF 4
