REMARK  Name = ZINC61594671
REMARK  7 active torsions:
REMARK  status: ('A' for Active; 'I' for Inactive)
REMARK    1  A    between atoms: C_1  and  C_2
REMARK    2  A    between atoms: C_2  and  C_4
REMARK    3  A    between atoms: C_2  and  N_23
REMARK    4  A    between atoms: C_4  and  C_6
REMARK    5  A    between atoms: C_4  and  S_12
REMARK    6  A    between atoms: S_12  and  C_13
REMARK    7  A    between atoms: N_19  and  C_20
REMARK                            x       y       z     vdW  Elec       q    Type
REMARK                         _______ _______ _______ _____ _____    ______ ____
ROOT
ATOM      1  C   UNL     1       0.714  -0.423   1.290  0.00  0.00    +0.076 C 
ENDROOT
BRANCH   1   2
ATOM      2  C   UNL     1       0.978  -1.896   1.108  0.00  0.00    +0.003 A 
ATOM      3  C   UNL     1       0.592  -2.935   1.888  0.00  0.00    +0.013 A 
ATOM      4  C   UNL     1       0.952  -4.218   1.522  0.00  0.00    +0.023 A 
ATOM      5  C   UNL     1       1.681  -4.400   0.393  0.00  0.00    +0.055 A 
ATOM      6  S   UNL     1       1.873  -2.725  -0.195  0.00  0.00    -0.085 S 
ATOM      7 BR   UNL     1       2.322  -6.009  -0.365  0.00  0.00    -0.043 Br
ENDBRANCH   1   2
BRANCH   1   9
ATOM      8  C   UNL     1      -1.426  -0.594   0.011  0.00  0.00    -0.013 C 
ATOM      9  C   UNL     1      -0.068   0.107   0.087  0.00  0.00    -0.060 C 
BRANCH   9  10
ATOM     10  N   UNL     1      -0.271   1.555   0.234  0.00  0.00    +0.381 N 
ATOM     11  H   UNL     1       0.625   2.017   0.284  0.00  0.00    -0.090 HD
ATOM     12  H   UNL     1      -0.787   1.905  -0.559  0.00  0.00    -0.090 HD
ATOM     13  H   UNL     1      -0.791   1.737   1.080  0.00  0.00    -0.090 HD
ENDBRANCH   9  10
ENDBRANCH   1   9
BRANCH   1  14
ATOM     14  S   UNL     1       2.292   0.461   1.423  0.00  0.00    -0.079 S 
BRANCH  14  15
ATOM     15  C   UNL     1       2.968  -0.101   2.950  0.00  0.00    +0.193 A 
ATOM     16  N   UNL     1       2.370  -0.881   3.804  0.00  0.00    -0.145 NA
ATOM     17  N   UNL     1       3.240  -1.091   4.883  0.00  0.00    -0.226 N 
ATOM     18  H   UNL     1       3.061  -1.632   5.668  0.00  0.00    +0.194 HD
ATOM     19  C   UNL     1       4.372  -0.403   4.629  0.00  0.00    +0.345 A 
ATOM     20  O   UNL     1       5.356  -0.347   5.344  0.00  0.00    -0.245 OA
ATOM     21  N   UNL     1       4.218   0.207   3.437  0.00  0.00    -0.268 N 
BRANCH  21  22
ATOM     22  C   UNL     1       5.211   1.056   2.774  0.00  0.00    +0.094 C 
ATOM     23  C   UNL     1       6.614   1.111   3.383  0.00  0.00    +0.027 C 
ATOM     24  C   UNL     1       5.675   2.312   3.515  0.00  0.00    +0.027 C 
ENDBRANCH  21  22
ENDBRANCH  14  15
ENDBRANCH   1  14
TORSDOF 6
