REMARK  Name = ZINC13016095
REMARK  8 active torsions:
REMARK  status: ('A' for Active; 'I' for Inactive)
REMARK    1  A    between atoms: C_1  and  C_2
REMARK    2  A    between atoms: C_2  and  C_4
REMARK    3  A    between atoms: C_2  and  S_16
REMARK    4  A    between atoms: N_6  and  C_7
REMARK    5  A    between atoms: N_6  and  C_8
REMARK    6  A    between atoms: S_16  and  C_17
REMARK    7  A    between atoms: C_20  and  C_29
REMARK    8  A    between atoms: N_21  and  C_22
REMARK                            x       y       z     vdW  Elec       q    Type
REMARK                         _______ _______ _______ _____ _____    ______ ____
ROOT
ATOM      1  C   UNL     1       2.916  -6.627   0.583  0.00  0.00    +0.175 A 
ATOM      2  N   UNL     1       2.938  -6.551   1.900  0.00  0.00    -0.229 NA
ATOM      3  C   UNL     1       3.082  -7.767   2.422  0.00  0.00    +0.147 A 
ATOM      4  C   UNL     1       3.165  -8.671   1.383  0.00  0.00    +0.156 A 
ATOM      5  N   UNL     1       3.058  -7.927   0.211  0.00  0.00    -0.282 N 
ENDROOT
BRANCH   5   6
ATOM      6  C   UNL     1       3.090  -8.423  -1.100  0.00  0.00    +0.049 A 
ATOM      7  C   UNL     1       1.964  -8.326  -1.907  0.00  0.00    +0.029 A 
ATOM      8  C   UNL     1       1.999  -8.811  -3.200  0.00  0.00    +0.040 A 
ATOM      9  C   UNL     1       3.152  -9.404  -3.687  0.00  0.00    +0.124 A 
ATOM     10  C   UNL     1       4.274  -9.505  -2.882  0.00  0.00    +0.040 A 
ATOM     11  C   UNL     1       4.245  -9.017  -1.591  0.00  0.00    +0.029 A 
ATOM     12  F   UNL     1       3.182  -9.882  -4.950  0.00  0.00    -0.205 F 
ENDBRANCH   5   6
BRANCH   4  13
ATOM     13  C   UNL     1       3.328 -10.074   1.488  0.00  0.00    +0.405 C 
ATOM     14  O   UNL     1       3.409 -10.597   2.584  0.00  0.00    -0.239 OA
ATOM     15  O   UNL     1       3.394 -10.831   0.373  0.00  0.00    -0.239 OA
ENDBRANCH   4  13
BRANCH   1  16
ATOM     16  S   UNL     1       2.740  -5.262  -0.516  0.00  0.00    -0.075 S 
BRANCH  16  18
ATOM     17  C   UNL     1       3.923  -3.780   1.450  0.00  0.00    +0.029 C 
ATOM     18  C   UNL     1       2.608  -3.909   0.680  0.00  0.00    +0.137 C 
BRANCH  18  19
ATOM     19  C   UNL     1       2.322  -2.621  -0.048  0.00  0.00    +0.229 C 
ATOM     20  O   UNL     1       2.570  -2.525  -1.231  0.00  0.00    -0.274 OA
ATOM     21  N   UNL     1       1.791  -1.575   0.616  0.00  0.00    -0.299 N 
ATOM     22  C   UNL     1       1.492  -1.691   2.045  0.00  0.00    +0.132 C 
BRANCH  21  23
ATOM     23  C   UNL     1       1.514  -0.323  -0.091  0.00  0.00    +0.098 C 
ATOM     24  C   UNL     1       2.330   0.814   0.546  0.00  0.00    +0.046 C 
ATOM     25  C   UNL     1       1.790   2.165  -0.003  0.00  0.00    +0.168 C 
ATOM     26  S   UNL     1      -0.023   1.835   0.012  0.00  0.00    -0.029 S 
ATOM     27  O   UNL     1      -0.587   2.296  -1.208  0.00  0.00    -0.174 OA
ATOM     28  O   UNL     1      -0.564   2.283   1.247  0.00  0.00    -0.174 OA
ATOM     29  C   UNL     1       0.002  -0.004   0.002  0.00  0.00    +0.188 C 
ENDBRANCH  21  23
ENDBRANCH  18  19
ENDBRANCH  16  18
ENDBRANCH   1  16
TORSDOF 6
