REMARK  Name = ZINC02330934
REMARK  8 active torsions:
REMARK  status: ('A' for Active; 'I' for Inactive)
REMARK    1  A    between atoms: C_1  and  C_2
REMARK    2  A    between atoms: C_11  and  C_18
REMARK    3  A    between atoms: N_20  and  C_21
REMARK    4  A    between atoms: C_21  and  C_22
REMARK    5  A    between atoms: C_22  and  C_23
REMARK    6  A    between atoms: C_23  and  N_50
REMARK    7  A    between atoms: C_24  and  N_50
REMARK    8  A    between atoms: C_25  and  N_50
REMARK                            x       y       z     vdW  Elec       q    Type
REMARK                         _______ _______ _______ _____ _____    ______ ____
ROOT
ATOM      1  C   UNL     1      -0.013   1.086   0.008  0.00  0.00    +0.008 C 
ATOM      2  C   UNL     1      -0.729   1.579   1.267  0.00  0.00    -0.009 C 
ATOM      3  C   UNL     1       0.011   1.067   2.506  0.00  0.00    +0.009 C 
ATOM      4  C   UNL     1      -0.855   1.344   3.744  0.00  0.00    +0.043 C 
ATOM      5  C   UNL     1      -1.333   2.761   3.678  0.00  0.00    -0.004 A 
ATOM      6  C   UNL     1      -1.312   3.588   2.608  0.00  0.00    -0.024 A 
ATOM      7  C   UNL     1      -1.822   4.900   2.780  0.00  0.00    +0.055 A 
ATOM      8  C   UNL     1      -1.914   5.989   1.784  0.00  0.00    +0.168 A 
ATOM      9  N   UNL     1      -1.574   6.082   0.517  0.00  0.00    -0.202 NA
ATOM     10  C   UNL     1      -1.873   7.306   0.064  0.00  0.00    +0.237 A 
ATOM     11  N   UNL     1      -2.409   8.013   1.040  0.00  0.00    -0.139 NA
ATOM     12  N   UNL     1      -2.449   7.186   2.172  0.00  0.00    -0.201 N 
ATOM     13  C   UNL     1      -2.888   7.370   3.448  0.00  0.00    +0.226 A 
ATOM     14  N   UNL     1      -2.813   6.421   4.339  0.00  0.00    -0.228 NA
ATOM     15  C   UNL     1      -2.310   5.226   4.057  0.00  0.00    +0.114 A 
ATOM     16  S   UNL     1      -2.053   3.730   4.978  0.00  0.00    -0.073 S 
ATOM     17  C   UNL     1      -0.753   3.108   1.271  0.00  0.00    +0.040 C 
ENDROOT
BRANCH  10  18
ATOM     18  C   UNL     1      -1.638   7.789  -1.315  0.00  0.00    +0.283 C 
ATOM     19  O   UNL     1      -1.136   7.051  -2.141  0.00  0.00    -0.267 OA
ATOM     20  N   UNL     1      -1.982   9.047  -1.656  0.00  0.00    -0.309 N 
ATOM     21  H   UNL     1      -2.383   9.635  -0.998  0.00  0.00    +0.149 HD
BRANCH  20  22
ATOM     22  C   UNL     1      -1.750   9.525  -3.021  0.00  0.00    +0.103 C 
BRANCH  22  23
ATOM     23  C   UNL     1      -2.226  10.974  -3.142  0.00  0.00    +0.000 C 
BRANCH  23  24
ATOM     24  C   UNL     1      -1.984  11.474  -4.567  0.00  0.00    -0.078 C 
BRANCH  24  27
ATOM     25  C   UNL     1      -1.620  13.759  -3.855  0.00  0.00    -0.097 C 
ATOM     26  C   UNL     1      -2.446  13.303  -6.085  0.00  0.00    -0.097 C 
ATOM     27  N   UNL     1      -2.468  12.867  -4.673  0.00  0.00    +0.376 N 
ATOM     28  H   UNL     1      -3.433  12.912  -4.325  0.00  0.00    -0.083 HD
ENDBRANCH  24  27
ENDBRANCH  23  24
ENDBRANCH  22  23
ENDBRANCH  20  22
ENDBRANCH  10  18
TORSDOF 5
