REMARK  Name = ZINC15071227
REMARK  14 active torsions:
REMARK  status: ('A' for Active; 'I' for Inactive)
REMARK    1  A    between atoms: C_1  and  N_57
REMARK    2  A    between atoms: C_2  and  C_3
REMARK    3  A    between atoms: C_2  and  N_57
REMARK    4  A    between atoms: C_3  and  C_5
REMARK    5  A    between atoms: C_3  and  O_18
REMARK    6  A    between atoms: C_5  and  O_6
REMARK    7  A    between atoms: O_6  and  C_7
REMARK    8  A    between atoms: C_11  and  C_13
REMARK    9  A    between atoms: C_13  and  N_59
REMARK   10  A    between atoms: C_14  and  C_15
REMARK   11  A    between atoms: C_14  and  N_59
REMARK   12  A    between atoms: C_15  and  S_16
REMARK   13  A    between atoms: S_16  and  C_17
REMARK   14  A    between atoms: C_19  and  N_57
REMARK                            x       y       z     vdW  Elec       q    Type
REMARK                         _______ _______ _______ _____ _____    ______ ____
ROOT
ATOM      1  O   UNL     1       0.066  -0.019  -0.494  0.00  0.00    -0.489 OA
ENDROOT
BRANCH   1   2
ATOM      2  C   UNL     1       0.049   1.339  -0.542  0.00  0.00    +0.121 A 
ATOM      3  C   UNL     1       1.223   2.056  -0.360  0.00  0.00    +0.045 A 
ATOM      4  C   UNL     1       1.203   3.436  -0.409  0.00  0.00    +0.004 A 
ATOM      5  C   UNL     1       0.015   4.104  -0.639  0.00  0.00    +0.002 A 
ATOM      6  C   UNL     1      -1.157   3.392  -0.820  0.00  0.00    -0.061 A 
ATOM      7  C   UNL     1      -1.141   2.011  -0.777  0.00  0.00    +0.047 A 
BRANCH   6   8
ATOM      8  C   UNL     1      -2.450   4.123  -1.071  0.00  0.00    -0.047 C 
BRANCH   8   9
ATOM      9  N   UNL     1      -2.625   4.312  -2.524  0.00  0.00    +0.382 N 
ATOM     10  H   UNL     1      -2.648   3.394  -2.984  0.00  0.00    -0.085 HD
ATOM     11  H   UNL     1      -1.838   4.859  -2.892  0.00  0.00    -0.085 HD
BRANCH   9  12
ATOM     12  C   UNL     1      -3.886   5.026  -2.800  0.00  0.00    -0.071 C 
BRANCH  12  13
ATOM     13  C   UNL     1      -4.040   5.206  -4.311  0.00  0.00    +0.050 C 
BRANCH  13  14
ATOM     14  S   UNL     1      -5.588   6.084  -4.661  0.00  0.00    -0.166 S 
ATOM     15  C   UNL     1      -5.619   6.216  -6.470  0.00  0.00    +0.084 C 
ENDBRANCH  13  14
ENDBRANCH  12  13
ENDBRANCH   9  12
ENDBRANCH   8   9
ENDBRANCH   6   8
ENDBRANCH   1   2
BRANCH   1  16
ATOM     16  C   UNL     1       1.328  -0.644  -0.254  0.00  0.00    +0.258 C 
BRANCH  16  17
ATOM     17  C   UNL     1       1.150  -2.163  -0.235  0.00  0.00    +0.135 C 
BRANCH  17  18
ATOM     18  O   UNL     1       0.747  -2.611  -1.531  0.00  0.00    -0.390 OA
ATOM     19  H   UNL     1       1.381  -2.407  -2.232  0.00  0.00    +0.210 HD
ENDBRANCH  17  18
BRANCH  17  20
ATOM     20  C   UNL     1       2.474  -2.828   0.145  0.00  0.00    -0.044 C 
BRANCH  20  22
ATOM     21  C   UNL     1       3.588  -4.977   0.191  0.00  0.00    -0.096 C 
ATOM     22  N   UNL     1       2.278  -4.292   0.180  0.00  0.00    +0.381 N 
ATOM     23  H   UNL     1       1.759  -4.579  -0.658  0.00  0.00    -0.082 HD
BRANCH  22  24
ATOM     24  C   UNL     1       1.501  -4.669   1.379  0.00  0.00    -0.069 C 
ATOM     25  C   UNL     1       2.277  -4.326   2.652  0.00  0.00    -0.015 C 
ATOM     26  C   UNL     1       1.452  -4.727   3.876  0.00  0.00    -0.002 C 
ATOM     27  C   UNL     1       1.179  -6.232   3.837  0.00  0.00    -0.000 C 
ATOM     28  C   UNL     1       0.402  -6.575   2.564  0.00  0.00    -0.002 C 
ATOM     29  C   UNL     1       1.227  -6.174   1.339  0.00  0.00    -0.015 C 
ENDBRANCH  22  24
ENDBRANCH  20  22
ENDBRANCH  17  20
ENDBRANCH  16  17
ENDBRANCH   1  16
TORSDOF 12
