REMARK  Name = ZINC39677132
REMARK  8 active torsions:
REMARK  status: ('A' for Active; 'I' for Inactive)
REMARK    1  A    between atoms: C_1  and  C_2
REMARK    2  A    between atoms: C_6  and  C_7
REMARK    3  A    between atoms: C_7  and  N_8
REMARK    4  A    between atoms: C_9  and  C_11
REMARK    5  A    between atoms: C_22  and  C_24
REMARK    6  A    between atoms: C_29  and  O_30
REMARK    7  A    between atoms: O_30  and  C_31
REMARK    8  A    between atoms: C_31  and  C_33
REMARK                            x       y       z     vdW  Elec       q    Type
REMARK                         _______ _______ _______ _____ _____    ______ ____
ROOT
ATOM      1  C   UNL     1      -3.313   0.336   5.073  0.00  0.00    +0.100 C 
ATOM      2  C   UNL     1      -3.864   1.468   4.177  0.00  0.00    +0.121 C 
ATOM      3  N   UNL     1      -4.646   2.327   5.097  0.00  0.00    -0.296 N 
ATOM      4  C   UNL     1      -3.841   2.363   6.341  0.00  0.00    +0.115 C 
ATOM      5  C   UNL     1      -3.299   0.928   6.492  0.00  0.00    -0.004 C 
ATOM      6  C   UNL     1      -1.875   0.957   7.038  0.00  0.00    -0.010 C 
ATOM      7  C   UNL     1      -1.893   1.494   8.472  0.00  0.00    -0.082 C 
ATOM      8  N   UNL     1      -2.742   0.636   9.308  0.00  0.00    +0.379 N 
ATOM      9  C   UNL     1      -4.129   0.687   8.831  0.00  0.00    -0.082 C 
ATOM     10  C   UNL     1      -4.205   0.115   7.412  0.00  0.00    -0.010 C 
ATOM     11  C   UNL     1      -5.823   2.938   4.857  0.00  0.00    +0.250 C 
ATOM     12  O   UNL     1      -6.297   3.691   5.685  0.00  0.00    -0.270 OA
ATOM     13  H   UNL     1      -2.406  -0.315   9.261  0.00  0.00    -0.086 HD
ATOM     14  H   UNL     1      -2.704   0.956  10.264  0.00  0.00    -0.086 HD
ENDROOT
BRANCH  11  15
ATOM     15  C   UNL     1      -6.537   2.692   3.588  0.00  0.00    +0.079 A 
ATOM     16  C   UNL     1      -5.820   2.496   2.406  0.00  0.00    +0.017 A 
ATOM     17  C   UNL     1      -6.492   2.266   1.225  0.00  0.00    +0.001 A 
ATOM     18  C   UNL     1      -7.877   2.228   1.205  0.00  0.00    +0.004 A 
ATOM     19  C   UNL     1      -8.597   2.420   2.367  0.00  0.00    +0.047 A 
ATOM     20  C   UNL     1      -7.937   2.647   3.565  0.00  0.00    +0.144 A 
BRANCH  20  21
ATOM     21  O   UNL     1      -8.644   2.831   4.709  0.00  0.00    -0.425 OA
BRANCH  21  22
ATOM     22  C   UNL     1      -8.889   1.757   5.478  0.00  0.00    +0.309 C 
ATOM     23  O   UNL     1      -8.407   0.687   5.192  0.00  0.00    -0.251 OA
ATOM     24  C   UNL     1      -9.765   1.888   6.697  0.00  0.00    +0.136 C 
ENDBRANCH  21  22
ENDBRANCH  20  21
ENDBRANCH  11  15
BRANCH   1  26
ATOM     25  N   UNL     1      -1.430  -1.261   4.937  0.00  0.00    -0.310 N 
ATOM     26  C   UNL     1      -1.917  -0.039   4.647  0.00  0.00    +0.218 C 
ATOM     27  O   UNL     1      -1.233   0.759   4.042  0.00  0.00    -0.275 OA
ATOM     28  H   UNL     1      -1.977  -1.900   5.421  0.00  0.00    +0.149 HD
BRANCH  25  29
ATOM     29  C   UNL     1      -0.073  -1.626   4.523  0.00  0.00    +0.147 C 
BRANCH  29  35
ATOM     30  C   UNL     1      -0.592  -4.200   2.928  0.00  0.00    +0.044 C 
ATOM     31  C   UNL     1       0.019  -4.200   4.306  0.00  0.00    -0.039 A 
ATOM     32  C   UNL     1       0.381  -5.388   4.912  0.00  0.00    +0.011 A 
ATOM     33  C   UNL     1       0.929  -5.353   6.152  0.00  0.00    +0.046 A 
ATOM     34  S   UNL     1       0.945  -3.602   6.499  0.00  0.00    -0.100 S 
ATOM     35  C   UNL     1       0.227  -3.035   4.966  0.00  0.00    +0.010 A 
ENDBRANCH  29  35
ENDBRANCH  25  29
ENDBRANCH   1  26
TORSDOF 6
