REMARK  Name = ZINC59302546
REMARK  4 active torsions:
REMARK  status: ('A' for Active; 'I' for Inactive)
REMARK    1  A    between atoms: C_1  and  C_2
REMARK    2  A    between atoms: C_3  and  C_12
REMARK    3  A    between atoms: N_10  and  C_11
REMARK    4  A    between atoms: N_18  and  C_19
REMARK                            x       y       z     vdW  Elec       q    Type
REMARK                         _______ _______ _______ _____ _____    ______ ____
ROOT
ATOM      1  C   UNL     1      -0.006  -0.324  -2.508  0.00  0.00    +0.030 C 
ATOM      2  C   UNL     1       0.899  -0.816  -3.397  0.00  0.00    +0.078 C 
ATOM      3  C   UNL     1       1.933  -1.778  -3.196  0.00  0.00    +0.256 C 
ATOM      4  O   UNL     1       2.105  -2.288  -2.103  0.00  0.00    -0.269 OA
ATOM      5  N   UNL     1       2.698  -2.102  -4.223  0.00  0.00    -0.260 N 
ATOM      6  C   UNL     1       2.489  -1.515  -5.455  0.00  0.00    +0.166 C 
ATOM      7  N   UNL     1       3.140  -1.708  -6.581  0.00  0.00    -0.226 NA
ATOM      8  S   UNL     1       1.105  -0.433  -5.131  0.00  0.00    -0.049 S 
ATOM      9  H   UNL     1       3.408  -2.754  -4.112  0.00  0.00    +0.157 HD
ENDROOT
BRANCH   1  12
ATOM     10  C   UNL     1      -0.018   1.503   0.010  0.00  0.00    +0.064 C 
ATOM     11  C   UNL     1       0.002  -0.004   0.002  0.00  0.00    +0.024 A 
ATOM     12  C   UNL     1       0.008  -0.785  -1.119  0.00  0.00    +0.004 A 
ATOM     13  C   UNL     1       0.030  -2.185  -0.654  0.00  0.00    +0.007 A 
ATOM     14  C   UNL     1       0.043  -3.418  -1.300  0.00  0.00    +0.010 A 
ATOM     15  C   UNL     1       0.062  -4.578  -0.556  0.00  0.00    +0.001 A 
ATOM     16  C   UNL     1       0.068  -4.520   0.830  0.00  0.00    +0.002 A 
ATOM     17  C   UNL     1       0.054  -3.307   1.482  0.00  0.00    +0.026 A 
ATOM     18  C   UNL     1       0.036  -2.124   0.749  0.00  0.00    +0.050 A 
ATOM     19  N   UNL     1       0.024  -0.792   1.108  0.00  0.00    -0.347 N 
ATOM     20  C   UNL     1       0.031  -0.298   2.487  0.00  0.00    +0.149 C 
ENDBRANCH   1  12
BRANCH   7  21
ATOM     21  C   UNL     1       2.776  -1.021  -7.707  0.00  0.00    +0.067 A 
ATOM     22  C   UNL     1       1.427  -0.898  -8.049  0.00  0.00    +0.028 A 
ATOM     23  C   UNL     1       1.068  -0.204  -9.186  0.00  0.00    +0.002 A 
ATOM     24  C   UNL     1       2.040   0.370  -9.986  0.00  0.00    +0.000 A 
ATOM     25  C   UNL     1       3.378   0.252  -9.654  0.00  0.00    +0.002 A 
ATOM     26  C   UNL     1       3.752  -0.434  -8.517  0.00  0.00    +0.028 A 
ENDBRANCH   7  21
TORSDOF 2
