REMARK  Name = ZINC02801616
REMARK  8 active torsions:
REMARK  status: ('A' for Active; 'I' for Inactive)
REMARK    1  A    between atoms: C_1  and  C_2
REMARK    2  A    between atoms: C_3  and  C_27
REMARK    3  A    between atoms: C_5  and  C_25
REMARK    4  A    between atoms: C_7  and  C_10
REMARK    5  A    between atoms: N_12  and  C_13
REMARK    6  A    between atoms: C_14  and  C_21
REMARK    7  A    between atoms: C_21  and  O_23
REMARK    8  A    between atoms: O_23  and  C_24
REMARK                            x       y       z     vdW  Elec       q    Type
REMARK                         _______ _______ _______ _____ _____    ______ ____
ROOT
ATOM      1  C   UNL     1      -2.675   3.210  -5.244  0.00  0.00    +0.222 C 
ATOM      2  O   UNL     1      -3.591   3.637  -4.574  0.00  0.00    -0.275 OA
ATOM      3  N   UNL     1      -1.625   2.612  -4.647  0.00  0.00    -0.279 N 
ATOM      4  H   UNL     1      -0.892   2.271  -5.183  0.00  0.00    +0.155 HD
ENDROOT
BRANCH   1  10
ATOM      5  C   UNL     1      -6.519   4.013  -6.897  0.00  0.00    +0.039 C 
ATOM      6  C   UNL     1      -5.029   4.236  -6.848  0.00  0.00    -0.073 C 
ATOM      7  C   UNL     1      -4.602   5.396  -6.462  0.00  0.00    -0.073 C 
ATOM      8  C   UNL     1      -3.151   5.763  -6.352  0.00  0.00    +0.046 C 
ATOM      9  C   UNL     1      -2.295   4.770  -7.141  0.00  0.00    +0.118 C 
ATOM     10  C   UNL     1      -2.710   3.348  -6.745  0.00  0.00    +0.093 C 
ATOM     11  C   UNL     1      -4.133   3.101  -7.250  0.00  0.00    +0.044 C 
ATOM     12  C   UNL     1      -5.625   6.441  -6.100  0.00  0.00    +0.039 C 
BRANCH   9  13
ATOM     13  C   UNL     1      -0.839   4.983  -6.812  0.00  0.00    +0.360 C 
ATOM     14  O   UNL     1      -0.197   4.091  -6.311  0.00  0.00    -0.246 OA
ATOM     15  O   UNL     1      -0.257   6.163  -7.075  0.00  0.00    -0.246 OA
ENDBRANCH   9  13
ENDBRANCH   1  10
BRANCH   3  16
ATOM     16  C   UNL     1      -1.592   2.485  -3.267  0.00  0.00    +0.086 A 
ATOM     17  C   UNL     1      -0.610   1.908  -2.479  0.00  0.00    +0.091 A 
ATOM     18  C   UNL     1      -0.821   1.903  -1.031  0.00  0.00    -0.021 A 
ATOM     19  C   UNL     1      -1.967   2.473  -0.619  0.00  0.00    -0.004 A 
ATOM     20  S   UNL     1      -2.768   3.010  -2.111  0.00  0.00    -0.077 S 
ATOM     21  C   UNL     1      -2.110   2.433   0.878  0.00  0.00    +0.043 C 
ATOM     22  C   UNL     1      -0.683   2.140   1.399  0.00  0.00    +0.010 C 
ATOM     23  C   UNL     1      -0.059   1.404   0.197  0.00  0.00    +0.037 C 
BRANCH  17  24
ATOM     24  C   UNL     1       0.595   1.324  -3.073  0.00  0.00    +0.342 C 
ATOM     25  O   UNL     1       0.608   0.151  -3.393  0.00  0.00    -0.245 OA
BRANCH  24  26
ATOM     26  O   UNL     1       1.690   2.088  -3.264  0.00  0.00    -0.464 OA
ATOM     27  C   UNL     1       2.848   1.443  -3.857  0.00  0.00    +0.280 C 
ENDBRANCH  24  26
ENDBRANCH  17  24
ENDBRANCH   3  16
TORSDOF 5
