REMARK  Name = ZINC37068833
REMARK  7 active torsions:
REMARK  status: ('A' for Active; 'I' for Inactive)
REMARK    1  A    between atoms: C_1  and  C_2
REMARK    2  A    between atoms: C_2  and  C_3
REMARK    3  A    between atoms: C_2  and  O_4
REMARK    4  A    between atoms: O_4  and  C_5
REMARK    5  A    between atoms: C_6  and  N_20
REMARK    6  A    between atoms: C_9  and  O_11
REMARK    7  A    between atoms: O_11  and  C_12
REMARK                            x       y       z     vdW  Elec       q    Type
REMARK                         _______ _______ _______ _____ _____    ______ ____
ROOT
ATOM      1  C   UNL     1      -1.316  -1.156  -1.213  0.00  0.00    +0.239 A 
ATOM      2  C   UNL     1      -2.650  -1.554  -1.136  0.00  0.00    +0.087 A 
ATOM      3  C   UNL     1      -2.996  -2.840  -1.533  0.00  0.00    +0.033 A 
ATOM      4  C   UNL     1      -1.994  -3.682  -1.992  0.00  0.00    +0.069 A 
ATOM      5  C   UNL     1      -0.688  -3.219  -2.042  0.00  0.00    +0.224 A 
ATOM      6  N   UNL     1      -0.390  -1.986  -1.662  0.00  0.00    -0.176 NA
ENDROOT
BRANCH   2   7
ATOM      7  N   UNL     1      -3.629  -0.668  -0.665  0.00  0.00    -0.354 N 
ATOM      8  H   UNL     1      -3.381   0.229  -0.390  0.00  0.00    +0.142 HD
ATOM      9  H   UNL     1      -4.556  -0.951  -0.614  0.00  0.00    +0.142 HD
ENDBRANCH   2   7
BRANCH   1  10
ATOM     10  O   UNL     1      -0.965   0.098  -0.829  0.00  0.00    -0.472 OA
BRANCH  10  12
ATOM     11  C   UNL     1       0.468   1.977  -1.335  0.00  0.00    +0.051 C 
ATOM     12  C   UNL     1       0.398   0.480  -1.027  0.00  0.00    +0.169 C 
ATOM     13  C   UNL     1       1.200   0.181   0.241  0.00  0.00    +0.051 C 
ENDBRANCH  10  12
ENDBRANCH   1  10
BRANCH   5  14
ATOM     14  O   UNL     1       0.297  -4.039  -2.490  0.00  0.00    -0.437 OA
BRANCH  14  15
ATOM     15  C   UNL     1       1.448  -4.106  -1.771  0.00  0.00    +0.144 A 
ATOM     16  C   UNL     1       1.544  -3.451  -0.551  0.00  0.00    +0.049 A 
ATOM     17  C   UNL     1       2.715  -3.520   0.179  0.00  0.00    +0.023 A 
ATOM     18  C   UNL     1       3.792  -4.242  -0.306  0.00  0.00    +0.042 A 
ATOM     19  C   UNL     1       3.699  -4.895  -1.522  0.00  0.00    +0.039 A 
ATOM     20  C   UNL     1       2.528  -4.833  -2.252  0.00  0.00    +0.062 A 
ATOM     21 BR   UNL     1       2.398  -5.732  -3.911  0.00  0.00    -0.046 Br
ATOM     22 CL   UNL     1       5.263  -4.326   0.614  0.00  0.00    -0.084 Cl
ENDBRANCH  14  15
ENDBRANCH   5  14
TORSDOF 5
