REMARK  Name = ZINC11845545
REMARK  7 active torsions:
REMARK  status: ('A' for Active; 'I' for Inactive)
REMARK    1  A    between atoms: C_1  and  N_2
REMARK    2  A    between atoms: C_6  and  C_7
REMARK    3  A    between atoms: C_7  and  C_9
REMARK    4  A    between atoms: C_7  and  N_47
REMARK    5  A    between atoms: C_9  and  N_10
REMARK    6  A    between atoms: C_11  and  C_13
REMARK    7  A    between atoms: C_16  and  N_19
REMARK                            x       y       z     vdW  Elec       q    Type
REMARK                         _______ _______ _______ _____ _____    ______ ____
ROOT
ATOM      1  C   UNL     1      -0.064   1.397   2.457  0.00  0.00    +0.095 C 
ENDROOT
BRANCH   1   2
ATOM      2  N   UNL     1       0.048  -0.056   2.314  0.00  0.00    -0.313 N 
ATOM      3  C   UNL     1       0.497  -0.802   3.343  0.00  0.00    +0.244 C 
ATOM      4  O   UNL     1       0.808  -0.269   4.390  0.00  0.00    -0.270 OA
ATOM      5  H   UNL     1      -0.201  -0.482   1.479  0.00  0.00    +0.149 HD
BRANCH   3   6
ATOM      6  C   UNL     1       0.610  -2.269   3.199  0.00  0.00    +0.037 A 
ATOM      7  C   UNL     1       0.248  -2.885   2.000  0.00  0.00    +0.015 A 
ATOM      8  C   UNL     1       0.361  -4.254   1.869  0.00  0.00    +0.033 A 
ATOM      9  C   UNL     1       0.822  -5.017   2.928  0.00  0.00    +0.126 A 
ATOM     10  C   UNL     1       1.178  -4.413   4.121  0.00  0.00    +0.033 A 
ATOM     11  C   UNL     1       1.074  -3.044   4.262  0.00  0.00    +0.015 A 
BRANCH   9  12
ATOM     12  N   UNL     1       0.935  -6.486   2.784  0.00  0.00    +0.056 N 
ATOM     13  O   UNL     1       1.341  -7.160   3.713  0.00  0.00    -0.126 OA
ATOM     14  O   UNL     1       0.623  -7.020   1.734  0.00  0.00    -0.126 OA
ENDBRANCH   9  12
ENDBRANCH   3   6
ENDBRANCH   1   2
BRANCH   1  15
ATOM     15  C   UNL     1      -0.534   2.006   1.134  0.00  0.00    -0.003 C 
BRANCH  15  21
ATOM     16  C   UNL     1      -2.207   3.518   3.262  0.00  0.00    +0.148 C 
ATOM     17  N   UNL     1      -1.393   4.154   2.224  0.00  0.00    -0.355 N 
ATOM     18  C   UNL     1      -1.247   5.497   2.040  0.00  0.00    +0.085 A 
ATOM     19  C   UNL     1      -0.429   5.692   0.986  0.00  0.00    +0.019 A 
ATOM     20  C   UNL     1      -0.051   4.423   0.504  0.00  0.00    +0.021 A 
ATOM     21  C   UNL     1      -0.653   3.500   1.283  0.00  0.00    +0.006 A 
ENDBRANCH  15  21
BRANCH  15  26
ATOM     22  C   UNL     1       1.782   1.430   0.656  0.00  0.00    -0.078 C 
ATOM     23  C   UNL     1       2.499   0.634  -0.465  0.00  0.00    -0.020 C 
ATOM     24  C   UNL     1       1.368  -0.252  -1.036  0.00  0.00    -0.020 C 
ATOM     25  C   UNL     1       0.061   0.461  -0.644  0.00  0.00    -0.078 C 
ATOM     26  N   UNL     1       0.457   1.678   0.066  0.00  0.00    +0.386 N 
ATOM     27  H   UNL     1       0.513   2.462  -0.594  0.00  0.00    -0.081 HD
ENDBRANCH  15  26
ENDBRANCH   1  15
TORSDOF 6
