REMARK  Name = ZINC03614624
REMARK  6 active torsions:
REMARK  status: ('A' for Active; 'I' for Inactive)
REMARK    1  A    between atoms: C_4  and  C_7
REMARK    2  A    between atoms: C_7  and  C_9
REMARK    3  A    between atoms: C_7  and  N_21
REMARK    4  A    between atoms: N_11  and  C_12
REMARK    5  A    between atoms: C_22  and  C_24
REMARK    6  A    between atoms: C_24  and  C_25
REMARK                            x       y       z     vdW  Elec       q    Type
REMARK                         _______ _______ _______ _____ _____    ______ ____
ROOT
ATOM      1  C   UNL     1      -0.198  -2.337   3.030  0.00  0.00    +0.190 C 
ENDROOT
BRANCH   1   5
ATOM      2  C   UNL     1      -4.304  -2.518   4.192  0.00  0.00    +0.000 A 
ATOM      3  C   UNL     1      -3.350  -2.083   5.092  0.00  0.00    +0.000 A 
ATOM      4  C   UNL     1      -2.021  -2.024   4.716  0.00  0.00    +0.006 A 
ATOM      5  C   UNL     1      -1.646  -2.401   3.440  0.00  0.00    -0.018 A 
ATOM      6  C   UNL     1      -2.601  -2.831   2.538  0.00  0.00    +0.006 A 
ATOM      7  C   UNL     1      -3.930  -2.894   2.915  0.00  0.00    +0.000 A 
ENDBRANCH   1   5
BRANCH   1   8
ATOM      8  C   UNL     1       0.409  -3.714   3.111  0.00  0.00    +0.242 C 
ATOM      9  O   UNL     1       0.876  -4.230   2.118  0.00  0.00    -0.273 OA
ATOM     10  N   UNL     1       0.432  -4.372   4.287  0.00  0.00    -0.284 N 
ATOM     11  H   UNL     1       0.120  -3.933   5.095  0.00  0.00    +0.155 HD
BRANCH  10  12
ATOM     12  C   UNL     1       0.907  -5.689   4.344  0.00  0.00    +0.037 A 
ATOM     13  C   UNL     1       0.334  -6.596   5.226  0.00  0.00    +0.027 A 
ATOM     14  C   UNL     1       0.798  -7.896   5.280  0.00  0.00    +0.051 A 
ATOM     15  C   UNL     1       1.843  -8.296   4.462  0.00  0.00    +0.166 A 
ATOM     16  C   UNL     1       2.423  -7.387   3.581  0.00  0.00    +0.168 A 
ATOM     17  C   UNL     1       1.954  -6.085   3.524  0.00  0.00    +0.072 A 
ATOM     18  O   UNL     1       3.420  -8.019   2.895  0.00  0.00    -0.453 OA
ATOM     19  C   UNL     1       3.715  -9.207   3.654  0.00  0.00    +0.466 C 
ATOM     20  O   UNL     1       2.477  -9.498   4.329  0.00  0.00    -0.453 OA
ENDBRANCH  10  12
ENDBRANCH   1   8
BRANCH   1  21
ATOM     21  N   UNL     1      -0.100  -1.841   1.655  0.00  0.00    -0.300 N 
ATOM     22  C   UNL     1      -0.093  -0.514   1.416  0.00  0.00    +0.220 C 
ATOM     23  O   UNL     1      -0.166   0.269   2.339  0.00  0.00    -0.275 OA
ATOM     24  H   UNL     1      -0.042  -2.467   0.916  0.00  0.00    +0.150 HD
BRANCH  22  25
ATOM     25  C   UNL     1       0.007  -0.004   0.001  0.00  0.00    +0.149 C 
BRANCH  25  26
ATOM     26  C   UNL     1      -0.005   1.502   0.009  0.00  0.00    +0.026 A 
ATOM     27  C   UNL     1      -1.110   2.264   0.022  0.00  0.00    +0.031 A 
ATOM     28  C   UNL     1      -0.667   3.661   0.028  0.00  0.00    -0.000 A 
ATOM     29  C   UNL     1      -1.331   4.889   0.044  0.00  0.00    +0.010 A 
ATOM     30  C   UNL     1      -0.610   6.050   0.039  0.00  0.00    +0.001 A 
ATOM     31  C   UNL     1       0.778   6.018   0.019  0.00  0.00    +0.002 A 
ATOM     32  C   UNL     1       1.453   4.817   0.004  0.00  0.00    +0.026 A 
ATOM     33  C   UNL     1       0.739   3.623   0.008  0.00  0.00    +0.047 A 
ATOM     34  N   UNL     1       1.109   2.297  -0.004  0.00  0.00    -0.358 N 
ATOM     35  H   UNL     1       2.024   1.974  -0.018  0.00  0.00    +0.166 HD
ENDBRANCH  25  26
ENDBRANCH  22  25
ENDBRANCH   1  21
TORSDOF 6
