REMARK  Name = ZINC12654797
REMARK  6 active torsions:
REMARK  status: ('A' for Active; 'I' for Inactive)
REMARK    1  A    between atoms: C_1  and  C_2
REMARK    2  A    between atoms: C_13  and  C_15
REMARK    3  A    between atoms: C_15  and  C_18
REMARK    4  A    between atoms: C_20  and  O_32
REMARK    5  A    between atoms: C_24  and  C_31
REMARK    6  A    between atoms: C_27  and  O_30
REMARK                            x       y       z     vdW  Elec       q    Type
REMARK                         _______ _______ _______ _____ _____    ______ ____
ROOT
ATOM      1  C   UNL     1      -1.684   0.749   1.778  0.00  0.00    +0.012 C 
ATOM      2  C   UNL     1      -0.936   1.825   0.941  0.00  0.00    -0.023 C 
ATOM      3  C   UNL     1      -0.281   2.733   1.944  0.00  0.00    +0.007 C 
ATOM      4  C   UNL     1       0.049   4.130   1.437  0.00  0.00    +0.005 C 
ATOM      5  C   UNL     1      -1.190   4.774   0.820  0.00  0.00    -0.001 C 
ATOM      6  C   UNL     1      -1.685   3.924  -0.339  0.00  0.00    -0.001 C 
ATOM      7  C   UNL     1      -2.000   2.498   0.070  0.00  0.00    -0.001 C 
ATOM      8  C   UNL     1      -2.065   1.616  -1.204  0.00  0.00    +0.005 C 
ATOM      9  C   UNL     1      -0.620   1.110  -1.394  0.00  0.00    +0.007 C 
ATOM     10  C   UNL     1       0.003   1.057   0.016  0.00  0.00    +0.029 C 
ATOM     11  C   UNL     1      -0.721   4.011  -1.516  0.00  0.00    +0.035 C 
ATOM     12  C   UNL     1      -0.726   5.466  -2.006  0.00  0.00    +0.119 C 
ATOM     13  C   UNL     1      -0.172   6.367  -0.904  0.00  0.00    +0.026 C 
ATOM     14  C   UNL     1      -0.926   6.216   0.403  0.00  0.00    -0.024 C 
ATOM     15  C   UNL     1      -0.261   6.986   1.544  0.00  0.00    +0.010 C 
ATOM     16  C   UNL     1       1.247   6.825   1.616  0.00  0.00    +0.032 C 
ATOM     17  C   UNL     1       1.895   7.118   0.263  0.00  0.00    +0.115 C 
ATOM     18  C   UNL     1       1.328   6.134  -0.763  0.00  0.00    +0.038 C 
ATOM     19  C   UNL     1      -2.315   6.887   0.206  0.00  0.00    +0.012 C 
ENDROOT
BRANCH  10  20
ATOM     20  C   UNL     1       1.431   1.606  -0.003  0.00  0.00    +0.093 C 
ATOM     21  C   UNL     1       2.303   1.366   1.231  0.00  0.00    +0.195 C 
ATOM     22  O   UNL     1       1.756   2.648   0.919  0.00  0.00    -0.368 OA
ATOM     23  C   UNL     1       2.119   1.621  -1.370  0.00  0.00    +0.044 C 
ENDBRANCH  10  20
BRANCH  17  24
ATOM     24  O   UNL     1       3.308   6.942   0.362  0.00  0.00    -0.392 OA
ATOM     25  H   UNL     1       3.735   7.535   0.996  0.00  0.00    +0.210 HD
ENDBRANCH  17  24
BRANCH  12  26
ATOM     26  O   UNL     1       0.089   5.571  -3.174  0.00  0.00    -0.391 OA
ATOM     27  H   UNL     1      -0.209   5.022  -3.912  0.00  0.00    +0.210 HD
ENDBRANCH  12  26
TORSDOF 3
