REMARK  Name = ZINC39606501
REMARK  10 active torsions:
REMARK  status: ('A' for Active; 'I' for Inactive)
REMARK    1  A    between atoms: C_1  and  C_2
REMARK    2  A    between atoms: C_2  and  C_3
REMARK    3  A    between atoms: C_3  and  C_5
REMARK    4  A    between atoms: C_3  and  C_6
REMARK    5  A    between atoms: C_6  and  N_7
REMARK    6  A    between atoms: C_8  and  C_10
REMARK    7  A    between atoms: C_21  and  C_23
REMARK    8  A    between atoms: C_25  and  C_30
REMARK    9  A    between atoms: N_27  and  C_28
REMARK   10  A    between atoms: C_28  and  C_29
REMARK                            x       y       z     vdW  Elec       q    Type
REMARK                         _______ _______ _______ _____ _____    ______ ____
ROOT
ATOM      1  C   UNL     1      -4.435  -4.263  -0.408  0.00  0.00    +0.100 C 
ATOM      2  C   UNL     1      -5.226  -3.845   0.852  0.00  0.00    +0.121 C 
ATOM      3  N   UNL     1      -6.191  -4.948   1.071  0.00  0.00    -0.295 N 
ATOM      4  C   UNL     1      -5.424  -6.177   0.755  0.00  0.00    +0.115 C 
ATOM      5  C   UNL     1      -4.567  -5.795  -0.467  0.00  0.00    -0.004 C 
ATOM      6  C   UNL     1      -3.191  -6.447  -0.371  0.00  0.00    -0.010 C 
ATOM      7  C   UNL     1      -3.343  -7.966  -0.491  0.00  0.00    -0.082 C 
ATOM      8  N   UNL     1      -3.975  -8.297  -1.774  0.00  0.00    +0.379 N 
ATOM      9  C   UNL     1      -5.334  -7.744  -1.819  0.00  0.00    -0.082 C 
ATOM     10  C   UNL     1      -5.267  -6.215  -1.756  0.00  0.00    -0.010 C 
ATOM     11  C   UNL     1      -7.476  -4.855   1.467  0.00  0.00    +0.266 C 
ATOM     12  O   UNL     1      -8.117  -5.864   1.696  0.00  0.00    -0.268 OA
ATOM     13  H   UNL     1      -3.429  -7.907  -2.527  0.00  0.00    -0.086 HD
ATOM     14  H   UNL     1      -4.019  -9.300  -1.877  0.00  0.00    -0.086 HD
ENDROOT
BRANCH  11  15
ATOM     15  C   UNL     1      -8.104  -3.535   1.623  0.00  0.00    +0.138 A 
ATOM     16  C   UNL     1      -8.277  -2.830   2.803  0.00  0.00    +0.071 A 
ATOM     17  C   UNL     1      -8.916  -1.643   2.434  0.00  0.00    +0.075 A 
ATOM     18  N   UNL     1      -9.095  -1.669   1.139  0.00  0.00    -0.175 NA
ATOM     19  N   UNL     1      -8.628  -2.753   0.632  0.00  0.00    -0.258 N 
ATOM     20  C   UNL     1      -9.327  -0.531   3.365  0.00  0.00    +0.069 C 
ATOM     21 BR   UNL     1      -7.759  -3.361   4.542  0.00  0.00    -0.046 Br
BRANCH  19  22
ATOM     22  C   UNL     1      -8.658  -3.101  -0.791  0.00  0.00    +0.141 C 
ATOM     23  C   UNL     1     -10.005  -3.741  -1.131  0.00  0.00    +0.029 C 
ENDBRANCH  19  22
ENDBRANCH  11  15
BRANCH   1  25
ATOM     24  N   UNL     1      -2.266  -3.570  -1.374  0.00  0.00    -0.315 N 
ATOM     25  C   UNL     1      -2.988  -3.866  -0.275  0.00  0.00    +0.218 C 
ATOM     26  O   UNL     1      -2.472  -3.812   0.822  0.00  0.00    -0.275 OA
ATOM     27  H   UNL     1      -2.655  -3.684  -2.255  0.00  0.00    +0.149 HD
BRANCH  24  28
ATOM     28  C   UNL     1      -0.894  -3.075  -1.238  0.00  0.00    +0.107 C 
BRANCH  28  29
ATOM     29  C   UNL     1      -0.305  -2.818  -2.626  0.00  0.00    +0.003 C 
ATOM     30  C   UNL     1      -1.077  -1.687  -3.307  0.00  0.00    +0.009 C 
BRANCH  29  32
ATOM     31  C   UNL     1       1.789  -2.286  -3.881  0.00  0.00    +0.004 C 
ATOM     32  C   UNL     1       1.167  -2.421  -2.490  0.00  0.00    +0.001 C 
ENDBRANCH  29  32
ENDBRANCH  28  29
ENDBRANCH  24  28
ENDBRANCH   1  25
TORSDOF 6
