REMARK  Name = ZINC54398573
REMARK  4 active torsions:
REMARK  status: ('A' for Active; 'I' for Inactive)
REMARK    1  A    between atoms: C_3  and  O_12
REMARK    2  A    between atoms: O_12  and  C_13
REMARK    3  A    between atoms: C_14  and  C_19
REMARK    4  A    between atoms: C_19  and  N_21
REMARK                            x       y       z     vdW  Elec       q    Type
REMARK                         _______ _______ _______ _____ _____    ______ ____
ROOT
ATOM      1  O   UNL     1       3.537   2.141  -0.022  0.00  0.00    -0.436 OA
ENDROOT
BRANCH   1   4
ATOM      2  C   UNL     1      -0.005   1.376  -0.239  0.00  0.00    +0.012 A 
ATOM      3  C   UNL     1       1.165   2.069  -0.241  0.00  0.00    +0.047 A 
ATOM      4  C   UNL     1       2.384   1.422  -0.013  0.00  0.00    +0.131 A 
ATOM      5  C   UNL     1       2.430   0.076   0.218  0.00  0.00    +0.054 A 
ATOM      6  C   UNL     1       1.240  -0.668   0.228  0.00  0.00    -0.014 A 
ATOM      7  C   UNL     1       0.006  -0.010  -0.004  0.00  0.00    -0.017 A 
ATOM      8  C   UNL     1      -1.185  -0.756   0.004  0.00  0.00    +0.023 A 
ATOM      9  C   UNL     1      -1.138  -2.098   0.234  0.00  0.00    +0.018 A 
ATOM     10  C   UNL     1       0.076  -2.745   0.463  0.00  0.00    +0.016 A 
ATOM     11  C   UNL     1       1.249  -2.054   0.461  0.00  0.00    +0.010 A 
ATOM     12 BR   UNL     1      -2.743  -3.098   0.244  0.00  0.00    -0.050 Br
ENDBRANCH   1   4
BRANCH   1  13
ATOM     13  C   UNL     1       3.821   2.901   1.063  0.00  0.00    +0.249 A 
ATOM     14  C   UNL     1       4.942   3.745   1.059  0.00  0.00    +0.153 A 
ATOM     15  N   UNL     1       5.212   4.487   2.130  0.00  0.00    -0.246 NA
ATOM     16  C   UNL     1       4.428   4.427   3.188  0.00  0.00    +0.131 A 
ATOM     17  C   UNL     1       3.320   3.593   3.191  0.00  0.00    +0.134 A 
ATOM     18  N   UNL     1       3.038   2.855   2.132  0.00  0.00    -0.218 NA
BRANCH  14  19
ATOM     19  C   UNL     1       5.818   3.808  -0.127  0.00  0.00    +0.101 C 
ATOM     20  S   UNL     1       5.466   2.851  -1.503  0.00  0.00    -0.033 S 
BRANCH  19  21
ATOM     21  N   UNL     1       6.894   4.620  -0.128  0.00  0.00    -0.350 N 
ATOM     22  H   UNL     1       7.093   5.162   0.651  0.00  0.00    +0.143 HD
ATOM     23  H   UNL     1       7.469   4.662  -0.908  0.00  0.00    +0.143 HD
ENDBRANCH  19  21
ENDBRANCH  14  19
ENDBRANCH   1  13
TORSDOF 4
