REMARK  Name = ZINC39657762
REMARK  13 active torsions:
REMARK  status: ('A' for Active; 'I' for Inactive)
REMARK    1  A    between atoms: C_1  and  C_2
REMARK    2  A    between atoms: C_2  and  C_3
REMARK    3  A    between atoms: C_3  and  C_4
REMARK    4  A    between atoms: C_4  and  C_5
REMARK    5  A    between atoms: C_5  and  C_7
REMARK    6  A    between atoms: C_5  and  C_8
REMARK    7  A    between atoms: C_12  and  C_21
REMARK    8  A    between atoms: N_23  and  C_24
REMARK    9  A    between atoms: C_24  and  C_25
REMARK   10  A    between atoms: C_30  and  S_31
REMARK   11  A    between atoms: S_31  and  C_32
REMARK   12  A    between atoms: C_37  and  C_38
REMARK   13  A    between atoms: C_38  and  O_39
REMARK                            x       y       z     vdW  Elec       q    Type
REMARK                         _______ _______ _______ _____ _____    ______ ____
ROOT
ATOM      1  C   UNL     1       5.154  -4.713  -4.472  0.00  0.00    +0.218 C 
ATOM      2  O   UNL     1       5.053  -4.392  -3.306  0.00  0.00    -0.275 OA
ATOM      3  N   UNL     1       6.353  -5.074  -4.970  0.00  0.00    -0.311 N 
ATOM      4  H   UNL     1       6.449  -5.260  -5.917  0.00  0.00    +0.149 HD
ENDROOT
BRANCH   1   9
ATOM      5  C   UNL     1       1.444  -3.799  -2.900  0.00  0.00    +0.218 C 
ATOM      6  O   UNL     1       1.655  -2.655  -2.556  0.00  0.00    -0.275 OA
ATOM      7  N   UNL     1       1.991  -4.272  -4.038  0.00  0.00    -0.300 N 
ATOM      8  C   UNL     1       2.959  -3.594  -4.931  0.00  0.00    +0.121 C 
ATOM      9  C   UNL     1       3.939  -4.708  -5.363  0.00  0.00    +0.100 C 
ATOM     10  C   UNL     1       3.145  -6.014  -5.197  0.00  0.00    -0.004 C 
ATOM     11  C   UNL     1       1.764  -5.591  -4.675  0.00  0.00    +0.115 C 
ATOM     12  C   UNL     1       3.008  -6.724  -6.540  0.00  0.00    -0.010 C 
ATOM     13  C   UNL     1       2.266  -8.049  -6.339  0.00  0.00    -0.082 C 
ATOM     14  N   UNL     1       3.008  -8.889  -5.392  0.00  0.00    +0.379 N 
ATOM     15  C   UNL     1       3.054  -8.240  -4.076  0.00  0.00    -0.082 C 
ATOM     16  C   UNL     1       3.830  -6.924  -4.181  0.00  0.00    -0.010 C 
ATOM     17  H   UNL     1       2.549  -9.784  -5.308  0.00  0.00    -0.086 HD
ATOM     18  H   UNL     1       3.948  -9.026  -5.731  0.00  0.00    -0.086 HD
BRANCH   5  19
ATOM     19  C   UNL     1       0.571  -4.691  -2.056  0.00  0.00    +0.072 C 
ATOM     20  C   UNL     1      -0.776  -4.893  -2.751  0.00  0.00    +0.017 C 
BRANCH  19  21
ATOM     21  C   UNL     1       0.347  -4.040  -0.689  0.00  0.00    +0.012 C 
BRANCH  21  22
ATOM     22  C   UNL     1      -0.448  -4.993   0.206  0.00  0.00    +0.000 C 
BRANCH  22  24
ATOM     23  C   UNL     1      -1.427  -5.305   2.483  0.00  0.00    +0.004 C 
ATOM     24  C   UNL     1      -0.738  -4.312   1.545  0.00  0.00    -0.003 C 
ENDBRANCH  22  24
ENDBRANCH  21  22
ENDBRANCH  19  21
ENDBRANCH   5  19
ENDBRANCH   1   9
BRANCH   3  25
ATOM     25  C   UNL     1       7.512  -5.185  -4.080  0.00  0.00    +0.140 C 
BRANCH  25  26
ATOM     26  C   UNL     1       8.745  -5.482  -4.896  0.00  0.00    -0.017 A 
ATOM     27  C   UNL     1       9.265  -6.761  -4.922  0.00  0.00    +0.006 A 
ATOM     28  C   UNL     1      10.396  -7.033  -5.670  0.00  0.00    +0.000 A 
ATOM     29  C   UNL     1      11.009  -6.027  -6.394  0.00  0.00    +0.001 A 
ATOM     30  C   UNL     1      10.495  -4.747  -6.373  0.00  0.00    +0.015 A 
ATOM     31  C   UNL     1       9.355  -4.470  -5.627  0.00  0.00    +0.017 A 
BRANCH  31  32
ATOM     32  S   UNL     1       8.690  -2.838  -5.603  0.00  0.00    -0.089 S 
BRANCH  32  33
ATOM     33  C   UNL     1       9.123  -2.225  -4.008  0.00  0.00    +0.018 A 
ATOM     34  C   UNL     1       9.933  -2.980  -3.168  0.00  0.00    +0.015 A 
ATOM     35  C   UNL     1      10.270  -2.497  -1.920  0.00  0.00    +0.001 A 
ATOM     36  C   UNL     1       9.803  -1.263  -1.505  0.00  0.00    +0.000 A 
ATOM     37  C   UNL     1       8.997  -0.509  -2.338  0.00  0.00    +0.007 A 
ATOM     38  C   UNL     1       8.661  -0.984  -3.591  0.00  0.00    -0.008 A 
BRANCH  38  39
ATOM     39  C   UNL     1       7.788  -0.158  -4.501  0.00  0.00    +0.192 C 
BRANCH  39  40
ATOM     40  O   UNL     1       7.344   1.009  -3.805  0.00  0.00    -0.390 OA
ATOM     41  H   UNL     1       6.840   1.625  -4.354  0.00  0.00    +0.210 HD
ENDBRANCH  39  40
ENDBRANCH  38  39
ENDBRANCH  32  33
ENDBRANCH  31  32
ENDBRANCH  25  26
ENDBRANCH   3  25
TORSDOF 11
