REMARK  Name = ZINC66672838
REMARK  6 active torsions:
REMARK  status: ('A' for Active; 'I' for Inactive)
REMARK    1  A    between atoms: C_4  and  N_7
REMARK    2  A    between atoms: C_8  and  N_17
REMARK    3  A    between atoms: C_10  and  C_12
REMARK    4  A    between atoms: C_18  and  C_20
REMARK    5  A    between atoms: C_20  and  C_21
REMARK    6  A    between atoms: C_21  and  N_22
REMARK                            x       y       z     vdW  Elec       q    Type
REMARK                         _______ _______ _______ _____ _____    ______ ____
ROOT
ATOM      1  N   UNL     1       3.623  -0.651  -0.037  0.00  0.00    -0.218 N 
ATOM      2  C   UNL     1       3.887  -1.835   0.581  0.00  0.00    +0.129 A 
ATOM      3  C   UNL     1       5.182  -2.156   0.323  0.00  0.00    +0.074 A 
ATOM      4  C   UNL     1       5.726  -1.135  -0.479  0.00  0.00    +0.098 A 
ATOM      5  N   UNL     1       4.787  -0.239  -0.697  0.00  0.00    -0.165 NA
ENDROOT
BRANCH   1   9
ATOM      6  C   UNL     1      -0.017   1.379   0.010  0.00  0.00    +0.000 A 
ATOM      7  C   UNL     1       1.170   2.089   0.002  0.00  0.00    +0.002 A 
ATOM      8  C   UNL     1       2.377   1.419  -0.013  0.00  0.00    +0.028 A 
ATOM      9  C   UNL     1       2.400   0.031  -0.021  0.00  0.00    +0.067 A 
ATOM     10  C   UNL     1       1.206  -0.680  -0.013  0.00  0.00    +0.028 A 
ATOM     11  C   UNL     1       0.002  -0.004   0.002  0.00  0.00    +0.002 A 
ENDBRANCH   1   9
BRANCH   4  12
ATOM     12  C   UNL     1       7.117  -1.081  -0.995  0.00  0.00    +0.040 A 
ATOM     13  C   UNL     1       7.743   0.017  -1.740  0.00  0.00    +0.051 A 
ATOM     14  C   UNL     1       9.002  -0.378  -1.995  0.00  0.00    +0.195 A 
ATOM     15  O   UNL     1       9.190  -1.601  -1.476  0.00  0.00    -0.470 OA
ATOM     16  C   UNL     1       8.075  -2.035  -0.870  0.00  0.00    +0.204 A 
ENDBRANCH   4  12
BRANCH   2  17
ATOM     17  N   UNL     1       2.991  -2.584   1.343  0.00  0.00    -0.270 N 
ATOM     18  C   UNL     1       3.387  -3.745   1.901  0.00  0.00    +0.220 C 
ATOM     19  O   UNL     1       4.523  -4.138   1.742  0.00  0.00    -0.275 OA
ATOM     20  H   UNL     1       2.082  -2.270   1.470  0.00  0.00    +0.156 HD
BRANCH  18  21
ATOM     21  C   UNL     1       2.418  -4.555   2.724  0.00  0.00    +0.117 C 
BRANCH  21  22
ATOM     22  C   UNL     1       3.115  -5.816   3.238  0.00  0.00    +0.132 C 
BRANCH  22  23
ATOM     23  N   UNL     1       2.173  -6.603   4.038  0.00  0.00    -0.338 N 
ATOM     24  C   UNL     1       1.961  -6.492   5.386  0.00  0.00    +0.104 A 
ATOM     25  C   UNL     1       1.018  -7.397   5.708  0.00  0.00    +0.101 A 
ATOM     26  N   UNL     1       0.663  -8.043   4.587  0.00  0.00    -0.352 N 
ATOM     27  C   UNL     1       1.347  -7.569   3.582  0.00  0.00    +0.173 A 
ATOM     28  H   UNL     1      -0.001  -8.749   4.532  0.00  0.00    +0.166 HD
ENDBRANCH  22  23
ENDBRANCH  21  22
ENDBRANCH  18  21
ENDBRANCH   2  17
TORSDOF 6
