REMARK  Name = ZINC19521617
REMARK  8 active torsions:
REMARK  status: ('A' for Active; 'I' for Inactive)
REMARK    1  A    between atoms: C_1  and  C_2
REMARK    2  A    between atoms: C_2  and  C_3
REMARK    3  A    between atoms: C_4  and  C_20
REMARK    4  A    between atoms: C_9  and  C_11
REMARK    5  A    between atoms: C_14  and  C_19
REMARK    6  A    between atoms: N_15  and  C_18
REMARK    7  A    between atoms: C_23  and  O_26
REMARK    8  A    between atoms: O_26  and  C_27
REMARK                            x       y       z     vdW  Elec       q    Type
REMARK                         _______ _______ _______ _____ _____    ______ ____
ROOT
ATOM      1  C   UNL     1      -1.356  -0.847  -0.113  0.00  0.00    +0.019 A 
ATOM      2  C   UNL     1      -2.139  -0.858  -1.234  0.00  0.00    +0.083 A 
ATOM      3  N   UNL     1      -3.449  -1.010  -1.110  0.00  0.00    -0.224 NA
ATOM      4  C   UNL     1      -4.013  -1.153   0.075  0.00  0.00    +0.165 A 
ATOM      5  S   UNL     1      -2.593  -1.076   1.158  0.00  0.00    -0.056 S 
ATOM      6  N   UNL     1      -5.354  -1.322   0.396  0.00  0.00    -0.261 N 
ATOM      7  C   UNL     1      -6.281  -1.359  -0.582  0.00  0.00    +0.255 C 
ATOM      8  O   UNL     1      -5.956  -1.151  -1.736  0.00  0.00    -0.270 OA
ATOM      9  H   UNL     1      -5.623  -1.414   1.323  0.00  0.00    +0.157 HD
ENDROOT
BRANCH   7  10
ATOM     10  C   UNL     1      -7.684  -1.649  -0.254  0.00  0.00    +0.101 A 
ATOM     11  C   UNL     1      -8.630  -1.811  -1.264  0.00  0.00    +0.020 A 
ATOM     12  C   UNL     1      -9.952  -2.086  -0.914  0.00  0.00    +0.022 A 
ATOM     13  C   UNL     1     -10.303  -2.192   0.393  0.00  0.00    +0.019 A 
ATOM     14  N   UNL     1      -9.389  -2.036   1.380  0.00  0.00    -0.315 N 
ATOM     15  C   UNL     1      -8.098  -1.776   1.098  0.00  0.00    +0.263 A 
ATOM     16  O   UNL     1      -7.290  -1.645   2.000  0.00  0.00    -0.267 OA
ATOM     17  C   UNL     1      -9.810  -2.159   2.778  0.00  0.00    +0.152 C 
ATOM     18  C   UNL     1     -11.736  -2.489   0.752  0.00  0.00    +0.063 C 
ENDBRANCH   7  10
BRANCH   2  19
ATOM     19  C   UNL     1      -1.528  -0.699  -2.576  0.00  0.00    +0.001 A 
ATOM     20  C   UNL     1      -0.554   0.276  -2.789  0.00  0.00    +0.013 A 
ATOM     21  C   UNL     1       0.012   0.421  -4.038  0.00  0.00    +0.046 A 
ATOM     22  C   UNL     1      -0.387  -0.402  -5.082  0.00  0.00    +0.120 A 
ATOM     23  C   UNL     1      -1.356  -1.373  -4.873  0.00  0.00    +0.046 A 
ATOM     24  C   UNL     1      -1.922  -1.528  -3.625  0.00  0.00    +0.013 A 
BRANCH  22  25
ATOM     25  O   UNL     1       0.173  -0.256  -6.312  0.00  0.00    -0.495 OA
ATOM     26  C   UNL     1      -0.284  -1.136  -7.342  0.00  0.00    +0.277 C 
ENDBRANCH  22  25
ENDBRANCH   2  19
BRANCH   1  28
ATOM     27  C   UNL     1       0.810  -2.053  -0.177  0.00  0.00    +0.009 C 
ATOM     28  C   UNL     1       0.137  -0.692   0.015  0.00  0.00    +0.041 C 
ENDBRANCH   1  28
TORSDOF 4
