REMARK  Name = ZINC38208956
REMARK  6 active torsions:
REMARK  status: ('A' for Active; 'I' for Inactive)
REMARK    1  A    between atoms: C_3  and  S_8
REMARK    2  A    between atoms: S_8  and  C_9
REMARK    3  A    between atoms: C_10  and  C_23
REMARK    4  A    between atoms: C_11  and  C_18
REMARK    5  A    between atoms: C_12  and  C_16
REMARK    6  A    between atoms: C_13  and  N_15
REMARK                            x       y       z     vdW  Elec       q    Type
REMARK                         _______ _______ _______ _____ _____    ______ ____
ROOT
ATOM      1  C   UNL     1       5.134   1.064   0.107  0.00  0.00    +0.122 A 
ATOM      2  C   UNL     1       6.484   1.439   0.241  0.00  0.00    +0.093 A 
ATOM      3  C   UNL     1       7.466   0.429   0.345  0.00  0.00    +0.029 A 
ATOM      4  C   UNL     1       7.039  -0.918   0.309  0.00  0.00    +0.101 A 
ATOM      5  C   UNL     1       5.666  -1.193   0.172  0.00  0.00    +0.136 A 
ATOM      6  N   UNL     1       4.781  -0.212   0.084  0.00  0.00    -0.223 NA
ENDROOT
BRANCH   3   7
ATOM      7  C   UNL     1       8.889   0.768   0.486  0.00  0.00    +0.022 A 
ATOM      8  C   UNL     1       9.743   0.527   1.550  0.00  0.00    +0.016 A 
ATOM      9  C   UNL     1      11.038   0.967   1.388  0.00  0.00    +0.008 A 
ATOM     10  C   UNL     1      11.383   1.587   0.235  0.00  0.00    +0.046 A 
ATOM     11  S   UNL     1       9.969   1.589  -0.671  0.00  0.00    -0.097 S 
ENDBRANCH   3   7
BRANCH   5  12
ATOM     12  N   UNL     1       5.235  -2.504   0.135  0.00  0.00    -0.342 N 
ATOM     13  H   UNL     1       5.878  -3.228   0.203  0.00  0.00    +0.144 HD
ATOM     14  H   UNL     1       4.290  -2.701   0.041  0.00  0.00    +0.144 HD
ENDBRANCH   5  12
BRANCH   4  15
ATOM     15  C   UNL     1       7.988  -1.986   0.409  0.00  0.00    +0.103 C 
ATOM     16  N   UNL     1       8.741  -2.833   0.489  0.00  0.00    -0.191 NA
ENDBRANCH   4  15
BRANCH   2  17
ATOM     17  C   UNL     1       6.856   2.821   0.271  0.00  0.00    +0.102 C 
ATOM     18  N   UNL     1       7.151   3.918   0.295  0.00  0.00    -0.191 NA
ENDBRANCH   2  17
BRANCH   1  19
ATOM     19  S   UNL     1       3.896   2.311  -0.023  0.00  0.00    -0.069 S 
BRANCH  19  22
ATOM     20  C   UNL     1       0.606   0.339   1.187  0.00  0.00    +0.003 A 
ATOM     21  C   UNL     1       1.792   1.045   1.186  0.00  0.00    +0.015 A 
ATOM     22  C   UNL     1       2.382   1.409  -0.018  0.00  0.00    +0.016 A 
ATOM     23  C   UNL     1       1.775   1.062  -1.219  0.00  0.00    +0.035 A 
ATOM     24  C   UNL     1       0.587   0.355  -1.211  0.00  0.00    +0.042 A 
ATOM     25  C   UNL     1       0.003  -0.006  -0.009  0.00  0.00    +0.020 A 
ATOM     26 CL   UNL     1      -0.173  -0.080  -2.710  0.00  0.00    -0.084 Cl
ENDBRANCH  19  22
ENDBRANCH   1  19
TORSDOF 6
