REMARK  Name = ZINC01196931
REMARK  5 active torsions:
REMARK  status: ('A' for Active; 'I' for Inactive)
REMARK    1  A    between atoms: C_4  and  N_7
REMARK    2  A    between atoms: C_9  and  C_23
REMARK    3  A    between atoms: C_10  and  C_12
REMARK    4  A    between atoms: C_24  and  C_25
REMARK    5  A    between atoms: C_24  and  C_27
REMARK                            x       y       z     vdW  Elec       q    Type
REMARK                         _______ _______ _______ _____ _____    ______ ____
ROOT
ATOM      1  N   UNL     1      -7.343   5.201   0.986  0.00  0.00    -0.239 N 
ATOM      2  C   UNL     1      -7.795   3.973   0.682  0.00  0.00    +0.123 A 
ATOM      3  C   UNL     1      -6.699   3.180   0.379  0.00  0.00    +0.022 A 
ATOM      4  C   UNL     1      -5.516   4.041   0.527  0.00  0.00    +0.107 A 
ATOM      5  N   UNL     1      -5.949   5.227   0.893  0.00  0.00    -0.166 NA
ENDROOT
BRANCH   4   6
ATOM      6  C   UNL     1      -4.107   3.646   0.311  0.00  0.00    +0.088 A 
ATOM      7  C   UNL     1      -3.749   2.920  -0.795  0.00  0.00    +0.028 A 
ATOM      8  C   UNL     1      -2.343   2.551  -0.957  0.00  0.00    +0.018 A 
ATOM      9  C   UNL     1      -1.927   1.795  -2.060  0.00  0.00    +0.011 A 
ATOM     10  C   UNL     1      -0.611   1.459  -2.196  0.00  0.00    +0.001 A 
ATOM     11  C   UNL     1       0.320   1.862  -1.249  0.00  0.00    +0.004 A 
ATOM     12  C   UNL     1      -0.068   2.607  -0.155  0.00  0.00    +0.047 A 
ATOM     13  C   UNL     1      -1.404   2.956   0.009  0.00  0.00    +0.139 A 
ATOM     14  O   UNL     1      -1.789   3.680   1.081  0.00  0.00    -0.422 OA
ATOM     15  C   UNL     1      -3.069   4.035   1.271  0.00  0.00    +0.347 A 
ATOM     16  O   UNL     1      -3.372   4.689   2.252  0.00  0.00    -0.244 OA
ENDBRANCH   4   6
BRANCH   1  20
ATOM     17  C   UNL     1      -9.735   8.438   2.064  0.00  0.00    +0.000 A 
ATOM     18  C   UNL     1      -8.361   8.586   2.000  0.00  0.00    +0.002 A 
ATOM     19  C   UNL     1      -7.566   7.515   1.643  0.00  0.00    +0.028 A 
ATOM     20  C   UNL     1      -8.146   6.289   1.349  0.00  0.00    +0.065 A 
ATOM     21  C   UNL     1      -9.526   6.145   1.409  0.00  0.00    +0.028 A 
ATOM     22  C   UNL     1     -10.316   7.218   1.771  0.00  0.00    +0.002 A 
ENDBRANCH   1  20
BRANCH   3  23
ATOM     23  C   UNL     1      -6.715   1.813   0.003  0.00  0.00    +0.035 C 
ATOM     24  C   UNL     1      -7.619   1.367  -0.941  0.00  0.00    +0.114 C 
BRANCH  24  25
ATOM     25  C   UNL     1      -8.415   2.334  -1.710  0.00  0.00    +0.252 C 
ATOM     26  O   UNL     1      -8.193   3.526  -1.605  0.00  0.00    -0.270 OA
ATOM     27  N   UNL     1      -9.391   1.900  -2.532  0.00  0.00    -0.325 N 
ATOM     28  H   UNL     1      -9.568   0.950  -2.616  0.00  0.00    +0.145 HD
ATOM     29  H   UNL     1      -9.916   2.538  -3.040  0.00  0.00    +0.145 HD
ENDBRANCH  24  25
BRANCH  24  30
ATOM     30  C   UNL     1      -7.780  -0.037  -1.170  0.00  0.00    +0.104 C 
ATOM     31  N   UNL     1      -7.909  -1.151  -1.351  0.00  0.00    -0.191 NA
ENDBRANCH  24  30
ENDBRANCH   3  23
TORSDOF 5
