REMARK  Name = ZINC63375523
REMARK  7 active torsions:
REMARK  status: ('A' for Active; 'I' for Inactive)
REMARK    1  A    between atoms: C_1  and  O_2
REMARK    2  A    between atoms: O_2  and  C_3
REMARK    3  A    between atoms: C_3  and  C_4
REMARK    4  A    between atoms: C_4  and  N_5
REMARK    5  A    between atoms: C_6  and  C_8
REMARK    6  A    between atoms: C_13  and  N_14
REMARK    7  A    between atoms: C_30  and  C_35
REMARK                            x       y       z     vdW  Elec       q    Type
REMARK                         _______ _______ _______ _____ _____    ______ ____
ROOT
ATOM      1  N   UNL     1      -1.338  -6.633  -0.378  0.00  0.00    -0.192 N 
ATOM      2  C   UNL     1      -0.647  -7.103   0.681  0.00  0.00    +0.248 C 
ATOM      3  O   UNL     1      -0.766  -6.767   1.840  0.00  0.00    -0.273 OA
ATOM      4  C   UNL     1       0.306  -8.135   0.122  0.00  0.00    +0.169 C 
ATOM      5  C   UNL     1       1.758  -7.743   0.449  0.00  0.00    +0.065 C 
ATOM      6  C   UNL     1       2.625  -8.421  -0.585  0.00  0.00    -0.034 C 
ATOM      7  C   UNL     1       3.671  -9.229  -0.443  0.00  0.00    -0.001 A 
ATOM      8  C   UNL     1       4.411  -9.670   0.750  0.00  0.00    +0.010 A 
ATOM      9  C   UNL     1       5.439 -10.533   0.532  0.00  0.00    +0.001 A 
ATOM     10  C   UNL     1       5.800 -10.995  -0.738  0.00  0.00    +0.002 A 
ATOM     11  C   UNL     1       5.180 -10.634  -1.890  0.00  0.00    +0.026 A 
ATOM     12  C   UNL     1       4.088  -9.724  -1.790  0.00  0.00    +0.043 A 
ATOM     13  N   UNL     1       3.338  -9.205  -2.717  0.00  0.00    -0.375 N 
ATOM     14  C   UNL     1       2.396  -8.279  -2.084  0.00  0.00    +0.131 C 
ATOM     15  C   UNL     1       0.940  -8.685  -2.354  0.00  0.00    +0.135 C 
ATOM     16  N   UNL     1       0.099  -8.032  -1.337  0.00  0.00    -0.264 N 
ATOM     17  C   UNL     1      -0.929  -7.195  -1.524  0.00  0.00    +0.317 C 
ATOM     18  O   UNL     1      -1.431  -6.968  -2.607  0.00  0.00    -0.252 OA
ATOM     19  H   UNL     1       3.394  -9.397  -3.666  0.00  0.00    +0.160 HD
ENDROOT
BRANCH   1  25
ATOM     20  C   UNL     1      -2.059  -4.317  -0.390  0.00  0.00    +0.059 A 
ATOM     21  C   UNL     1      -3.088  -3.377  -0.306  0.00  0.00    +0.015 A 
ATOM     22  C   UNL     1      -4.388  -3.796  -0.121  0.00  0.00    +0.001 A 
ATOM     23  C   UNL     1      -4.679  -5.146  -0.017  0.00  0.00    +0.002 A 
ATOM     24  C   UNL     1      -3.672  -6.086  -0.098  0.00  0.00    +0.025 A 
ATOM     25  C   UNL     1      -2.358  -5.683  -0.290  0.00  0.00    +0.058 A 
BRANCH  20  27
ATOM     26  N   UNL     1      -0.381  -2.561  -0.684  0.00  0.00    -0.309 N 
ATOM     27  C   UNL     1      -0.665  -3.875  -0.588  0.00  0.00    +0.246 C 
ATOM     28  O   UNL     1       0.228  -4.697  -0.666  0.00  0.00    -0.270 OA
ATOM     29  H   UNL     1      -1.093  -1.906  -0.622  0.00  0.00    +0.149 HD
BRANCH  26  30
ATOM     30  C   UNL     1       1.003  -2.123  -0.881  0.00  0.00    +0.132 C 
BRANCH  30  31
ATOM     31  C   UNL     1       1.048  -0.595  -0.955  0.00  0.00    +0.178 C 
BRANCH  31  33
ATOM     32  C   UNL     1       0.661   1.383   0.341  0.00  0.00    +0.194 C 
ATOM     33  O   UNL     1       0.653  -0.045   0.303  0.00  0.00    -0.381 OA
ENDBRANCH  31  33
ENDBRANCH  30  31
ENDBRANCH  26  30
ENDBRANCH  20  27
ENDBRANCH   1  25
BRANCH  15  34
ATOM     34  C   UNL     1       0.792 -10.180  -2.239  0.00  0.00    -0.025 A 
ATOM     35  C   UNL     1       0.950 -10.797  -1.012  0.00  0.00    +0.005 A 
ATOM     36  C   UNL     1       0.814 -12.169  -0.905  0.00  0.00    +0.000 A 
ATOM     37  C   UNL     1       0.520 -12.923  -2.026  0.00  0.00    +0.000 A 
ATOM     38  C   UNL     1       0.361 -12.306  -3.252  0.00  0.00    +0.000 A 
ATOM     39  C   UNL     1       0.493 -10.934  -3.358  0.00  0.00    +0.005 A 
ENDBRANCH  15  34
TORSDOF 6
