REMARK  Name = ZINC09165596
REMARK  6 active torsions:
REMARK  status: ('A' for Active; 'I' for Inactive)
REMARK    1  A    between atoms: C_1  and  C_2
REMARK    2  A    between atoms: C_2  and  C_29
REMARK    3  A    between atoms: C_7  and  N_15
REMARK    4  A    between atoms: N_11  and  C_14
REMARK    5  A    between atoms: N_15  and  S_16
REMARK    6  A    between atoms: S_16  and  C_19
REMARK                            x       y       z     vdW  Elec       q    Type
REMARK                         _______ _______ _______ _____ _____    ______ ____
ROOT
ATOM      1  C   UNL     1       2.430   4.838  -5.725  0.00  0.00    +0.024 C 
ATOM      2  C   UNL     1       3.043   3.511  -5.273  0.00  0.00    +0.076 C 
ATOM      3  C   UNL     1       2.364   2.361  -6.013  0.00  0.00    +0.244 C 
ATOM      4  O   UNL     1       3.137   1.169  -5.899  0.00  0.00    -0.489 OA
ATOM      5  C   UNL     1       3.649   0.875  -4.675  0.00  0.00    +0.144 A 
ATOM      6  C   UNL     1       3.086  -0.125  -3.902  0.00  0.00    +0.072 A 
ATOM      7  C   UNL     1       3.611  -0.407  -2.647  0.00  0.00    +0.052 A 
ATOM      8  C   UNL     1       4.705   0.306  -2.173  0.00  0.00    +0.026 A 
ATOM      9  C   UNL     1       5.272   1.300  -2.947  0.00  0.00    +0.029 A 
ATOM     10  C   UNL     1       4.749   1.586  -4.198  0.00  0.00    +0.078 A 
ATOM     11  N   UNL     1       5.320   2.588  -4.998  0.00  0.00    -0.271 N 
ATOM     12  C   UNL     1       4.520   3.516  -5.569  0.00  0.00    +0.229 C 
ATOM     13  O   UNL     1       4.989   4.348  -6.316  0.00  0.00    -0.275 OA
ATOM     14  C   UNL     1       6.769   2.627  -5.213  0.00  0.00    +0.138 C 
ATOM     15  C   UNL     1       2.830   3.341  -3.767  0.00  0.00    +0.024 C 
ENDROOT
BRANCH   7  16
ATOM     16  N   UNL     1       3.039  -1.413  -1.861  0.00  0.00    -0.216 N 
ATOM     17  H   UNL     1       2.807  -2.267  -2.260  0.00  0.00    +0.174 HD
BRANCH  16  18
ATOM     18  S   UNL     1       2.760  -1.149  -0.251  0.00  0.00    +0.072 S 
ATOM     19  O   UNL     1       3.962  -0.615   0.288  0.00  0.00    -0.150 OA
ATOM     20  O   UNL     1       2.158  -2.331   0.257  0.00  0.00    -0.150 OA
BRANCH  18  21
ATOM     21  C   UNL     1       1.547   0.124  -0.135  0.00  0.00    +0.112 A 
ATOM     22  C   UNL     1       0.204  -0.203  -0.104  0.00  0.00    +0.032 A 
ATOM     23  C   UNL     1      -0.750   0.793  -0.014  0.00  0.00    +0.051 A 
ATOM     24  C   UNL     1      -0.362   2.123   0.044  0.00  0.00    +0.162 A 
ATOM     25  C   UNL     1       0.988   2.452   0.016  0.00  0.00    +0.164 A 
ATOM     26  C   UNL     1       1.940   1.448  -0.075  0.00  0.00    +0.078 A 
ATOM     27  O   UNL     1       1.390   3.751   0.081  0.00  0.00    -0.485 OA
ATOM     28  C   UNL     1       0.401   4.746  -0.206  0.00  0.00    +0.270 C 
ATOM     29  C   UNL     1      -0.879   4.386   0.561  0.00  0.00    +0.270 C 
ATOM     30  O   UNL     1      -1.314   3.094   0.124  0.00  0.00    -0.485 OA
ENDBRANCH  18  21
ENDBRANCH  16  18
ENDBRANCH   7  16
TORSDOF 3
