REMARK  Name = ZINC63374846
REMARK  11 active torsions:
REMARK  status: ('A' for Active; 'I' for Inactive)
REMARK    1  A    between atoms: C_1  and  C_2
REMARK    2  A    between atoms: C_2  and  C_4
REMARK    3  A    between atoms: C_2  and  C_34
REMARK    4  A    between atoms: C_4  and  N_5
REMARK    5  A    between atoms: C_6  and  C_8
REMARK    6  A    between atoms: C_8  and  C_10
REMARK    7  A    between atoms: C_8  and  N_14
REMARK    8  A    between atoms: C_10  and  C_11
REMARK    9  A    between atoms: C_11  and  C_12
REMARK   10  A    between atoms: C_11  and  C_13
REMARK   11  A    between atoms: C_17  and  C_33
REMARK                            x       y       z     vdW  Elec       q    Type
REMARK                         _______ _______ _______ _____ _____    ______ ____
ROOT
ATOM      1  N   UNL     1       5.268  -0.348  -3.509  0.00  0.00    -0.212 N 
ATOM      2  C   UNL     1       6.261  -1.261  -3.473  0.00  0.00    +0.249 C 
ATOM      3  O   UNL     1       6.638  -1.894  -2.511  0.00  0.00    -0.273 OA
ATOM      4  C   UNL     1       6.804  -1.333  -4.884  0.00  0.00    +0.136 C 
ATOM      5  C   UNL     1       8.278  -0.910  -4.902  0.00  0.00    +0.139 C 
ATOM      6  C   UNL     1       8.586  -0.481  -6.331  0.00  0.00    -0.034 C 
ATOM      7  C   UNL     1       9.598  -1.241  -6.739  0.00  0.00    -0.001 A 
ATOM      8  C   UNL     1      10.366  -1.254  -7.995  0.00  0.00    +0.010 A 
ATOM      9  C   UNL     1      11.348  -2.189  -8.086  0.00  0.00    +0.001 A 
ATOM     10  C   UNL     1      11.639  -3.102  -7.068  0.00  0.00    +0.002 A 
ATOM     11  C   UNL     1      10.987  -3.158  -5.879  0.00  0.00    +0.026 A 
ATOM     12  C   UNL     1       9.934  -2.221  -5.663  0.00  0.00    +0.043 A 
ATOM     13  N   UNL     1       9.162  -2.042  -4.617  0.00  0.00    -0.375 N 
ATOM     14  C   UNL     1       7.790   0.566  -7.072  0.00  0.00    +0.052 C 
ATOM     15  C   UNL     1       6.305   0.167  -6.965  0.00  0.00    +0.115 C 
ATOM     16  N   UNL     1       6.046  -0.277  -5.592  0.00  0.00    -0.269 N 
ATOM     17  C   UNL     1       5.131   0.186  -4.730  0.00  0.00    +0.313 C 
ATOM     18  O   UNL     1       4.277   0.999  -5.022  0.00  0.00    -0.252 OA
ATOM     19  C   UNL     1       6.589  -2.712  -5.510  0.00  0.00    +0.044 C 
ATOM     20  H   UNL     1       9.169  -2.565  -3.800  0.00  0.00    +0.160 HD
ENDROOT
BRANCH   1  21
ATOM     21  C   UNL     1       4.439   0.011  -2.357  0.00  0.00    +0.171 C 
BRANCH  21  23
ATOM     22  N   UNL     1       2.066  -0.181  -1.682  0.00  0.00    -0.313 N 
ATOM     23  C   UNL     1       3.014  -0.411  -2.612  0.00  0.00    +0.234 C 
ATOM     24  O   UNL     1       2.722  -0.958  -3.654  0.00  0.00    -0.274 OA
ATOM     25  H   UNL     1       2.301   0.256  -0.848  0.00  0.00    +0.149 HD
BRANCH  22  26
ATOM     26  C   UNL     1       0.682  -0.592  -1.930  0.00  0.00    +0.112 C 
BRANCH  26  28
ATOM     27  C   UNL     1      -0.233   1.306  -0.587  0.00  0.00    +0.014 C 
ATOM     28  C   UNL     1      -0.184  -0.217  -0.726  0.00  0.00    +0.033 C 
BRANCH  28  29
ATOM     29  C   UNL     1      -1.581  -0.747  -0.928  0.00  0.00    -0.043 A 
ATOM     30  C   UNL     1      -2.324  -0.340  -2.020  0.00  0.00    +0.004 A 
ATOM     31  C   UNL     1      -3.604  -0.826  -2.205  0.00  0.00    +0.000 A 
ATOM     32  C   UNL     1      -4.142  -1.720  -1.298  0.00  0.00    +0.000 A 
ATOM     33  C   UNL     1      -3.398  -2.128  -0.206  0.00  0.00    +0.000 A 
ATOM     34  C   UNL     1      -2.116  -1.645  -0.023  0.00  0.00    +0.004 A 
ENDBRANCH  28  29
ENDBRANCH  26  28
ENDBRANCH  22  26
ENDBRANCH  21  23
BRANCH  21  35
ATOM     35  C   UNL     1       4.491   1.525  -2.142  0.00  0.00    +0.035 C 
BRANCH  35  36
ATOM     36  C   UNL     1       5.925   1.943  -1.810  0.00  0.00    -0.015 C 
ATOM     37  C   UNL     1       6.007   3.470  -1.740  0.00  0.00    +0.007 C 
ATOM     38  C   UNL     1       6.329   1.349  -0.460  0.00  0.00    +0.007 C 
ENDBRANCH  35  36
ENDBRANCH  21  35
ENDBRANCH   1  21
TORSDOF 7
