REMARK  Name = ZINC29604792
REMARK  5 active torsions:
REMARK  status: ('A' for Active; 'I' for Inactive)
REMARK    1  A    between atoms: C_1  and  C_2
REMARK    2  A    between atoms: C_2  and  C_4
REMARK    3  A    between atoms: C_2  and  N_21
REMARK    4  A    between atoms: N_6  and  N_7
REMARK    5  A    between atoms: C_8  and  C_10
REMARK                            x       y       z     vdW  Elec       q    Type
REMARK                         _______ _______ _______ _____ _____    ______ ____
ROOT
ATOM      1  C   UNL     1       3.154   7.612  -1.218  0.00  0.00    +0.250 C 
ATOM      2  O   UNL     1       3.168   6.704  -2.022  0.00  0.00    -0.272 OA
ATOM      3  N   UNL     1       3.901   8.713  -1.433  0.00  0.00    -0.233 N 
ATOM      4  H   UNL     1       3.889   9.537  -0.704  0.00  0.00    +0.173 HD
ENDROOT
BRANCH   3   5
ATOM      5  N   UNL     1       4.695   8.808  -2.584  0.00  0.00    -0.231 N 
ATOM      6  C   UNL     1       5.442   9.909  -2.798  0.00  0.00    +0.273 C 
ATOM      7  O   UNL     1       5.428  10.817  -1.995  0.00  0.00    -0.270 OA
ATOM      8  H   UNL     1       4.707   7.984  -3.312  0.00  0.00    +0.173 HD
BRANCH   6   9
ATOM      9  C   UNL     1       6.295  10.011  -4.036  0.00  0.00    +0.297 C 
ATOM     10  C   UNL     1       7.404   8.951  -3.990  0.00  0.00    +0.283 C 
ATOM     11  O   UNL     1       8.202   9.085  -5.171  0.00  0.00    -0.484 OA
ATOM     12  C   UNL     1       8.582  10.347  -5.513  0.00  0.00    +0.162 A 
ATOM     13  C   UNL     1       9.625  10.524  -6.409  0.00  0.00    +0.049 A 
ATOM     14  C   UNL     1      10.018  11.799  -6.771  0.00  0.00    +0.004 A 
ATOM     15  C   UNL     1       9.372  12.900  -6.241  0.00  0.00    +0.004 A 
ATOM     16  C   UNL     1       8.332  12.730  -5.346  0.00  0.00    +0.049 A 
ATOM     17  C   UNL     1       7.934  11.454  -4.978  0.00  0.00    +0.163 A 
ATOM     18  O   UNL     1       6.911  11.302  -4.093  0.00  0.00    -0.472 OA
ENDBRANCH   6   9
ENDBRANCH   3   5
BRANCH   1  20
ATOM     19  C   UNL     1       3.191   7.600   1.261  0.00  0.00    +0.038 C 
ATOM     20  C   UNL     1       2.301   7.510   0.019  0.00  0.00    +0.169 C 
BRANCH  20  21
ATOM     21  N   UNL     1       1.591   6.228   0.019  0.00  0.00    -0.222 N 
ATOM     22  C   UNL     1       0.252   6.099   0.031  0.00  0.00    +0.254 C 
ATOM     23  O   UNL     1      -0.547   7.013   0.044  0.00  0.00    -0.270 OA
ATOM     24  C   UNL     1      -0.083   4.660   0.027  0.00  0.00    +0.049 A 
ATOM     25  C   UNL     1      -1.268   3.943   0.035  0.00  0.00    +0.015 A 
ATOM     26  C   UNL     1      -1.233   2.558   0.022  0.00  0.00    +0.016 A 
ATOM     27  C   UNL     1      -0.024   1.887   0.012  0.00  0.00    +0.019 A 
ATOM     28  C   UNL     1       1.171   2.592   0.005  0.00  0.00    +0.029 A 
ATOM     29  C   UNL     1       1.151   3.977   0.012  0.00  0.00    +0.050 A 
ATOM     30  C   UNL     1       2.193   5.025   0.007  0.00  0.00    +0.255 C 
ATOM     31  O   UNL     1       3.392   4.832  -0.004  0.00  0.00    -0.270 OA
ATOM     32 BR   UNL     1       0.002  -0.004   0.002  0.00  0.00    -0.050 Br
ENDBRANCH  20  21
ENDBRANCH   1  20
TORSDOF 4
