REMARK  Name = ZINC63491896
REMARK  8 active torsions:
REMARK  status: ('A' for Active; 'I' for Inactive)
REMARK    1  A    between atoms: C_1  and  C_2
REMARK    2  A    between atoms: C_2  and  N_3
REMARK    3  A    between atoms: C_7  and  C_9
REMARK    4  A    between atoms: C_9  and  C_10
REMARK    5  A    between atoms: C_9  and  N_11
REMARK    6  A    between atoms: C_14  and  C_17
REMARK    7  A    between atoms: C_17  and  C_18
REMARK    8  A    between atoms: C_17  and  O_24
REMARK                            x       y       z     vdW  Elec       q    Type
REMARK                         _______ _______ _______ _____ _____    ______ ____
ROOT
ATOM      1  N   UNL     1       2.294  -5.550   3.966  0.00  0.00    +0.387 N 
ATOM      2  C   UNL     1       3.007  -6.122   2.817  0.00  0.00    -0.077 C 
ATOM      3  C   UNL     1       2.854  -7.644   2.825  0.00  0.00    -0.012 C 
ATOM      4  C   UNL     1       3.443  -8.204   4.123  0.00  0.00    +0.019 C 
ATOM      5  C   UNL     1       2.744  -7.545   5.315  0.00  0.00    -0.012 C 
ATOM      6  C   UNL     1       2.900  -6.026   5.215  0.00  0.00    -0.077 C 
ATOM      7  H   UNL     1       1.326  -5.832   3.934  0.00  0.00    -0.081 HD
ENDROOT
BRANCH   1   8
ATOM      8  C   UNL     1       2.378  -4.084   3.911  0.00  0.00    +0.017 C 
ATOM      9  C   UNL     1       1.679  -3.487   5.135  0.00  0.00    -0.004 C 
BRANCH   8  14
ATOM     10  N   UNL     1       1.879  -0.820   0.417  0.00  0.00    -0.299 N 
ATOM     11  C   UNL     1       1.491  -1.983   0.976  0.00  0.00    +0.306 C 
ATOM     12  O   UNL     1       0.598  -2.633   0.469  0.00  0.00    -0.252 OA
ATOM     13  N   UNL     1       2.093  -2.426   2.098  0.00  0.00    -0.242 N 
ATOM     14  C   UNL     1       1.704  -3.589   2.657  0.00  0.00    +0.207 C 
ATOM     15  O   UNL     1       0.814  -4.237   2.151  0.00  0.00    -0.277 OA
ATOM     16  H   UNL     1       2.592  -0.302   0.822  0.00  0.00    +0.150 HD
ATOM     17  H   UNL     1       2.805  -1.907   2.503  0.00  0.00    +0.159 HD
BRANCH  10  19
ATOM     18  C   UNL     1       1.849   0.992  -1.225  0.00  0.00    +0.024 C 
ATOM     19  C   UNL     1       1.224  -0.339  -0.802  0.00  0.00    +0.102 C 
ENDBRANCH  10  19
ENDBRANCH   8  14
ENDBRANCH   1   8
BRANCH   4  20
ATOM     20  C   UNL     1       3.224  -9.717   4.174  0.00  0.00    +0.147 C 
BRANCH  20  21
ATOM     21  C   UNL     1       3.804 -10.267   5.452  0.00  0.00    -0.019 A 
ATOM     22  C   UNL     1       5.164 -10.490   5.553  0.00  0.00    +0.006 A 
ATOM     23  C   UNL     1       5.696 -10.994   6.725  0.00  0.00    +0.000 A 
ATOM     24  C   UNL     1       4.868 -11.274   7.796  0.00  0.00    +0.000 A 
ATOM     25  C   UNL     1       3.507 -11.050   7.695  0.00  0.00    +0.000 A 
ATOM     26  C   UNL     1       2.976 -10.542   6.524  0.00  0.00    +0.006 A 
ENDBRANCH  20  21
BRANCH  20  27
ATOM     27  O   UNL     1       3.869 -10.330   3.056  0.00  0.00    -0.387 OA
ATOM     28  H   UNL     1       4.824 -10.181   3.023  0.00  0.00    +0.210 HD
ENDBRANCH  20  27
ENDBRANCH   4  20
TORSDOF 6
