REMARK  Name = ZINC63775715
REMARK  6 active torsions:
REMARK  status: ('A' for Active; 'I' for Inactive)
REMARK    1  A    between atoms: C_1  and  C_2
REMARK    2  A    between atoms: C_5  and  N_9
REMARK    3  A    between atoms: C_10  and  C_12
REMARK    4  A    between atoms: C_12  and  N_13
REMARK    5  A    between atoms: C_16  and  C_21
REMARK    6  A    between atoms: C_21  and  C_22
REMARK                            x       y       z     vdW  Elec       q    Type
REMARK                         _______ _______ _______ _____ _____    ______ ____
ROOT
ATOM      1  N   UNL     1      -0.234  -6.825  -2.570  0.00  0.00    -0.216 N 
ATOM      2  C   UNL     1      -1.396  -7.000  -3.230  0.00  0.00    +0.244 C 
ATOM      3  O   UNL     1      -2.514  -6.795  -2.810  0.00  0.00    -0.273 OA
ATOM      4  C   UNL     1      -1.012  -7.505  -4.607  0.00  0.00    +0.165 C 
ATOM      5  N   UNL     1       0.459  -7.561  -4.558  0.00  0.00    -0.287 N 
ATOM      6  C   UNL     1       0.819  -7.141  -3.332  0.00  0.00    +0.310 C 
ATOM      7  O   UNL     1       1.973  -7.061  -2.957  0.00  0.00    -0.252 OA
ATOM      8  H   UNL     1       1.052  -7.843  -5.272  0.00  0.00    +0.151 HD
ENDROOT
BRANCH   1   9
ATOM      9  C   UNL     1      -0.136  -6.343  -1.190  0.00  0.00    +0.214 C 
BRANCH   9  11
ATOM     10  N   UNL     1       0.057  -4.171  -0.023  0.00  0.00    -0.283 N 
ATOM     11  C   UNL     1      -0.042  -4.839  -1.189  0.00  0.00    +0.235 C 
ATOM     12  O   UNL     1      -0.055  -4.230  -2.238  0.00  0.00    -0.274 OA
ATOM     13  H   UNL     1       0.149  -4.660   0.810  0.00  0.00    +0.155 HD
BRANCH  10  18
ATOM     14  C   UNL     1      -0.063   1.502   0.016  0.00  0.00    +0.044 C 
ATOM     15  C   UNL     1      -0.031  -0.005   0.006  0.00  0.00    -0.049 A 
ATOM     16  C   UNL     1      -0.622  -0.701  -1.033  0.00  0.00    +0.005 A 
ATOM     17  C   UNL     1      -0.594  -2.081  -1.045  0.00  0.00    +0.024 A 
ATOM     18  C   UNL     1       0.028  -2.771  -0.013  0.00  0.00    +0.048 A 
ATOM     19  C   UNL     1       0.621  -2.070   1.029  0.00  0.00    +0.039 A 
ATOM     20  C   UNL     1       0.595  -0.688   1.032  0.00  0.00    +0.020 A 
ATOM     21 BR   UNL     1       1.470  -3.004   2.437  0.00  0.00    -0.048 Br
ENDBRANCH  10  18
ENDBRANCH   9  11
ENDBRANCH   1   9
BRANCH   4  22
ATOM     22  C   UNL     1      -1.600  -8.896  -4.853  0.00  0.00    +0.065 C 
BRANCH  22  23
ATOM     23  C   UNL     1      -1.308  -9.320  -6.270  0.00  0.00    -0.039 C 
ATOM     24  C   UNL     1      -0.275 -10.083  -6.694  0.00  0.00    -0.001 A 
ATOM     25  C   UNL     1       0.845 -10.720  -5.990  0.00  0.00    +0.010 A 
ATOM     26  C   UNL     1       1.743 -11.438  -6.702  0.00  0.00    +0.001 A 
ATOM     27  C   UNL     1       1.632 -11.588  -8.091  0.00  0.00    +0.002 A 
ATOM     28  C   UNL     1       0.632 -11.033  -8.807  0.00  0.00    +0.026 A 
ATOM     29  C   UNL     1      -0.370 -10.257  -8.161  0.00  0.00    +0.043 A 
ATOM     30  N   UNL     1      -1.421  -9.627  -8.626  0.00  0.00    -0.380 N 
ATOM     31  C   UNL     1      -2.116  -8.986  -7.504  0.00  0.00    +0.144 C 
ATOM     32  H   UNL     1      -1.696  -9.593  -9.555  0.00  0.00    +0.160 HD
ENDBRANCH  22  23
ENDBRANCH   4  22
TORSDOF 5
