REMARK  Name = ZINC37776812
REMARK  8 active torsions:
REMARK  status: ('A' for Active; 'I' for Inactive)
REMARK    1  A    between atoms: C_1  and  C_2
REMARK    2  A    between atoms: C_6  and  O_21
REMARK    3  A    between atoms: C_7  and  N_8
REMARK    4  A    between atoms: N_8  and  C_9
REMARK    5  A    between atoms: C_12  and  C_20
REMARK    6  A    between atoms: N_14  and  C_19
REMARK    7  A    between atoms: C_16  and  C_18
REMARK    8  A    between atoms: O_21  and  C_22
REMARK                            x       y       z     vdW  Elec       q    Type
REMARK                         _______ _______ _______ _____ _____    ______ ____
ROOT
ATOM      1  N   UNL     1       0.025  -0.012   2.416  0.00  0.00    -0.338 N 
ATOM      2  H   UNL     1      -0.032   0.954   2.354  0.00  0.00    +0.146 HD
ENDROOT
BRANCH   1   3
ATOM      3  C   UNL     1      -0.388  -0.693   3.646  0.00  0.00    +0.070 C 
ATOM      4  C   UNL     1      -1.917  -0.733   3.720  0.00  0.00    +0.007 C 
ATOM      5  C   UNL     1      -2.341  -1.373   5.044  0.00  0.00    -0.070 C 
ATOM      6  N   UNL     1      -1.816  -0.584   6.164  0.00  0.00    +0.380 N 
ATOM      7  C   UNL     1      -0.349  -0.601   6.141  0.00  0.00    -0.074 C 
ATOM      8  C   UNL     1       0.154   0.068   4.859  0.00  0.00    -0.011 C 
ATOM      9  C   UNL     1      -0.337   1.517   4.815  0.00  0.00    +0.007 C 
ATOM     10  C   UNL     1      -2.291  -1.158   7.431  0.00  0.00    -0.096 C 
ATOM     11  C   UNL     1      -3.869  -1.415   5.123  0.00  0.00    -0.013 C 
ATOM     12  H   UNL     1      -2.142   0.368   6.086  0.00  0.00    -0.082 HD
ENDBRANCH   1   3
BRANCH   1  19
ATOM     13  C   UNL     1       1.784   1.264   0.582  0.00  0.00    +0.046 C 
ATOM     14  C   UNL     1       1.363  -0.173   0.413  0.00  0.00    -0.025 A 
ATOM     15  C   UNL     1       1.837  -0.912  -0.655  0.00  0.00    +0.020 A 
ATOM     16  C   UNL     1       1.452  -2.231  -0.814  0.00  0.00    +0.022 A 
ATOM     17  C   UNL     1       0.590  -2.817   0.095  0.00  0.00    +0.062 A 
ATOM     18  C   UNL     1       0.110  -2.084   1.167  0.00  0.00    +0.142 A 
ATOM     19  C   UNL     1       0.503  -0.757   1.331  0.00  0.00    +0.073 A 
ATOM     20 BR   UNL     1       2.106  -3.235  -2.277  0.00  0.00    -0.050 Br
BRANCH  18  21
ATOM     21  O   UNL     1      -0.739  -2.658   2.061  0.00  0.00    -0.493 OA
ATOM     22  C   UNL     1      -1.094  -4.024   1.833  0.00  0.00    +0.277 C 
ENDBRANCH  18  21
ENDBRANCH   1  19
TORSDOF 3
