REMARK  Name = ZINC06441889
REMARK  10 active torsions:
REMARK  status: ('A' for Active; 'I' for Inactive)
REMARK    1  A    between atoms: C_1  and  C_2
REMARK    2  A    between atoms: C_7  and  C_15
REMARK    3  A    between atoms: C_13  and  C_14
REMARK    4  A    between atoms: C_15  and  C_17
REMARK    5  A    between atoms: C_15  and  N_74
REMARK    6  A    between atoms: N_21  and  C_22
REMARK    7  A    between atoms: C_22  and  C_23
REMARK    8  A    between atoms: N_31  and  C_34
REMARK    9  A    between atoms: C_39  and  O_40
REMARK   10  A    between atoms: O_40  and  C_41
REMARK                            x       y       z     vdW  Elec       q    Type
REMARK                         _______ _______ _______ _____ _____    ______ ____
ROOT
ATOM      1  C   UNL     1       2.821   4.782   1.892  0.00  0.00    +0.039 C 
ENDROOT
BRANCH   1   8
ATOM      2  C   UNL     1       4.095   0.441   8.462  0.00  0.00    +0.044 C 
ATOM      3  C   UNL     1       3.994   1.107   7.114  0.00  0.00    -0.046 A 
ATOM      4  C   UNL     1       4.672   0.568   6.029  0.00  0.00    +0.004 A 
ATOM      5  C   UNL     1       4.593   1.156   4.798  0.00  0.00    +0.010 A 
ATOM      6  C   UNL     1       3.822   2.311   4.630  0.00  0.00    -0.001 A 
ATOM      7  C   UNL     1       3.711   2.964   3.324  0.00  0.00    +0.017 A 
ATOM      8  C   UNL     1       2.953   4.083   3.221  0.00  0.00    +0.011 A 
ATOM      9  C   UNL     1       2.282   4.593   4.353  0.00  0.00    +0.251 A 
ATOM     10  O   UNL     1       1.603   5.598   4.238  0.00  0.00    -0.268 OA
ATOM     11  N   UNL     1       2.375   3.999   5.556  0.00  0.00    -0.322 N 
ATOM     12  H   UNL     1       1.901   4.376   6.313  0.00  0.00    +0.169 HD
ATOM     13  C   UNL     1       3.134   2.861   5.727  0.00  0.00    +0.052 A 
ATOM     14  C   UNL     1       3.229   2.245   6.971  0.00  0.00    -0.024 A 
ATOM     15  C   UNL     1       2.499   2.819   8.158  0.00  0.00    +0.046 C 
ENDBRANCH   1   8
BRANCH   1  21
ATOM     16  C   UNL     1       3.092   6.905   0.760  0.00  0.00    -0.058 C 
ATOM     17  C   UNL     1       3.412   8.386   0.974  0.00  0.00    +0.086 C 
ATOM     18  N   UNL     1       4.763   8.517   1.538  0.00  0.00    -0.331 N 
ATOM     19  C   UNL     1       4.865   7.806   2.821  0.00  0.00    +0.086 C 
ATOM     20  C   UNL     1       4.546   6.324   2.606  0.00  0.00    -0.058 C 
ATOM     21  N   UNL     1       3.177   6.207   2.060  0.00  0.00    +0.391 N 
ATOM     22  H   UNL     1       2.518   6.640   2.716  0.00  0.00    -0.080 HD
BRANCH  18  23
ATOM     23  C   UNL     1       5.119   9.863   1.681  0.00  0.00    +0.072 A 
ATOM     24  C   UNL     1       4.168  10.857   1.503  0.00  0.00    +0.027 A 
ATOM     25  C   UNL     1       4.522  12.185   1.645  0.00  0.00    +0.002 A 
ATOM     26  C   UNL     1       5.823  12.527   1.964  0.00  0.00    +0.004 A 
ATOM     27  C   UNL     1       6.777  11.541   2.143  0.00  0.00    +0.047 A 
ATOM     28  C   UNL     1       6.428  10.208   2.009  0.00  0.00    +0.141 A 
BRANCH  28  29
ATOM     29  O   UNL     1       7.364   9.237   2.190  0.00  0.00    -0.493 OA
ATOM     30  C   UNL     1       8.686   9.665   2.524  0.00  0.00    +0.277 C 
ENDBRANCH  28  29
ENDBRANCH  18  23
ENDBRANCH   1  21
BRANCH   1  31
ATOM     31  C   UNL     1       1.395   4.687   1.415  0.00  0.00    +0.143 A 
ATOM     32  N   UNL     1       0.371   5.367   1.870  0.00  0.00    -0.115 NA
ATOM     33  N   UNL     1      -0.673   5.005   1.208  0.00  0.00    -0.023 NA
ATOM     34  N   UNL     1      -0.341   4.115   0.339  0.00  0.00    -0.044 NA
ATOM     35  N   UNL     1       0.925   3.888   0.439  0.00  0.00    -0.228 N 
BRANCH  35  36
ATOM     36  C   UNL     1       1.706   2.943  -0.363  0.00  0.00    +0.178 C 
BRANCH  36  37
ATOM     37  C   UNL     1       1.722   1.579   0.329  0.00  0.00    +0.140 C 
ATOM     38  C   UNL     1       2.553   0.560  -0.492  0.00  0.00    +0.035 C 
ATOM     39  C   UNL     1       1.949  -0.791  -0.040  0.00  0.00    +0.031 C 
ATOM     40  C   UNL     1       0.562  -0.417   0.519  0.00  0.00    +0.160 C 
ATOM     41  O   UNL     1       0.399   1.000   0.343  0.00  0.00    -0.375 OA
ENDBRANCH  36  37
ENDBRANCH  35  36
ENDBRANCH   1  31
TORSDOF 7
