REMARK  Name = ZINC19755664
REMARK  5 active torsions:
REMARK  status: ('A' for Active; 'I' for Inactive)
REMARK    1  A    between atoms: C_1  and  C_2
REMARK    2  A    between atoms: N_5  and  C_14
REMARK    3  A    between atoms: C_8  and  N_13
REMARK    4  A    between atoms: C_14  and  C_15
REMARK    5  A    between atoms: N_17  and  C_18
REMARK                            x       y       z     vdW  Elec       q    Type
REMARK                         _______ _______ _______ _____ _____    ______ ____
ROOT
ATOM      1  C   UNL     1      -2.765  -2.545  -0.525  0.00  0.00    +0.053 C 
ATOM      2  C   UNL     1      -1.353  -2.015  -0.268  0.00  0.00    +0.188 C 
ATOM      3  C   UNL     1      -1.374  -0.481  -0.218  0.00  0.00    +0.150 C 
ATOM      4  N   UNL     1       0.001  -0.000  -0.041  0.00  0.00    -0.315 N 
ATOM      5  C   UNL     1       0.653  -0.643   1.016  0.00  0.00    +0.074 A 
ATOM      6  C   UNL     1       1.770  -0.034   1.577  0.00  0.00    +0.049 A 
ATOM      7  C   UNL     1       2.445  -0.642   2.623  0.00  0.00    +0.027 A 
ATOM      8  C   UNL     1       2.006  -1.865   3.115  0.00  0.00    +0.026 A 
ATOM      9  C   UNL     1       0.895  -2.471   2.561  0.00  0.00    +0.049 A 
ATOM     10  C   UNL     1       0.215  -1.865   1.514  0.00  0.00    +0.142 A 
ATOM     11  O   UNL     1      -0.880  -2.490   0.996  0.00  0.00    -0.486 OA
ENDROOT
BRANCH   7  12
ATOM     12  N   UNL     1       3.569  -0.026   3.185  0.00  0.00    -0.358 N 
ATOM     13  H   UNL     1       4.104  -0.509   4.016  0.00  0.00    +0.142 HD
ATOM     14  H   UNL     1       3.917   0.943   2.796  0.00  0.00    +0.142 HD
ENDBRANCH   7  12
BRANCH   4  15
ATOM     15  C   UNL     1       0.030   1.458   0.132  0.00  0.00    +0.201 C 
BRANCH  15  16
ATOM     16  C   UNL     1      -0.329   2.126  -1.171  0.00  0.00    +0.235 C 
ATOM     17  O   UNL     1      -0.665   1.455  -2.123  0.00  0.00    -0.274 OA
ATOM     18  N   UNL     1      -0.277   3.469  -1.276  0.00  0.00    -0.284 N 
ATOM     19  H   UNL     1       0.096   4.073  -0.436  0.00  0.00    +0.155 HD
BRANCH  18  20
ATOM     20  C   UNL     1      -0.698   4.094  -2.456  0.00  0.00    +0.034 A 
ATOM     21  C   UNL     1      -0.475   3.486  -3.684  0.00  0.00    +0.025 A 
ATOM     22  C   UNL     1      -0.896   4.103  -4.846  0.00  0.00    +0.022 A 
ATOM     23  C   UNL     1      -1.530   5.332  -4.787  0.00  0.00    +0.041 A 
ATOM     24  C   UNL     1      -1.749   5.943  -3.565  0.00  0.00    +0.022 A 
ATOM     25  C   UNL     1      -1.335   5.327  -2.400  0.00  0.00    +0.025 A 
ATOM     26 CL   UNL     1      -2.051   6.108  -6.250  0.00  0.00    -0.084 Cl
ENDBRANCH  18  20
ENDBRANCH  15  16
ENDBRANCH   4  15
TORSDOF 4
