REMARK  Name = ZINC09884906
REMARK  9 active torsions:
REMARK  status: ('A' for Active; 'I' for Inactive)
REMARK    1  A    between atoms: C_1  and  C_2
REMARK    2  A    between atoms: C_2  and  C_3
REMARK    3  A    between atoms: C_6  and  N_9
REMARK    4  A    between atoms: C_10  and  C_12
REMARK    5  A    between atoms: C_12  and  C_14
REMARK    6  A    between atoms: C_12  and  S_15
REMARK    7  A    between atoms: S_15  and  C_16
REMARK    8  A    between atoms: C_19  and  C_22
REMARK    9  A    between atoms: N_20  and  N_21
REMARK                            x       y       z     vdW  Elec       q    Type
REMARK                         _______ _______ _______ _____ _____    ______ ____
ROOT
ATOM      1  S   UNL     1       2.916  -5.638  -0.100  0.00  0.00    -0.072 S 
ENDROOT
BRANCH   1   2
ATOM      2  C   UNL     1       1.910  -4.194  -0.012  0.00  0.00    +0.209 A 
ATOM      3  N   UNL     1       0.599  -4.161   0.082  0.00  0.00    -0.121 NA
ATOM      4  N   UNL     1       0.190  -2.944   0.124  0.00  0.00    -0.127 NA
ATOM      5  C   UNL     1       1.214  -2.124   0.058  0.00  0.00    +0.183 A 
ATOM      6  N   UNL     1       2.346  -2.900  -0.037  0.00  0.00    -0.224 N 
BRANCH   5   7
ATOM      7  C   UNL     1       1.159  -0.647   0.077  0.00  0.00    +0.035 A 
ATOM      8  C   UNL     1       1.891   0.093  -0.853  0.00  0.00    +0.013 A 
ATOM      9  C   UNL     1       1.836   1.471  -0.830  0.00  0.00    +0.001 A 
ATOM     10  C   UNL     1       1.058   2.120   0.112  0.00  0.00    +0.001 A 
ATOM     11  C   UNL     1       0.330   1.394   1.037  0.00  0.00    +0.016 A 
ATOM     12  C   UNL     1       0.376   0.014   1.025  0.00  0.00    +0.029 A 
ATOM     13 BR   UNL     1      -0.621  -0.978   2.289  0.00  0.00    -0.050 Br
ENDBRANCH   5   7
BRANCH   6  14
ATOM     14  N   UNL     1       3.638  -2.466  -0.133  0.00  0.00    -0.295 N 
ATOM     15  H   UNL     1       4.028  -2.287   0.780  0.00  0.00    +0.163 HD
ATOM     16  H   UNL     1       4.204  -3.126  -0.646  0.00  0.00    +0.163 HD
ENDBRANCH   6  14
ENDBRANCH   1   2
BRANCH   1  17
ATOM     17  C   UNL     1       1.638  -6.917  -0.020  0.00  0.00    +0.137 C 
ATOM     18  C   UNL     1       0.754  -6.833  -1.266  0.00  0.00    +0.029 C 
BRANCH  17  20
ATOM     19  N   UNL     1       1.595  -9.334   0.505  0.00  0.00    -0.285 N 
ATOM     20  C   UNL     1       2.289  -8.274   0.044  0.00  0.00    +0.230 C 
ATOM     21  O   UNL     1       3.437  -8.414  -0.321  0.00  0.00    -0.274 OA
ATOM     22  H   UNL     1       0.655  -9.239   0.728  0.00  0.00    +0.155 HD
BRANCH  19  26
ATOM     23  C   UNL     1       3.485 -13.016   0.980  0.00  0.00    -0.048 A 
ATOM     24  C   UNL     1       4.192 -11.846   1.188  0.00  0.00    +0.005 A 
ATOM     25  C   UNL     1       3.568 -10.623   1.032  0.00  0.00    +0.023 A 
ATOM     26  C   UNL     1       2.230 -10.570   0.665  0.00  0.00    +0.033 A 
ATOM     27  C   UNL     1       1.522 -11.747   0.462  0.00  0.00    +0.023 A 
ATOM     28  C   UNL     1       2.153 -12.966   0.614  0.00  0.00    +0.005 A 
BRANCH  23  30
ATOM     29  C   UNL     1       4.018 -14.816   2.600  0.00  0.00    +0.009 C 
ATOM     30  C   UNL     1       4.169 -14.348   1.151  0.00  0.00    +0.032 C 
ENDBRANCH  23  30
ENDBRANCH  19  26
ENDBRANCH  17  20
ENDBRANCH   1  17
TORSDOF 7
