REMARK  Name = ZINC39212078
REMARK  7 active torsions:
REMARK  status: ('A' for Active; 'I' for Inactive)
REMARK    1  A    between atoms: C_1  and  C_2
REMARK    2  A    between atoms: C_2  and  C_3
REMARK    3  A    between atoms: C_4  and  C_25
REMARK    4  A    between atoms: C_6  and  S_10
REMARK    5  A    between atoms: S_10  and  C_11
REMARK    6  A    between atoms: C_11  and  C_12
REMARK    7  A    between atoms: C_15  and  C_18
REMARK                            x       y       z     vdW  Elec       q    Type
REMARK                         _______ _______ _______ _____ _____    ______ ____
ROOT
ATOM      1  C   UNL     1      -7.443  -2.744  -1.834  0.00  0.00    +0.302 C 
ATOM      2  N   UNL     1      -7.573  -4.045  -1.159  0.00  0.00    -0.289 N 
ATOM      3  C   UNL     1      -8.511  -3.883  -0.156  0.00  0.00    +0.168 C 
ATOM      4  N   UNL     1      -8.963  -2.672  -0.130  0.00  0.00    -0.067 NA
ATOM      5  O   UNL     1      -8.359  -1.883  -1.140  0.00  0.00    -0.369 OA
ATOM      6  H   UNL     1      -7.093  -4.860  -1.377  0.00  0.00    +0.151 HD
ENDROOT
BRANCH   3   7
ATOM      7  C   UNL     1      -8.941  -4.957   0.768  0.00  0.00    +0.018 A 
ATOM      8  C   UNL     1      -8.389  -6.233   0.663  0.00  0.00    +0.013 A 
ATOM      9  C   UNL     1      -8.793  -7.230   1.526  0.00  0.00    +0.021 A 
ATOM     10  C   UNL     1      -9.746  -6.965   2.496  0.00  0.00    +0.041 A 
ATOM     11  C   UNL     1     -10.298  -5.700   2.604  0.00  0.00    +0.021 A 
ATOM     12  C   UNL     1      -9.896  -4.694   1.750  0.00  0.00    +0.013 A 
ATOM     13 CL   UNL     1     -10.251  -8.225   3.579  0.00  0.00    -0.084 Cl
ENDBRANCH   3   7
BRANCH   1  14
ATOM     14  C   UNL     1      -6.012  -2.217  -1.704  0.00  0.00    +0.145 C 
BRANCH  14  15
ATOM     15  S   UNL     1      -5.580  -2.064   0.051  0.00  0.00    -0.080 S 
BRANCH  15  19
ATOM     16  C   UNL     1      -1.412  -0.526   0.013  0.00  0.00    +0.040 A 
ATOM     17  C   UNL     1      -2.065  -0.771   1.206  0.00  0.00    +0.049 A 
ATOM     18  N   UNL     1      -3.308  -1.230   1.181  0.00  0.00    -0.227 NA
ATOM     19  C   UNL     1      -3.927  -1.454   0.032  0.00  0.00    +0.192 A 
ATOM     20  N   UNL     1      -3.334  -1.231  -1.132  0.00  0.00    -0.183 NA
ATOM     21  C   UNL     1      -2.092  -0.766  -1.180  0.00  0.00    +0.277 A 
ATOM     22  O   UNL     1      -1.491  -0.533  -2.373  0.00  0.00    -0.265 OA
ATOM     23  C   UNL     1      -1.372  -0.521   2.520  0.00  0.00    +0.066 C 
BRANCH  16  25
ATOM     24  C   UNL     1      -0.019   1.526   0.010  0.00  0.00    +0.009 C 
ATOM     25  C   UNL     1       0.002  -0.004   0.002  0.00  0.00    +0.039 C 
ENDBRANCH  16  25
ENDBRANCH  15  19
ENDBRANCH  14  15
ENDBRANCH   1  14
TORSDOF 5
