REMARK  Name = ZINC02386699
REMARK  5 active torsions:
REMARK  status: ('A' for Active; 'I' for Inactive)
REMARK    1  A    between atoms: C_3  and  C_8
REMARK    2  A    between atoms: C_8  and  S_9
REMARK    3  A    between atoms: S_9  and  C_10
REMARK    4  A    between atoms: C_13  and  C_16
REMARK    5  A    between atoms: N_14  and  N_15
REMARK                            x       y       z     vdW  Elec       q    Type
REMARK                         _______ _______ _______ _____ _____    ______ ____
ROOT
ATOM      1  C   UNL     1       1.750   5.666  -0.146  0.00  0.00    +0.209 A 
ATOM      2  N   UNL     1       0.487   5.571   0.205  0.00  0.00    -0.121 NA
ATOM      3  N   UNL     1       0.147   4.335   0.297  0.00  0.00    -0.127 NA
ATOM      4  C   UNL     1       1.171   3.565   0.009  0.00  0.00    +0.182 A 
ATOM      5  N   UNL     1       2.231   4.394  -0.277  0.00  0.00    -0.224 N 
ENDROOT
BRANCH   4   6
ATOM      6  C   UNL     1       1.184   2.087   0.002  0.00  0.00    +0.022 A 
ATOM      7  C   UNL     1      -0.017   1.375   0.010  0.00  0.00    +0.012 A 
ATOM      8  C   UNL     1       0.002  -0.004   0.002  0.00  0.00    +0.002 A 
ATOM      9  C   UNL     1       1.208  -0.683  -0.014  0.00  0.00    +0.020 A 
ATOM     10  C   UNL     1       2.402   0.017  -0.022  0.00  0.00    +0.042 A 
ATOM     11  C   UNL     1       2.397   1.397  -0.013  0.00  0.00    +0.031 A 
ATOM     12 CL   UNL     1       3.910  -0.844  -0.042  0.00  0.00    -0.084 Cl
ENDBRANCH   4   6
BRANCH   5  13
ATOM     13  N   UNL     1       3.499   4.023  -0.623  0.00  0.00    -0.295 N 
ATOM     14  H   UNL     1       3.587   3.926  -1.624  0.00  0.00    +0.163 HD
ATOM     15  H   UNL     1       4.178   4.675  -0.262  0.00  0.00    +0.163 HD
ENDBRANCH   5  13
BRANCH   1  16
ATOM     16  S   UNL     1       2.657   7.156  -0.394  0.00  0.00    -0.080 S 
BRANCH  16  17
ATOM     17  C   UNL     1       1.366   8.373  -0.032  0.00  0.00    +0.112 C 
BRANCH  17  20
ATOM     18  C   UNL     1       2.381  11.678  -1.549  0.00  0.00    +0.002 A 
ATOM     19  C   UNL     1       1.866  10.403  -1.408  0.00  0.00    +0.004 A 
ATOM     20  C   UNL     1       1.929   9.762  -0.185  0.00  0.00    -0.036 A 
ATOM     21  C   UNL     1       2.503  10.399   0.900  0.00  0.00    +0.024 A 
ATOM     22  C   UNL     1       3.023  11.673   0.759  0.00  0.00    +0.041 A 
ATOM     23  C   UNL     1       2.959  12.313  -0.466  0.00  0.00    +0.020 A 
ATOM     24 CL   UNL     1       3.749  12.470   2.119  0.00  0.00    -0.084 Cl
ENDBRANCH  17  20
ENDBRANCH  16  17
ENDBRANCH   1  16
TORSDOF 5
