REMARK  Name = ZINC49309737
REMARK  6 active torsions:
REMARK  status: ('A' for Active; 'I' for Inactive)
REMARK    1  A    between atoms: C_1  and  C_2
REMARK    2  A    between atoms: C_5  and  N_9
REMARK    3  A    between atoms: N_9  and  C_10
REMARK    4  A    between atoms: C_10  and  C_11
REMARK    5  A    between atoms: N_13  and  C_14
REMARK    6  A    between atoms: C_14  and  C_15
REMARK                            x       y       z     vdW  Elec       q    Type
REMARK                         _______ _______ _______ _____ _____    ______ ____
ROOT
ATOM      1  N   UNL     1       0.057  -4.170  -0.021  0.00  0.00    -0.334 N 
ATOM      2  H   UNL     1       0.081  -4.595  -0.892  0.00  0.00    +0.147 HD
ENDROOT
BRANCH   1   7
ATOM      3  C   UNL     1      -1.823   1.159   0.482  0.00  0.00    +0.044 C 
ATOM      4  C   UNL     1      -1.324  -0.257   0.348  0.00  0.00    -0.048 A 
ATOM      5  C   UNL     1      -0.415  -0.756   1.263  0.00  0.00    +0.020 A 
ATOM      6  C   UNL     1       0.045  -2.054   1.143  0.00  0.00    +0.040 A 
ATOM      7  C   UNL     1      -0.407  -2.857   0.103  0.00  0.00    +0.056 A 
ATOM      8  C   UNL     1      -1.320  -2.351  -0.814  0.00  0.00    +0.040 A 
ATOM      9  C   UNL     1      -1.780  -1.054  -0.685  0.00  0.00    +0.020 A 
ATOM     10 BR   UNL     1      -1.938  -3.439  -2.232  0.00  0.00    -0.048 Br
ATOM     11 BR   UNL     1       1.289  -2.736   2.394  0.00  0.00    -0.048 Br
ENDBRANCH   1   7
BRANCH   1  12
ATOM     12  C   UNL     1       0.507  -4.903   1.165  0.00  0.00    +0.197 C 
BRANCH  12  13
ATOM     13  C   UNL     1       0.547  -6.378   0.858  0.00  0.00    +0.230 C 
ATOM     14  O   UNL     1       0.232  -6.777  -0.243  0.00  0.00    -0.274 OA
ATOM     15  N   UNL     1       0.934  -7.253   1.807  0.00  0.00    -0.305 N 
ATOM     16  H   UNL     1       1.187  -6.934   2.688  0.00  0.00    +0.149 HD
BRANCH  15  17
ATOM     17  C   UNL     1       0.974  -8.687   1.509  0.00  0.00    +0.217 C 
BRANCH  17  18
ATOM     18  C   UNL     1       1.443  -9.453   2.748  0.00  0.00    +0.405 C 
ATOM     19  F   UNL     1       0.555  -9.220   3.804  0.00  0.00    -0.169 F 
ATOM     20  F   UNL     1       1.481 -10.822   2.463  0.00  0.00    -0.169 F 
ATOM     21  F   UNL     1       2.722  -9.016   3.109  0.00  0.00    -0.169 F 
ENDBRANCH  17  18
ENDBRANCH  15  17
ENDBRANCH  12  13
ENDBRANCH   1  12
TORSDOF 5
