REMARK  Name = ZINC12625330
REMARK  4 active torsions:
REMARK  status: ('A' for Active; 'I' for Inactive)
REMARK    1  A    between atoms: C_4  and  N_7
REMARK    2  A    between atoms: N_11  and  N_12
REMARK    3  A    between atoms: N_12  and  C_13
REMARK    4  A    between atoms: C_17  and  C_19
REMARK                            x       y       z     vdW  Elec       q    Type
REMARK                         _______ _______ _______ _____ _____    ______ ____
ROOT
ATOM      1  N   UNL     1       3.622  -0.650  -0.037  0.00  0.00    -0.154 N 
ATOM      2  C   UNL     1       3.756  -1.992  -0.051  0.00  0.00    +0.294 C 
ATOM      3  O   UNL     1       2.860  -2.818  -0.052  0.00  0.00    -0.266 OA
ATOM      4  C   UNL     1       5.205  -2.257  -0.065  0.00  0.00    +0.186 C 
ATOM      5  N   UNL     1       5.808  -3.430  -0.081  0.00  0.00    -0.174 NA
ATOM      6  C   UNL     1       5.834  -0.922  -0.057  0.00  0.00    +0.167 C 
ATOM      7  N   UNL     1       4.875  -0.039  -0.047  0.00  0.00    -0.155 NA
ATOM      8  N   UNL     1       7.201  -0.654  -0.066  0.00  0.00    -0.340 N 
ATOM      9  H   UNL     1       7.838  -1.386  -0.078  0.00  0.00    +0.144 HD
ATOM     10  H   UNL     1       7.515   0.263  -0.059  0.00  0.00    +0.144 HD
ENDROOT
BRANCH   1  14
ATOM     11  C   UNL     1      -0.017   1.379   0.010  0.00  0.00    +0.000 A 
ATOM     12  C   UNL     1       1.170   2.090   0.002  0.00  0.00    +0.002 A 
ATOM     13  C   UNL     1       2.377   1.420  -0.013  0.00  0.00    +0.025 A 
ATOM     14  C   UNL     1       2.400   0.031  -0.021  0.00  0.00    +0.060 A 
ATOM     15  C   UNL     1       1.206  -0.680  -0.013  0.00  0.00    +0.025 A 
ATOM     16  C   UNL     1       0.002  -0.004   0.002  0.00  0.00    +0.002 A 
ENDBRANCH   1  14
BRANCH   5  17
ATOM     17  N   UNL     1       5.109  -4.515  -0.086  0.00  0.00    -0.237 N 
ATOM     18  H   UNL     1       4.140  -4.467  -0.078  0.00  0.00    +0.174 HD
BRANCH  17  19
ATOM     19  C   UNL     1       5.747  -5.756  -0.103  0.00  0.00    +0.049 A 
ATOM     20  C   UNL     1       7.135  -5.825  -0.109  0.00  0.00    +0.026 A 
ATOM     21  C   UNL     1       7.763  -7.054  -0.126  0.00  0.00    +0.022 A 
ATOM     22  C   UNL     1       7.012  -8.217  -0.137  0.00  0.00    +0.048 A 
ATOM     23  C   UNL     1       5.629  -8.151  -0.132  0.00  0.00    +0.023 A 
ATOM     24  C   UNL     1       4.995  -6.925  -0.108  0.00  0.00    +0.034 A 
ATOM     25 CL   UNL     1       7.805  -9.761  -0.159  0.00  0.00    -0.083 Cl
BRANCH  23  26
ATOM     26  C   UNL     1       4.815  -9.419  -0.145  0.00  0.00    +0.217 C 
ATOM     27 CL   UNL     1       3.060  -9.007  -0.134  0.00  0.00    -0.078 Cl
ATOM     28 CL   UNL     1       5.201 -10.365  -1.631  0.00  0.00    -0.078 Cl
ATOM     29 CL   UNL     1       5.211 -10.403   1.313  0.00  0.00    -0.078 Cl
ENDBRANCH  23  26
ENDBRANCH  17  19
ENDBRANCH   5  17
TORSDOF 4
