REMARK  Name = ZINC65486477
REMARK  11 active torsions:
REMARK  status: ('A' for Active; 'I' for Inactive)
REMARK    1  A    between atoms: C_1  and  C_2
REMARK    2  A    between atoms: C_3  and  C_9
REMARK    3  A    between atoms: C_4  and  C_8
REMARK    4  A    between atoms: N_5  and  C_7
REMARK    5  A    between atoms: C_9  and  C_10
REMARK    6  A    between atoms: C_9  and  N_11
REMARK    7  A    between atoms: N_14  and  C_15
REMARK    8  A    between atoms: C_15  and  C_16
REMARK    9  A    between atoms: C_16  and  C_17
REMARK   10  A    between atoms: C_16  and  C_18
REMARK   11  A    between atoms: C_16  and  N_19
REMARK                            x       y       z     vdW  Elec       q    Type
REMARK                         _______ _______ _______ _____ _____    ______ ____
ROOT
ATOM      1  N   UNL     1       0.630   0.261  -4.009  0.00  0.00    -0.293 N 
ATOM      2  C   UNL     1       1.379   0.773  -5.006  0.00  0.00    +0.300 C 
ATOM      3  O   UNL     1       1.283   0.323  -6.132  0.00  0.00    -0.253 OA
ATOM      4  N   UNL     1       2.234   1.784  -4.756  0.00  0.00    -0.301 N 
ATOM      5  H   UNL     1       0.707   0.620  -3.112  0.00  0.00    +0.151 HD
ATOM      6  H   UNL     1       2.311   2.143  -3.858  0.00  0.00    +0.150 HD
ENDROOT
BRANCH   1   7
ATOM      7  C   UNL     1      -0.299  -0.838  -4.282  0.00  0.00    +0.105 C 
ATOM      8  C   UNL     1      -1.626  -0.269  -4.789  0.00  0.00    +0.033 C 
BRANCH   7  11
ATOM      9  C   UNL     1      -0.874   0.389  -1.417  0.00  0.00    +0.068 C 
ATOM     10  C   UNL     1      -0.793  -1.078  -1.751  0.00  0.00    +0.065 A 
ATOM     11  C   UNL     1      -0.539  -1.619  -3.015  0.00  0.00    +0.016 A 
ATOM     12  C   UNL     1      -0.547  -2.967  -2.901  0.00  0.00    +0.041 A 
ATOM     13  N   UNL     1      -0.797  -3.269  -1.610  0.00  0.00    -0.271 N 
ATOM     14  N   UNL     1      -0.943  -2.066  -0.906  0.00  0.00    -0.176 NA
ATOM     15  C   UNL     1      -0.894  -4.616  -1.043  0.00  0.00    +0.172 C 
ATOM     16  C   UNL     1      -0.318  -3.955  -4.016  0.00  0.00    +0.065 C 
ENDBRANCH   7  11
ENDBRANCH   1   7
BRANCH   4  17
ATOM     17  C   UNL     1       3.048   2.340  -5.839  0.00  0.00    +0.093 C 
BRANCH  17  18
ATOM     18  C   UNL     1       3.926   3.467  -5.291  0.00  0.00    -0.055 C 
ATOM     19  C   UNL     1       4.776   4.048  -6.423  0.00  0.00    -0.008 C 
ATOM     20  C   UNL     1       3.038   4.566  -4.704  0.00  0.00    -0.008 C 
BRANCH  18  21
ATOM     21  N   UNL     1       4.806   2.936  -4.241  0.00  0.00    +0.387 N 
ATOM     22  C   UNL     1       5.724   3.992  -3.787  0.00  0.00    -0.073 C 
ATOM     23  C   UNL     1       6.410   3.523  -2.504  0.00  0.00    +0.017 C 
ATOM     24  C   UNL     1       6.995   2.149  -2.711  0.00  0.00    -0.048 A 
ATOM     25  C   UNL     1       7.941   1.687  -1.810  0.00  0.00    +0.004 A 
ATOM     26  C   UNL     1       8.497   0.432  -1.965  0.00  0.00    +0.000 A 
ATOM     27  C   UNL     1       8.107  -0.366  -3.024  0.00  0.00    +0.000 A 
ATOM     28  C   UNL     1       7.165   0.094  -3.922  0.00  0.00    +0.002 A 
ATOM     29  C   UNL     1       6.607   1.355  -3.768  0.00  0.00    -0.061 A 
ATOM     30  C   UNL     1       5.590   1.819  -4.777  0.00  0.00    -0.042 C 
ATOM     31  H   UNL     1       4.248   2.615  -3.464  0.00  0.00    -0.080 HD
ENDBRANCH  18  21
ENDBRANCH  17  18
ENDBRANCH   4  17
TORSDOF 5
