REMARK  Name = ZINC08828639
REMARK  10 active torsions:
REMARK  status: ('A' for Active; 'I' for Inactive)
REMARK    1  A    between atoms: C_1  and  C_2
REMARK    2  A    between atoms: C_2  and  O_3
REMARK    3  A    between atoms: O_3  and  C_4
REMARK    4  A    between atoms: C_4  and  C_6
REMARK    5  A    between atoms: C_9  and  N_12
REMARK    6  A    between atoms: N_15  and  C_16
REMARK    7  A    between atoms: N_25  and  C_26
REMARK    8  A    between atoms: C_26  and  C_27
REMARK    9  A    between atoms: N_31  and  C_32
REMARK   10  A    between atoms: C_32  and  C_33
REMARK                            x       y       z     vdW  Elec       q    Type
REMARK                         _______ _______ _______ _____ _____    ______ ____
ROOT
ATOM      1  C   UNL     1       4.223  -7.221   7.433  0.00  0.00    +0.071 C 
ATOM      2  C   UNL     1       5.528  -7.772   6.851  0.00  0.00    +0.007 C 
ATOM      3  C   UNL     1       6.711  -7.173   7.628  0.00  0.00    -0.066 C 
ATOM      4  C   UNL     1       6.490  -5.646   7.723  0.00  0.00    -0.017 C 
ATOM      5  C   UNL     1       5.656  -5.447   9.006  0.00  0.00    -0.017 C 
ATOM      6  C   UNL     1       5.450  -6.871   9.570  0.00  0.00    -0.066 C 
ATOM      7  C   UNL     1       4.183  -7.474   8.943  0.00  0.00    +0.007 C 
ATOM      8  N   UNL     1       6.609  -7.660   9.030  0.00  0.00    +0.388 N 
ATOM      9  H   UNL     1       6.420  -8.650   9.049  0.00  0.00    -0.080 HD
ENDROOT
BRANCH   1  13
ATOM     10  N   UNL     1       3.033  -3.948   6.254  0.00  0.00    -0.269 N 
ATOM     11  C   UNL     1       3.104  -5.274   6.488  0.00  0.00    +0.304 C 
ATOM     12  O   UNL     1       2.229  -6.011   6.079  0.00  0.00    -0.253 OA
ATOM     13  N   UNL     1       4.145  -5.781   7.178  0.00  0.00    -0.296 N 
ATOM     14  H   UNL     1       3.773  -3.372   6.500  0.00  0.00    +0.156 HD
ATOM     15  H   UNL     1       4.843  -5.192   7.505  0.00  0.00    +0.151 HD
BRANCH  10  19
ATOM     16  C   UNL     1      -0.366  -2.329   4.471  0.00  0.00    +0.059 A 
ATOM     17  C   UNL     1      -0.463  -3.500   5.229  0.00  0.00    +0.017 A 
ATOM     18  C   UNL     1       0.662  -4.032   5.817  0.00  0.00    +0.024 A 
ATOM     19  C   UNL     1       1.895  -3.406   5.657  0.00  0.00    +0.035 A 
ATOM     20  C   UNL     1       1.995  -2.241   4.903  0.00  0.00    +0.024 A 
ATOM     21  C   UNL     1       0.875  -1.706   4.308  0.00  0.00    +0.017 A 
BRANCH  16  22
ATOM     22  C   UNL     1      -1.569  -1.756   3.840  0.00  0.00    +0.339 C 
ATOM     23  O   UNL     1      -1.482  -0.741   3.177  0.00  0.00    -0.245 OA
BRANCH  22  24
ATOM     24  O   UNL     1      -2.764  -2.358   3.998  0.00  0.00    -0.461 OA
BRANCH  24  26
ATOM     25  C   UNL     1      -5.146  -2.567   3.649  0.00  0.00    +0.048 C 
ATOM     26  C   UNL     1      -3.887  -1.748   3.358  0.00  0.00    +0.229 C 
ENDBRANCH  24  26
ENDBRANCH  22  24
ENDBRANCH  16  22
ENDBRANCH  10  19
ENDBRANCH   1  13
BRANCH   8  27
ATOM     27  C   UNL     1       7.836  -7.350   9.775  0.00  0.00    +0.001 C 
BRANCH  27  28
ATOM     28  C   UNL     1       7.756  -7.960  11.151  0.00  0.00    +0.136 A 
ATOM     29  N   UNL     1       7.265  -7.397  12.229  0.00  0.00    -0.115 NA
ATOM     30  N   UNL     1       7.375  -8.236  13.201  0.00  0.00    -0.023 NA
ATOM     31  N   UNL     1       7.923  -9.319  12.771  0.00  0.00    -0.044 NA
ATOM     32  N   UNL     1       8.168  -9.190  11.511  0.00  0.00    -0.224 N 
BRANCH  32  33
ATOM     33  C   UNL     1       8.782 -10.192  10.636  0.00  0.00    +0.221 C 
BRANCH  33  34
ATOM     34  C   UNL     1      10.278 -10.015  10.643  0.00  0.00    +0.126 A 
ATOM     35  C   UNL     1      11.137 -10.615  11.486  0.00  0.00    +0.046 A 
ATOM     36  C   UNL     1      12.433 -10.167  11.139  0.00  0.00    +0.041 A 
ATOM     37  C   UNL     1      12.287  -9.320  10.104  0.00  0.00    +0.195 A 
ATOM     38  O   UNL     1      10.981  -9.236   9.804  0.00  0.00    -0.466 OA
ENDBRANCH  33  34
ENDBRANCH  32  33
ENDBRANCH  27  28
ENDBRANCH   8  27
TORSDOF 9
