REMARK  Name = ZINC19472174
REMARK  9 active torsions:
REMARK  status: ('A' for Active; 'I' for Inactive)
REMARK    1  A    between atoms: C_1  and  C_2
REMARK    2  A    between atoms: C_5  and  C_38
REMARK    3  A    between atoms: N_8  and  S_10
REMARK    4  A    between atoms: S_10  and  C_13
REMARK    5  A    between atoms: C_16  and  N_19
REMARK    6  A    between atoms: C_20  and  C_22
REMARK    7  A    between atoms: C_22  and  O_23
REMARK    8  A    between atoms: O_23  and  C_24
REMARK    9  A    between atoms: C_24  and  C_26
REMARK                            x       y       z     vdW  Elec       q    Type
REMARK                         _______ _______ _______ _____ _____    ______ ____
ROOT
ATOM      1  N   UNL     1       5.508   6.753  -0.013  0.00  0.00    -0.283 N 
ATOM      2  C   UNL     1       6.633   6.279   0.559  0.00  0.00    +0.255 C 
ATOM      3  O   UNL     1       7.412   7.042   1.089  0.00  0.00    -0.272 OA
ATOM      4  H   UNL     1       4.839   6.072  -0.559  0.00  0.00    +0.155 HD
ENDROOT
BRANCH   1   8
ATOM      5  C   UNL     1       4.569  10.801   0.286  0.00  0.00    +0.106 A 
ATOM      6  C   UNL     1       5.889  10.406   0.176  0.00  0.00    +0.030 A 
ATOM      7  C   UNL     1       6.204   9.065   0.077  0.00  0.00    +0.025 A 
ATOM      8  C   UNL     1       5.193   8.113   0.087  0.00  0.00    +0.034 A 
ATOM      9  C   UNL     1       3.867   8.514   0.192  0.00  0.00    +0.025 A 
ATOM     10  C   UNL     1       3.559   9.856   0.296  0.00  0.00    +0.030 A 
BRANCH   5  11
ATOM     11  S   UNL     1       4.171  12.513   0.412  0.00  0.00    +0.061 S 
ATOM     12  O   UNL     1       2.905  12.590   1.052  0.00  0.00    -0.153 OA
ATOM     13  O   UNL     1       5.326  13.161   0.927  0.00  0.00    -0.153 OA
BRANCH  11  19
ATOM     14  C   UNL     1       5.520  11.429  -2.999  0.00  0.00    +0.009 C 
ATOM     15  C   UNL     1       5.177  12.902  -3.235  0.00  0.00    +0.002 C 
ATOM     16  C   UNL     1       3.830  13.004  -3.954  0.00  0.00    +0.009 C 
ATOM     17  C   UNL     1       2.747  12.328  -3.110  0.00  0.00    +0.002 C 
ATOM     18  C   UNL     1       2.632  13.047  -1.762  0.00  0.00    +0.112 C 
ATOM     19  N   UNL     1       3.957  13.081  -1.129  0.00  0.00    -0.176 NA
ATOM     20  C   UNL     1       5.089  13.633  -1.887  0.00  0.00    +0.112 C 
ATOM     21  C   UNL     1       1.407  12.401  -3.844  0.00  0.00    +0.009 C 
ENDBRANCH  11  19
ENDBRANCH   5  11
ENDBRANCH   1   8
BRANCH   2  22
ATOM     22  C   UNL     1       6.920   4.799   0.541  0.00  0.00    +0.328 C 
BRANCH  22  23
ATOM     23  O   UNL     1       8.180   4.543   1.216  0.00  0.00    -0.451 OA
BRANCH  23  24
ATOM     24  C   UNL     1       8.586   3.260   1.288  0.00  0.00    +0.356 C 
ATOM     25  O   UNL     1       7.905   2.379   0.800  0.00  0.00    -0.243 OA
BRANCH  24  26
ATOM     26  C   UNL     1       9.854   2.925   1.958  0.00  0.00    +0.128 A 
ATOM     27  C   UNL     1      10.243   1.626   2.018  0.00  0.00    +0.041 A 
ATOM     28  C   UNL     1      11.501   1.283   2.681  0.00  0.00    -0.011 A 
ATOM     29  C   UNL     1      11.948  -0.037   2.772  0.00  0.00    +0.009 A 
ATOM     30  C   UNL     1      13.141  -0.308   3.407  0.00  0.00    +0.001 A 
ATOM     31  C   UNL     1      13.900   0.717   3.956  0.00  0.00    +0.001 A 
ATOM     32  C   UNL     1      13.477   2.027   3.878  0.00  0.00    +0.014 A 
ATOM     33  C   UNL     1      12.275   2.325   3.240  0.00  0.00    +0.046 A 
ATOM     34  C   UNL     1      11.780   3.705   3.130  0.00  0.00    +0.257 A 
ATOM     35  O   UNL     1      12.418   4.626   3.605  0.00  0.00    -0.267 OA
ATOM     36  N   UNL     1      10.610   3.940   2.504  0.00  0.00    -0.316 N 
ATOM     37  H   UNL     1      10.263   4.982   2.436  0.00  0.00    +0.169 HD
ENDBRANCH  24  26
ENDBRANCH  23  24
ENDBRANCH  22  23
ENDBRANCH   2  22
TORSDOF 7
