REMARK  Name = ZINC20863183
REMARK  3 active torsions:
REMARK  status: ('A' for Active; 'I' for Inactive)
REMARK    1  A    between atoms: C_6  and  N_7
REMARK    2  A    between atoms: C_9  and  C_12
REMARK    3  A    between atoms: N_18  and  C_19
REMARK                            x       y       z     vdW  Elec       q    Type
REMARK                         _______ _______ _______ _____ _____    ______ ____
ROOT
ATOM      1  C   UNL     1       2.808  -5.354  -0.051  0.00  0.00    +0.079 A 
ATOM      2  C   UNL     1       2.257  -6.640  -0.045  0.00  0.00    +0.048 A 
ATOM      3  C   UNL     1       3.115  -7.724  -0.065  0.00  0.00    +0.116 A 
ATOM      4  N   UNL     1       4.423  -7.515  -0.077  0.00  0.00    -0.223 NA
ATOM      5  C   UNL     1       4.918  -6.286  -0.077  0.00  0.00    +0.216 A 
ATOM      6  N   UNL     1       4.132  -5.220  -0.064  0.00  0.00    -0.214 NA
ATOM      7  N   UNL     1       6.291  -6.111  -0.089  0.00  0.00    -0.308 N 
ATOM      8  H   UNL     1       6.716  -5.097  -0.089  0.00  0.00    +0.149 HD
ENDROOT
BRANCH   7   9
ATOM      9  C   UNL     1       7.177  -7.277  -0.103  0.00  0.00    +0.101 C 
ATOM     10  C   UNL     1       8.544  -6.912  -0.727  0.00  0.00    +0.059 C 
ATOM     11  C   UNL     1       9.548  -7.181   0.404  0.00  0.00    +0.071 C 
ATOM     12  C   UNL     1       9.885  -5.883   1.150  0.00  0.00    +0.035 C 
ATOM     13  C   UNL     1      11.384  -6.039   1.516  0.00  0.00    +0.003 C 
ATOM     14  C   UNL     1      11.969  -6.758   0.275  0.00  0.00    +0.003 C 
ATOM     15  C   UNL     1      10.859  -7.745  -0.150  0.00  0.00    +0.035 C 
ATOM     16  O   UNL     1       8.911  -8.122   1.280  0.00  0.00    -0.371 OA
ATOM     17  C   UNL     1       7.526  -7.710   1.339  0.00  0.00    +0.182 C 
ENDBRANCH   7   9
BRANCH   1  20
ATOM     18  N   UNL     1       1.235  -2.083  -0.020  0.00  0.00    -0.239 N 
ATOM     19  C   UNL     1       2.340  -2.857  -0.035  0.00  0.00    +0.124 A 
ATOM     20  C   UNL     1       1.930  -4.160  -0.037  0.00  0.00    +0.038 A 
ATOM     21  C   UNL     1       0.520  -4.162  -0.023  0.00  0.00    +0.144 A 
ATOM     22  N   UNL     1       0.113  -2.920  -0.008  0.00  0.00    -0.174 NA
BRANCH  18  28
ATOM     23  C   UNL     1       0.002  -0.004   0.002  0.00  0.00    +0.030 A 
ATOM     24  C   UNL     1      -0.017   1.377   0.010  0.00  0.00    +0.040 A 
ATOM     25  C   UNL     1       1.173   2.086   0.002  0.00  0.00    +0.124 A 
ATOM     26  C   UNL     1       2.383   1.413  -0.013  0.00  0.00    +0.040 A 
ATOM     27  C   UNL     1       2.405   0.032  -0.021  0.00  0.00    +0.030 A 
ATOM     28  C   UNL     1       1.214  -0.681  -0.013  0.00  0.00    +0.066 A 
ATOM     29  F   UNL     1       1.152   3.437   0.009  0.00  0.00    -0.205 F 
ENDBRANCH  18  28
ENDBRANCH   1  20
TORSDOF 3
