REMARK  Name = ZINC63373071
REMARK  8 active torsions:
REMARK  status: ('A' for Active; 'I' for Inactive)
REMARK    1  A    between atoms: C_1  and  C_2
REMARK    2  A    between atoms: C_2  and  C_3
REMARK    3  A    between atoms: C_2  and  C_4
REMARK    4  A    between atoms: C_4  and  C_6
REMARK    5  A    between atoms: C_4  and  N_16
REMARK    6  A    between atoms: N_8  and  C_9
REMARK    7  A    between atoms: C_9  and  C_10
REMARK    8  A    between atoms: C_19  and  C_35
REMARK                            x       y       z     vdW  Elec       q    Type
REMARK                         _______ _______ _______ _____ _____    ______ ____
ROOT
ATOM      1  N   UNL     1       2.173  -0.376   0.783  0.00  0.00    -0.212 N 
ATOM      2  C   UNL     1       3.019   0.406   1.485  0.00  0.00    +0.249 C 
ATOM      3  O   UNL     1       2.773   1.024   2.499  0.00  0.00    -0.273 OA
ATOM      4  C   UNL     1       4.339   0.350   0.747  0.00  0.00    +0.136 C 
ATOM      5  C   UNL     1       4.726   1.750   0.255  0.00  0.00    +0.139 C 
ATOM      6  C   UNL     1       5.706   1.547  -0.895  0.00  0.00    -0.034 C 
ATOM      7  C   UNL     1       6.815   2.199  -0.559  0.00  0.00    -0.001 A 
ATOM      8  C   UNL     1       8.078   2.416  -1.284  0.00  0.00    +0.010 A 
ATOM      9  C   UNL     1       9.027   3.135  -0.630  0.00  0.00    +0.001 A 
ATOM     10  C   UNL     1       8.850   3.654   0.656  0.00  0.00    +0.002 A 
ATOM     11  C   UNL     1       7.720   3.507   1.393  0.00  0.00    +0.026 A 
ATOM     12  C   UNL     1       6.647   2.771   0.811  0.00  0.00    +0.043 A 
ATOM     13  N   UNL     1       5.455   2.495   1.284  0.00  0.00    -0.375 N 
ATOM     14  C   UNL     1       5.401   0.694  -2.102  0.00  0.00    +0.052 C 
ATOM     15  C   UNL     1       4.929  -0.679  -1.582  0.00  0.00    +0.115 C 
ATOM     16  N   UNL     1       4.020  -0.454  -0.454  0.00  0.00    -0.269 N 
ATOM     17  C   UNL     1       2.762  -0.888  -0.305  0.00  0.00    +0.313 C 
ATOM     18  O   UNL     1       2.216  -1.657  -1.072  0.00  0.00    -0.252 OA
ATOM     19  C   UNL     1       5.440  -0.292   1.592  0.00  0.00    +0.044 C 
ATOM     20  H   UNL     1       5.112   2.736   2.159  0.00  0.00    +0.160 HD
ENDROOT
BRANCH   1  21
ATOM     21  C   UNL     1       0.783  -0.636   1.167  0.00  0.00    +0.174 C 
BRANCH  21  22
ATOM     22  C   UNL     1      -0.009   0.643   1.085  0.00  0.00    +0.234 C 
ATOM     23  O   UNL     1       0.564   1.712   1.084  0.00  0.00    -0.274 OA
ATOM     24  N   UNL     1      -1.354   0.599   1.012  0.00  0.00    -0.311 N 
ATOM     25  H   UNL     1      -1.816  -0.250   1.091  0.00  0.00    +0.149 HD
BRANCH  24  26
ATOM     26  C   UNL     1      -2.117   1.834   0.816  0.00  0.00    +0.135 C 
BRANCH  26  27
ATOM     27  C   UNL     1      -3.611   1.508   0.770  0.00  0.00    +0.135 C 
ATOM     28  C   UNL     1      -4.436   2.797   0.527  0.00  0.00    +0.035 C 
ATOM     29  C   UNL     1      -5.724   2.208  -0.111  0.00  0.00    +0.031 C 
ATOM     30  C   UNL     1      -5.173   1.010  -0.914  0.00  0.00    +0.160 C 
ATOM     31  O   UNL     1      -3.902   0.658  -0.351  0.00  0.00    -0.375 OA
ENDBRANCH  26  27
ENDBRANCH  24  26
ENDBRANCH  21  22
BRANCH  21  33
ATOM     32  C   UNL     1      -0.697  -1.546   2.962  0.00  0.00    +0.009 C 
ATOM     33  C   UNL     1       0.742  -1.171   2.600  0.00  0.00    +0.013 C 
ATOM     34  C   UNL     1       1.634  -2.409   2.708  0.00  0.00    +0.009 C 
ENDBRANCH  21  33
ENDBRANCH   1  21
TORSDOF 5
