REMARK  Name = ZINC39533315
REMARK  10 active torsions:
REMARK  status: ('A' for Active; 'I' for Inactive)
REMARK    1  A    between atoms: C_1  and  C_2
REMARK    2  A    between atoms: C_2  and  C_3
REMARK    3  A    between atoms: C_2  and  C_4
REMARK    4  A    between atoms: C_4  and  C_5
REMARK    5  A    between atoms: C_8  and  C_11
REMARK    6  A    between atoms: C_11  and  C_13
REMARK    7  A    between atoms: C_11  and  N_16
REMARK    8  A    between atoms: C_13  and  N_14
REMARK    9  A    between atoms: C_20  and  C_23
REMARK   10  A    between atoms: C_23  and  C_24
REMARK                            x       y       z     vdW  Elec       q    Type
REMARK                         _______ _______ _______ _____ _____    ______ ____
ROOT
ATOM      1  C   UNL     1      -1.367  -6.290  -0.493  0.00  0.00    +0.101 C 
ENDROOT
BRANCH   1   2
ATOM      2  N   UNL     1      -0.453  -6.766   0.553  0.00  0.00    -0.297 NA
ATOM      3  C   UNL     1       0.264  -7.972   0.117  0.00  0.00    +0.066 C 
ATOM      4  C   UNL     1       1.247  -8.401   1.210  0.00  0.00    -0.067 C 
ATOM      5  N   UNL     1       0.511  -8.670   2.452  0.00  0.00    +0.383 N 
ATOM      6  C   UNL     1      -0.180  -7.449   2.888  0.00  0.00    -0.053 C 
ATOM      7  C   UNL     1      -1.175  -7.013   1.810  0.00  0.00    +0.069 C 
ATOM      8  H   UNL     1      -0.167  -9.400   2.290  0.00  0.00    -0.085 HD
ATOM      9  H   UNL     1       1.157  -8.964   3.168  0.00  0.00    -0.085 HD
BRANCH   6  10
ATOM     10  C   UNL     1      -0.931  -7.727   4.192  0.00  0.00    +0.020 C 
BRANCH  10  11
ATOM     11  C   UNL     1       0.058  -8.037   5.285  0.00  0.00    -0.049 A 
ATOM     12  C   UNL     1       0.461  -9.341   5.504  0.00  0.00    +0.003 A 
ATOM     13  C   UNL     1       1.369  -9.625   6.507  0.00  0.00    +0.000 A 
ATOM     14  C   UNL     1       1.874  -8.605   7.291  0.00  0.00    +0.000 A 
ATOM     15  C   UNL     1       1.472  -7.301   7.072  0.00  0.00    +0.000 A 
ATOM     16  C   UNL     1       0.568  -7.016   6.066  0.00  0.00    +0.003 A 
ENDBRANCH  10  11
ENDBRANCH   6  10
ENDBRANCH   1   2
BRANCH   1  20
ATOM     17  C   UNL     1      -1.520  -2.021  -0.419  0.00  0.00    -0.047 A 
ATOM     18  C   UNL     1      -1.405  -2.688  -1.624  0.00  0.00    +0.004 A 
ATOM     19  C   UNL     1      -1.355  -4.069  -1.649  0.00  0.00    +0.005 A 
ATOM     20  C   UNL     1      -1.420  -4.784  -0.467  0.00  0.00    -0.029 A 
ATOM     21  C   UNL     1      -1.534  -4.117   0.739  0.00  0.00    +0.005 A 
ATOM     22  C   UNL     1      -1.580  -2.736   0.763  0.00  0.00    +0.004 A 
BRANCH  17  23
ATOM     23  C   UNL     1      -1.574  -0.516  -0.392  0.00  0.00    +0.038 C 
BRANCH  23  25
ATOM     24  C   UNL     1      -0.198   1.570  -0.379  0.00  0.00    +0.007 C 
ATOM     25  C   UNL     1      -0.154   0.044  -0.280  0.00  0.00    -0.013 C 
ATOM     26  C   UNL     1       0.450  -0.363   1.065  0.00  0.00    +0.007 C 
ENDBRANCH  23  25
ENDBRANCH  17  23
ENDBRANCH   1  20
BRANCH   1  27
ATOM     27  C   UNL     1      -2.767  -6.854  -0.244  0.00  0.00    +0.117 C 
BRANCH  27  28
ATOM     28  N   UNL     1      -2.705  -8.321  -0.208  0.00  0.00    -0.254 NA
ATOM     29 BR   UNL     1      -4.379  -9.049   0.092  0.00  0.00    +0.010 Br
ATOM     30  H   UNL     1      -2.299  -8.686  -1.057  0.00  0.00    +0.135 HD
ENDBRANCH  27  28
ENDBRANCH   1  27
TORSDOF 8
