REMARK  Name = ZINC13064604
REMARK  13 active torsions:
REMARK  status: ('A' for Active; 'I' for Inactive)
REMARK    1  A    between atoms: C_1  and  C_2
REMARK    2  A    between atoms: C_2  and  C_3
REMARK    3  A    between atoms: C_3  and  C_5
REMARK    4  A    between atoms: C_3  and  N_76
REMARK    5  A    between atoms: N_9  and  C_10
REMARK    6  A    between atoms: C_16  and  C_17
REMARK    7  A    between atoms: C_16  and  N_76
REMARK    8  A    between atoms: C_20  and  O_23
REMARK    9  A    between atoms: O_23  and  C_24
REMARK   10  A    between atoms: C_25  and  C_26
REMARK   11  A    between atoms: C_25  and  N_76
REMARK   12  A    between atoms: C_30  and  C_39
REMARK   13  A    between atoms: C_31  and  C_38
REMARK                            x       y       z     vdW  Elec       q    Type
REMARK                         _______ _______ _______ _____ _____    ______ ____
ROOT
ATOM      1  N   UNL     1      -5.274   3.923  -1.310  0.00  0.00    +0.392 N 
ATOM      2  H   UNL     1      -5.275   2.938  -1.600  0.00  0.00    -0.080 HD
ENDROOT
BRANCH   1   3
ATOM      3  C   UNL     1      -4.457   4.704  -2.262  0.00  0.00    +0.003 C 
BRANCH   3   4
ATOM      4  C   UNL     1      -3.429   3.788  -2.875  0.00  0.00    +0.138 A 
ATOM      5  N   UNL     1      -2.825   2.785  -2.286  0.00  0.00    -0.115 NA
ATOM      6  N   UNL     1      -2.022   2.248  -3.139  0.00  0.00    -0.023 NA
ATOM      7  N   UNL     1      -2.093   2.887  -4.254  0.00  0.00    -0.044 NA
ATOM      8  N   UNL     1      -2.950   3.844  -4.131  0.00  0.00    -0.228 N 
BRANCH   8   9
ATOM      9  C   UNL     1      -3.331   4.809  -5.165  0.00  0.00    +0.111 C 
ATOM     10  C   UNL     1      -4.026   4.077  -6.315  0.00  0.00    +0.027 C 
ATOM     11  C   UNL     1      -4.423   5.085  -7.395  0.00  0.00    +0.002 C 
ATOM     12  C   UNL     1      -3.171   5.789  -7.922  0.00  0.00    +0.000 C 
ATOM     13  C   UNL     1      -2.476   6.521  -6.772  0.00  0.00    +0.002 C 
ATOM     14  C   UNL     1      -2.079   5.513  -5.691  0.00  0.00    +0.027 C 
ENDBRANCH   8   9
ENDBRANCH   3   4
BRANCH   3  16
ATOM     15  C   UNL     1      -4.793   6.823  -0.982  0.00  0.00    +0.002 C 
ATOM     16  C   UNL     1      -3.750   5.852  -1.539  0.00  0.00    -0.011 C 
ENDBRANCH   3  16
ENDBRANCH   1   3
BRANCH   1  17
ATOM     17  C   UNL     1      -6.665   4.423  -1.309  0.00  0.00    -0.042 C 
BRANCH  17  18
ATOM     18  C   UNL     1      -7.335   3.994  -2.589  0.00  0.00    -0.064 A 
ATOM     19  C   UNL     1      -7.318   4.830  -3.691  0.00  0.00    +0.005 A 
ATOM     20  C   UNL     1      -7.926   4.437  -4.867  0.00  0.00    +0.046 A 
ATOM     21  C   UNL     1      -8.564   3.207  -4.939  0.00  0.00    +0.120 A 
ATOM     22  C   UNL     1      -8.585   2.373  -3.831  0.00  0.00    +0.046 A 
ATOM     23  C   UNL     1      -7.971   2.768  -2.659  0.00  0.00    +0.005 A 
BRANCH  21  24
ATOM     24  O   UNL     1      -9.168   2.820  -6.093  0.00  0.00    -0.495 OA
ATOM     25  C   UNL     1      -9.107   3.730  -7.194  0.00  0.00    +0.277 C 
ENDBRANCH  21  24
ENDBRANCH  17  18
ENDBRANCH   1  17
BRANCH   1  26
ATOM     26  C   UNL     1      -4.701   4.022   0.049  0.00  0.00    -0.036 C 
BRANCH  26  27
ATOM     27  C   UNL     1      -3.401   3.262   0.084  0.00  0.00    +0.001 A 
ATOM     28  C   UNL     1      -2.231   3.930   0.237  0.00  0.00    +0.017 A 
ATOM     29  C   UNL     1      -0.985   3.162   0.261  0.00  0.00    -0.001 A 
ATOM     30  C   UNL     1       0.254   3.797   0.399  0.00  0.00    +0.013 A 
ATOM     31  C   UNL     1       1.399   3.053   0.418  0.00  0.00    -0.047 A 
ATOM     32  C   UNL     1       1.344   1.670   0.301  0.00  0.00    -0.046 A 
ATOM     33  C   UNL     1       0.135   1.023   0.163  0.00  0.00    +0.030 A 
ATOM     34  C   UNL     1      -1.044   1.762   0.136  0.00  0.00    +0.049 A 
ATOM     35  N   UNL     1      -2.266   1.141  -0.006  0.00  0.00    -0.322 N 
ATOM     36  H   UNL     1      -2.306   0.175  -0.088  0.00  0.00    +0.169 HD
ATOM     37  C   UNL     1      -3.405   1.855  -0.032  0.00  0.00    +0.251 A 
ATOM     38  O   UNL     1      -4.469   1.273  -0.159  0.00  0.00    -0.268 OA
ATOM     39  C   UNL     1       2.620   0.869   0.324  0.00  0.00    +0.044 C 
ATOM     40  C   UNL     1       2.733   3.737   0.568  0.00  0.00    +0.044 C 
ENDBRANCH  26  27
ENDBRANCH   1  26
TORSDOF 9
