REMARK  Name = ZINC38739128
REMARK  2 active torsions:
REMARK  status: ('A' for Active; 'I' for Inactive)
REMARK    1  A    between atoms: C_8  and  C_13
REMARK    2  A    between atoms: N_15  and  C_16
REMARK                            x       y       z     vdW  Elec       q    Type
REMARK                         _______ _______ _______ _____ _____    ______ ____
ROOT
ATOM      1  C   UNL     1       5.036  -3.777   0.825  0.00  0.00    +0.233 C 
ATOM      2  O   UNL     1       6.110  -3.954   1.359  0.00  0.00    -0.274 OA
ATOM      3  N   UNL     1       3.932  -4.372   1.318  0.00  0.00    -0.285 N 
ATOM      4  H   UNL     1       3.062  -4.170   0.940  0.00  0.00    +0.155 HD
ENDROOT
BRANCH   3   5
ATOM      5  C   UNL     1       4.040  -5.282   2.378  0.00  0.00    +0.035 A 
ATOM      6  C   UNL     1       3.020  -5.393   3.320  0.00  0.00    +0.025 A 
ATOM      7  C   UNL     1       3.102  -6.268   4.358  0.00  0.00    +0.031 A 
ATOM      8  C   UNL     1       4.231  -7.102   4.519  0.00  0.00    +0.080 A 
ATOM      9  C   UNL     1       5.251  -6.970   3.549  0.00  0.00    +0.043 A 
ATOM     10  C   UNL     1       5.164  -6.089   2.500  0.00  0.00    +0.040 A 
ATOM     11  S   UNL     1       6.453  -8.158   4.096  0.00  0.00    -0.052 S 
ATOM     12  C   UNL     1       5.558  -8.738   5.531  0.00  0.00    +0.162 A 
ATOM     13  N   UNL     1       4.462  -8.017   5.488  0.00  0.00    -0.225 NA
ATOM     14  N   UNL     1       5.927  -9.700   6.450  0.00  0.00    -0.310 N 
ATOM     15  C   UNL     1       7.182 -10.464   6.434  0.00  0.00    +0.107 C 
ATOM     16  C   UNL     1       7.143 -11.435   7.633  0.00  0.00    +0.020 C 
ATOM     17  C   UNL     1       5.625 -11.561   7.929  0.00  0.00    +0.020 C 
ATOM     18  C   UNL     1       5.129 -10.126   7.614  0.00  0.00    +0.107 C 
ENDBRANCH   3   5
BRANCH   1  26
ATOM     19  C   UNL     1       8.798  -2.042  -3.262  0.00  0.00    +0.001 A 
ATOM     20  C   UNL     1       8.186  -2.840  -4.230  0.00  0.00    +0.002 A 
ATOM     21  C   UNL     1       6.979  -3.432  -4.035  0.00  0.00    +0.024 A 
ATOM     22  C   UNL     1       6.286  -3.260  -2.823  0.00  0.00    +0.040 A 
ATOM     23  N   UNL     1       5.103  -3.847  -2.643  0.00  0.00    -0.284 N 
ATOM     24  C   UNL     1       4.399  -3.727  -1.530  0.00  0.00    +0.233 C 
ATOM     25  O   UNL     1       3.324  -4.286  -1.424  0.00  0.00    -0.274 OA
ATOM     26  C   UNL     1       4.935  -2.891  -0.390  0.00  0.00    +0.184 C 
ATOM     27  C   UNL     1       6.281  -2.222  -0.589  0.00  0.00    +0.004 C 
ATOM     28  C   UNL     1       6.908  -2.423  -1.783  0.00  0.00    -0.007 A 
ATOM     29  C   UNL     1       8.210  -1.815  -2.059  0.00  0.00    +0.009 A 
ATOM     30  H   UNL     1       4.741  -4.388  -3.363  0.00  0.00    +0.155 HD
ENDBRANCH   1  26
TORSDOF 2
