REMARK  Name = ZINC03253382
REMARK  4 active torsions:
REMARK  status: ('A' for Active; 'I' for Inactive)
REMARK    1  A    between atoms: C_4  and  N_16
REMARK    2  A    between atoms: C_5  and  C_7
REMARK    3  A    between atoms: N_16  and  S_17
REMARK    4  A    between atoms: S_17  and  C_20
REMARK                            x       y       z     vdW  Elec       q    Type
REMARK                         _______ _______ _______ _____ _____    ______ ____
ROOT
ATOM      1  C   UNL     1       0.299   1.120   0.492  0.00  0.00    +0.001 A 
ATOM      2  C   UNL     1      -0.958   1.694   0.402  0.00  0.00    +0.002 A 
ATOM      3  C   UNL     1      -1.093   3.060   0.255  0.00  0.00    +0.025 A 
ATOM      4  C   UNL     1       0.034   3.867   0.185  0.00  0.00    +0.058 A 
ATOM      5  C   UNL     1       1.308   3.288   0.271  0.00  0.00    +0.029 A 
ATOM      6  C   UNL     1       1.430   1.906   0.425  0.00  0.00    +0.012 A 
ENDROOT
BRANCH   5   7
ATOM      7  C   UNL     1       2.515   4.136   0.198  0.00  0.00    +0.111 A 
ATOM      8  N   UNL     1       3.780   3.778   0.260  0.00  0.00    -0.239 NA
ATOM      9  C   UNL     1       4.789   4.668   0.179  0.00  0.00    +0.079 A 
ATOM     10  C   UNL     1       6.181   4.418   0.230  0.00  0.00    +0.029 A 
ATOM     11  C   UNL     1       7.076   5.437   0.132  0.00  0.00    +0.002 A 
ATOM     12  C   UNL     1       6.667   6.755  -0.021  0.00  0.00    +0.001 A 
ATOM     13  C   UNL     1       5.315   7.042  -0.075  0.00  0.00    +0.017 A 
ATOM     14  C   UNL     1       4.403   6.020   0.022  0.00  0.00    +0.040 A 
ATOM     15  S   UNL     1       2.631   5.908  -0.003  0.00  0.00    -0.067 S 
ENDBRANCH   5   7
BRANCH   4  16
ATOM     16  N   UNL     1      -0.100   5.244   0.032  0.00  0.00    -0.215 N 
ATOM     17  H   UNL     1       0.541   5.737  -0.505  0.00  0.00    +0.174 HD
BRANCH  16  18
ATOM     18  S   UNL     1      -1.352   6.041   0.765  0.00  0.00    +0.079 S 
ATOM     19  O   UNL     1      -1.146   7.427   0.528  0.00  0.00    -0.149 OA
ATOM     20  O   UNL     1      -2.543   5.370   0.377  0.00  0.00    -0.149 OA
BRANCH  18  21
ATOM     21  C   UNL     1      -1.179   5.796   2.502  0.00  0.00    +0.146 A 
ATOM     22  C   UNL     1      -0.505   6.547   3.407  0.00  0.00    +0.036 A 
ATOM     23  C   UNL     1      -0.507   6.160   4.734  0.00  0.00    +0.010 A 
ATOM     24  C   UNL     1      -1.183   5.041   5.091  0.00  0.00    +0.047 A 
ATOM     25  S   UNL     1      -1.853   4.500   3.527  0.00  0.00    -0.077 S 
ENDBRANCH  18  21
ENDBRANCH  16  18
ENDBRANCH   4  16
TORSDOF 4
