REMARK  Name = ZINC52094654
REMARK  7 active torsions:
REMARK  status: ('A' for Active; 'I' for Inactive)
REMARK    1  A    between atoms: C_1  and  C_2
REMARK    2  A    between atoms: C_2  and  N_3
REMARK    3  A    between atoms: N_3  and  C_4
REMARK    4  A    between atoms: C_4  and  C_6
REMARK    5  A    between atoms: C_4  and  C_19
REMARK    6  A    between atoms: C_19  and  C_20
REMARK    7  A    between atoms: C_19  and  C_21
REMARK                            x       y       z     vdW  Elec       q    Type
REMARK                         _______ _______ _______ _____ _____    ______ ____
ROOT
ATOM      1  C   UNL     1       1.743  -2.377  -2.232  0.00  0.00    -0.045 A 
ATOM      2  C   UNL     1       2.080  -1.482  -3.229  0.00  0.00    +0.031 A 
ATOM      3  C   UNL     1       2.942  -1.871  -4.243  0.00  0.00    +0.067 A 
ATOM      4  C   UNL     1       3.466  -3.166  -4.252  0.00  0.00    +0.068 A 
ATOM      5  C   UNL     1       3.123  -4.057  -3.247  0.00  0.00    +0.043 A 
ATOM      6  C   UNL     1       2.268  -3.658  -2.237  0.00  0.00    +0.022 A 
ATOM      7 BR   UNL     1       1.805  -4.871  -0.862  0.00  0.00    -0.050 Br
ATOM      8  N   UNL     1       4.285  -3.260  -5.375  0.00  0.00    -0.306 N 
ATOM      9  H   UNL     1       4.788  -4.044  -5.646  0.00  0.00    +0.170 HD
ATOM     10  C   UNL     1       4.261  -2.078  -6.019  0.00  0.00    +0.325 A 
ATOM     11  O   UNL     1       4.870  -1.824  -7.041  0.00  0.00    -0.247 OA
ATOM     12  N   UNL     1       3.459  -1.220  -5.361  0.00  0.00    -0.306 N 
ATOM     13  H   UNL     1       3.273  -0.304  -5.620  0.00  0.00    +0.170 HD
ENDROOT
BRANCH   1  14
ATOM     14  C   UNL     1       0.807  -1.954  -1.130  0.00  0.00    -0.037 C 
BRANCH  14  15
ATOM     15  N   UNL     1       1.012  -0.530  -0.832  0.00  0.00    +0.384 N 
ATOM     16  H   UNL     1       0.734   0.024  -1.629  0.00  0.00    -0.085 HD
ATOM     17  H   UNL     1       1.986  -0.365  -0.632  0.00  0.00    -0.085 HD
BRANCH  15  19
ATOM     18  C   UNL     1       0.521   1.291   0.730  0.00  0.00    -0.017 C 
ATOM     19  C   UNL     1       0.201  -0.151   0.333  0.00  0.00    -0.085 C 
ENDBRANCH  15  19
ENDBRANCH  14  15
BRANCH  14  20
ATOM     20  C   UNL     1      -0.640  -2.179  -1.575  0.00  0.00    -0.027 C 
ATOM     21  C   UNL     1      -0.902  -1.401  -2.866  0.00  0.00    +0.006 C 
ATOM     22  C   UNL     1      -0.871  -3.671  -1.823  0.00  0.00    +0.006 C 
ENDBRANCH  14  20
ENDBRANCH   1  14
TORSDOF 4
