REMARK  Name = ZINC09835720
REMARK  6 active torsions:
REMARK  status: ('A' for Active; 'I' for Inactive)
REMARK    1  A    between atoms: C_1  and  C_2
REMARK    2  A    between atoms: N_16  and  C_17
REMARK    3  A    between atoms: C_20  and  C_23
REMARK    4  A    between atoms: N_25  and  C_26
REMARK    5  A    between atoms: C_26  and  C_27
REMARK    6  A    between atoms: C_27  and  C_28
REMARK                            x       y       z     vdW  Elec       q    Type
REMARK                         _______ _______ _______ _____ _____    ______ ____
ROOT
ATOM      1  C   UNL     1       0.041   1.830   0.067  0.00  0.00    +0.042 A 
ATOM      2  C   UNL     1       1.045   2.527   0.732  0.00  0.00    +0.024 A 
ATOM      3  C   UNL     1       2.340   2.062   0.710  0.00  0.00    +0.015 A 
ATOM      4  C   UNL     1       2.646   0.887   0.018  0.00  0.00    +0.037 A 
ATOM      5  C   UNL     1       1.636   0.188  -0.649  0.00  0.00    +0.015 A 
ATOM      6  C   UNL     1       0.343   0.660  -0.623  0.00  0.00    +0.024 A 
ENDROOT
BRANCH   1  21
ATOM      7  C   UNL     1      -1.466   1.497   2.381  0.00  0.00    +0.079 C 
ATOM      8  C   UNL     1      -2.204   1.765   1.068  0.00  0.00    +0.185 C 
ATOM      9  C   UNL     1      -3.328   2.782   1.315  0.00  0.00    +0.096 C 
ATOM     10  C   UNL     1      -3.946   3.103  -0.056  0.00  0.00    +0.114 C 
ATOM     11  C   UNL     1      -4.351   1.801  -0.710  0.00  0.00    +0.015 A 
ATOM     12  C   UNL     1      -5.339   1.817  -1.678  0.00  0.00    +0.009 A 
ATOM     13  C   UNL     1      -5.724   0.642  -2.296  0.00  0.00    +0.001 A 
ATOM     14  C   UNL     1      -5.120  -0.552  -1.946  0.00  0.00    +0.004 A 
ATOM     15  C   UNL     1      -4.136  -0.571  -0.980  0.00  0.00    +0.046 A 
ATOM     16  C   UNL     1      -3.747   0.609  -0.352  0.00  0.00    +0.128 A 
ATOM     17  O   UNL     1      -2.782   0.550   0.601  0.00  0.00    -0.468 OA
ATOM     18  N   UNL     1      -2.892   3.704  -0.889  0.00  0.00    -0.292 N 
ATOM     19  C   UNL     1      -1.628   3.255  -0.791  0.00  0.00    +0.310 C 
ATOM     20  O   UNL     1      -0.782   3.721  -1.529  0.00  0.00    -0.252 OA
ATOM     21  N   UNL     1      -1.268   2.308   0.087  0.00  0.00    -0.216 N 
ATOM     22  H   UNL     1      -3.107   4.423  -1.504  0.00  0.00    +0.151 HD
ENDBRANCH   1  21
BRANCH   4  23
ATOM     23  C   UNL     1       4.034   0.385  -0.009  0.00  0.00    +0.244 C 
ATOM     24  O   UNL     1       4.299  -0.638  -0.612  0.00  0.00    -0.270 OA
ATOM     25  N   UNL     1       5.007   1.059   0.635  0.00  0.00    -0.311 N 
ATOM     26  H   UNL     1       4.796   1.874   1.115  0.00  0.00    +0.149 HD
BRANCH  25  27
ATOM     27  C   UNL     1       6.385   0.561   0.608  0.00  0.00    +0.109 C 
BRANCH  27  28
ATOM     28  C   UNL     1       7.284   1.504   1.409  0.00  0.00    +0.054 C 
BRANCH  28  29
ATOM     29  C   UNL     1       8.701   0.991   1.382  0.00  0.00    -0.046 A 
ATOM     30  C   UNL     1       9.140   0.122   2.362  0.00  0.00    +0.004 A 
ATOM     31  C   UNL     1      10.438  -0.353   2.334  0.00  0.00    +0.000 A 
ATOM     32  C   UNL     1      11.300   0.051   1.332  0.00  0.00    +0.000 A 
ATOM     33  C   UNL     1      10.862   0.925   0.354  0.00  0.00    +0.000 A 
ATOM     34  C   UNL     1       9.563   1.395   0.379  0.00  0.00    +0.004 A 
ENDBRANCH  28  29
ENDBRANCH  27  28
ENDBRANCH  25  27
ENDBRANCH   4  23
TORSDOF 5
