REMARK  Name = ZINC39359248
REMARK  10 active torsions:
REMARK  status: ('A' for Active; 'I' for Inactive)
REMARK    1  A    between atoms: C_1  and  O_2
REMARK    2  A    between atoms: O_2  and  C_3
REMARK    3  A    between atoms: C_6  and  C_10
REMARK    4  A    between atoms: C_8  and  O_9
REMARK    5  A    between atoms: C_13  and  O_37
REMARK    6  A    between atoms: C_24  and  C_27
REMARK    7  A    between atoms: C_30  and  O_35
REMARK    8  A    between atoms: C_31  and  O_33
REMARK    9  A    between atoms: O_33  and  C_34
REMARK   10  A    between atoms: O_35  and  C_36
REMARK                            x       y       z     vdW  Elec       q    Type
REMARK                         _______ _______ _______ _____ _____    ______ ____
ROOT
ATOM      1  C   UNL     1       2.590  -2.548   4.315  0.00  0.00    +0.089 C 
ATOM      2  C   UNL     1       1.941  -2.149   5.607  0.00  0.00    +0.048 C 
ATOM      3  C   UNL     1       0.771  -1.646   5.935  0.00  0.00    +0.235 C 
ATOM      4  N   UNL     1       0.744  -1.346   7.263  0.00  0.00    -0.114 NA
ATOM      5  N   UNL     1       1.778  -1.643   7.876  0.00  0.00    -0.157 NA
ATOM      6  C   UNL     1       2.695  -2.287   6.933  0.00  0.00    +0.245 C 
ATOM      7  N   UNL     1       3.924  -1.519   6.722  0.00  0.00    -0.321 N 
ATOM      8  C   UNL     1       4.594  -1.630   5.529  0.00  0.00    +0.014 C 
ATOM      9  C   UNL     1       4.041  -2.097   4.387  0.00  0.00    +0.023 C 
ATOM     10  C   UNL     1       4.784  -2.192   3.198  0.00  0.00    +0.162 C 
ATOM     11  O   UNL     1       4.242  -2.605   2.192  0.00  0.00    -0.292 OA
ATOM     12  C   UNL     1       6.232  -1.793   3.143  0.00  0.00    +0.088 C 
ATOM     13  C   UNL     1       6.849  -1.997   4.531  0.00  0.00    +0.032 C 
ATOM     14  C   UNL     1       6.040  -1.177   5.543  0.00  0.00    +0.059 C 
ATOM     15  H   UNL     1       4.263  -0.936   7.420  0.00  0.00    +0.148 HD
ENDROOT
BRANCH   1  19
ATOM     16  C   UNL     1       0.626  -0.619   1.042  0.00  0.00    +0.161 A 
ATOM     17  C   UNL     1       1.202   0.137   2.051  0.00  0.00    +0.050 A 
ATOM     18  C   UNL     1       1.836  -0.490   3.108  0.00  0.00    +0.008 A 
ATOM     19  C   UNL     1       1.897  -1.870   3.161  0.00  0.00    -0.032 A 
ATOM     20  C   UNL     1       1.325  -2.630   2.158  0.00  0.00    +0.053 A 
ATOM     21  C   UNL     1       0.683  -2.008   1.099  0.00  0.00    +0.159 A 
BRANCH  16  23
ATOM     22  C   UNL     1      -0.017   1.425   0.010  0.00  0.00    +0.277 C 
ATOM     23  O   UNL     1       0.002  -0.004   0.002  0.00  0.00    -0.491 OA
ENDBRANCH  16  23
BRANCH  21  24
ATOM     24  O   UNL     1       0.115  -2.754   0.114  0.00  0.00    -0.503 OA
ATOM     25  H   UNL     1       0.711  -2.957  -0.620  0.00  0.00    +0.292 HD
ENDBRANCH  21  24
ENDBRANCH   1  19
BRANCH  13  26
ATOM     26  C   UNL     1       8.281  -1.526   4.524  0.00  0.00    -0.040 A 
ATOM     27  C   UNL     1       8.572  -0.207   4.227  0.00  0.00    +0.008 A 
ATOM     28  C   UNL     1       9.883   0.230   4.220  0.00  0.00    +0.049 A 
ATOM     29  C   UNL     1      10.910  -0.654   4.511  0.00  0.00    +0.161 A 
ATOM     30  C   UNL     1      10.617  -1.982   4.810  0.00  0.00    +0.162 A 
ATOM     31  C   UNL     1       9.300  -2.412   4.820  0.00  0.00    +0.053 A 
BRANCH  30  32
ATOM     32  O   UNL     1      11.621  -2.853   5.096  0.00  0.00    -0.491 OA
ATOM     33  C   UNL     1      11.246  -4.200   5.394  0.00  0.00    +0.277 C 
ENDBRANCH  30  32
BRANCH  29  34
ATOM     34  O   UNL     1      12.201  -0.226   4.503  0.00  0.00    -0.491 OA
ATOM     35  C   UNL     1      12.426   1.149   4.187  0.00  0.00    +0.277 C 
ENDBRANCH  29  34
ENDBRANCH  13  26
BRANCH   3  36
ATOM     36  O   UNL     1      -0.261  -1.452   5.073  0.00  0.00    -0.491 OA
ATOM     37  H   UNL     1      -1.050  -1.072   5.483  0.00  0.00    +0.294 HD
ENDBRANCH   3  36
TORSDOF 7
