REMARK  Name = ZINC02272707
REMARK  11 active torsions:
REMARK  status: ('A' for Active; 'I' for Inactive)
REMARK    1  A    between atoms: C_5  and  C_10
REMARK    2  A    between atoms: C_6  and  O_9
REMARK    3  A    between atoms: N_11  and  C_12
REMARK    4  A    between atoms: C_12  and  C_13
REMARK    5  A    between atoms: C_13  and  S_14
REMARK    6  A    between atoms: S_14  and  S_15
REMARK    7  A    between atoms: S_15  and  C_16
REMARK    8  A    between atoms: C_16  and  C_17
REMARK    9  A    between atoms: C_17  and  N_18
REMARK   10  A    between atoms: C_19  and  C_20
REMARK   11  A    between atoms: C_21  and  O_30
REMARK                            x       y       z     vdW  Elec       q    Type
REMARK                         _______ _______ _______ _____ _____    ______ ____
ROOT
ATOM      1  S   UNL     1       5.341  -6.597  -1.716  0.00  0.00    -0.091 S 
ENDROOT
BRANCH   1   2
ATOM      2  C   UNL     1       5.015  -4.832  -1.449  0.00  0.00    +0.102 C 
BRANCH   2   3
ATOM      3  C   UNL     1       4.396  -4.631  -0.064  0.00  0.00    +0.123 C 
BRANCH   3   5
ATOM      4  C   UNL     1       2.913  -2.784   0.278  0.00  0.00    +0.090 C 
ATOM      5  N   UNL     1       4.133  -3.206   0.151  0.00  0.00    -0.389 N 
ATOM      6  H   UNL     1       4.871  -2.579   0.198  0.00  0.00    +0.159 HD
BRANCH   4  11
ATOM      7  C   UNL     1      -1.246   0.114   1.220  0.00  0.00    +0.001 A 
ATOM      8  C   UNL     1      -0.220   1.000   1.094  0.00  0.00    +0.008 A 
ATOM      9  C   UNL     1       1.077   0.529   0.829  0.00  0.00    -0.017 A 
ATOM     10  C   UNL     1       1.293  -0.864   0.697  0.00  0.00    -0.006 A 
ATOM     11  C   UNL     1       2.645  -1.347   0.421  0.00  0.00    +0.040 A 
ATOM     12  C   UNL     1       3.674  -0.413   0.298  0.00  0.00    +0.126 A 
ATOM     13  C   UNL     1       3.411   0.950   0.436  0.00  0.00    +0.046 A 
ATOM     14  C   UNL     1       2.161   1.415   0.692  0.00  0.00    +0.012 A 
ATOM     15  C   UNL     1       0.215  -1.747   0.833  0.00  0.00    +0.009 A 
ATOM     16  C   UNL     1      -1.031  -1.255   1.090  0.00  0.00    +0.001 A 
BRANCH  12  17
ATOM     17  O   UNL     1       4.938  -0.834   0.042  0.00  0.00    -0.506 OA
ATOM     18  H   UNL     1       5.148  -0.898  -0.900  0.00  0.00    +0.292 HD
ENDBRANCH  12  17
ENDBRANCH   4  11
ENDBRANCH   3   5
ENDBRANCH   2   3
ENDBRANCH   1   2
BRANCH   1  19
ATOM     19  S   UNL     1       3.474  -7.423  -1.904  0.00  0.00    -0.091 S 
BRANCH  19  20
ATOM     20  C   UNL     1       3.066  -7.190  -3.656  0.00  0.00    +0.102 C 
BRANCH  20  21
ATOM     21  C   UNL     1       3.947  -8.104  -4.511  0.00  0.00    +0.123 C 
BRANCH  21  22
ATOM     22  N   UNL     1       3.617  -7.915  -5.926  0.00  0.00    -0.389 N 
ATOM     23  C   UNL     1       4.498  -7.418  -6.736  0.00  0.00    +0.090 C 
ATOM     24  H   UNL     1       2.739  -8.163  -6.256  0.00  0.00    +0.159 HD
BRANCH  23  25
ATOM     25  C   UNL     1       4.148  -7.173  -8.142  0.00  0.00    +0.040 A 
ATOM     26  C   UNL     1       2.842  -7.364  -8.595  0.00  0.00    +0.126 A 
ATOM     27  C   UNL     1       2.517  -7.128  -9.931  0.00  0.00    +0.046 A 
ATOM     28  C   UNL     1       3.445  -6.709 -10.830  0.00  0.00    +0.012 A 
ATOM     29  C   UNL     1       4.779  -6.497 -10.441  0.00  0.00    -0.017 A 
ATOM     30  C   UNL     1       5.158  -6.716  -9.095  0.00  0.00    -0.006 A 
ATOM     31  C   UNL     1       6.485  -6.500  -8.705  0.00  0.00    +0.009 A 
ATOM     32  C   UNL     1       7.397  -6.075  -9.625  0.00  0.00    +0.001 A 
ATOM     33  C   UNL     1       7.027  -5.852 -10.948  0.00  0.00    +0.001 A 
ATOM     34  C   UNL     1       5.747  -6.064 -11.364  0.00  0.00    +0.008 A 
BRANCH  26  35
ATOM     35  O   UNL     1       1.884  -7.782  -7.731  0.00  0.00    -0.506 OA
ATOM     36  H   UNL     1       1.415  -7.064  -7.286  0.00  0.00    +0.292 HD
ENDBRANCH  26  35
ENDBRANCH  23  25
ENDBRANCH  21  22
ENDBRANCH  20  21
ENDBRANCH  19  20
ENDBRANCH   1  19
TORSDOF 11
