REMARK  Name = ZINC02925210
REMARK  9 active torsions:
REMARK  status: ('A' for Active; 'I' for Inactive)
REMARK    1  A    between atoms: C_1  and  C_2
REMARK    2  A    between atoms: C_2  and  C_3
REMARK    3  A    between atoms: C_3  and  O_4
REMARK    4  A    between atoms: O_4  and  C_5
REMARK    5  A    between atoms: C_5  and  C_7
REMARK    6  A    between atoms: C_8  and  C_39
REMARK    7  A    between atoms: C_12  and  C_14
REMARK    8  A    between atoms: C_19  and  N_20
REMARK    9  A    between atoms: C_29  and  C_32
REMARK                            x       y       z     vdW  Elec       q    Type
REMARK                         _______ _______ _______ _____ _____    ______ ____
ROOT
ATOM      1  C   UNL     1       0.452   2.651   1.615  0.00  0.00    +0.065 C 
ATOM      2  C   UNL     1       1.093   3.804   1.356  0.00  0.00    +0.016 C 
ATOM      3  N   UNL     1       0.608   4.989   1.835  0.00  0.00    -0.321 N 
ATOM      4  C   UNL     1      -0.696   5.098   2.238  0.00  0.00    +0.016 C 
ATOM      5  C   UNL     1      -1.413   3.997   2.543  0.00  0.00    +0.024 C 
ATOM      6  C   UNL     1      -0.795   2.624   2.449  0.00  0.00    +0.095 C 
ATOM      7  C   UNL     1      -2.753   4.095   2.959  0.00  0.00    +0.162 C 
ATOM      8  O   UNL     1      -3.375   3.083   3.211  0.00  0.00    -0.292 OA
ATOM      9  C   UNL     1      -3.429   5.432   3.096  0.00  0.00    +0.088 C 
ATOM     10  C   UNL     1      -2.373   6.493   3.426  0.00  0.00    +0.032 C 
ATOM     11  C   UNL     1      -1.308   6.474   2.328  0.00  0.00    +0.059 C 
ATOM     12  C   UNL     1       2.351   3.791   0.526  0.00  0.00    +0.061 C 
ATOM     13  H   UNL     1       1.268   5.867   1.901  0.00  0.00    +0.152 HD
ENDROOT
BRANCH   6  14
ATOM     14  C   UNL     1      -0.453   2.140   3.835  0.00  0.00    -0.001 A 
ATOM     15  C   UNL     1       0.345   2.912   4.658  0.00  0.00    +0.056 A 
ATOM     16  C   UNL     1       0.660   2.469   5.932  0.00  0.00    +0.167 A 
ATOM     17  C   UNL     1       0.171   1.244   6.380  0.00  0.00    +0.168 A 
ATOM     18  C   UNL     1      -0.628   0.476   5.550  0.00  0.00    +0.082 A 
ATOM     19  C   UNL     1      -0.943   0.927   4.281  0.00  0.00    +0.134 A 
ATOM     20  O   UNL     1       0.617   1.036   7.654  0.00  0.00    -0.453 OA
ATOM     21  C   UNL     1       1.715   1.950   7.831  0.00  0.00    +0.466 C 
ATOM     22  O   UNL     1       1.413   3.028   6.925  0.00  0.00    -0.453 OA
BRANCH  19  23
ATOM     23  N   UNL     1      -1.802   0.107   3.398  0.00  0.00    +0.057 N 
ATOM     24  O   UNL     1      -1.600  -1.089   3.292  0.00  0.00    -0.126 OA
ATOM     25  O   UNL     1      -2.711   0.629   2.777  0.00  0.00    -0.126 OA
ENDBRANCH  19  23
ENDBRANCH   6  14
BRANCH  10  26
ATOM     26  C   UNL     1      -3.021   7.852   3.481  0.00  0.00    -0.043 A 
ATOM     27  C   UNL     1      -3.675   8.351   2.370  0.00  0.00    +0.005 A 
ATOM     28  C   UNL     1      -4.274   9.596   2.421  0.00  0.00    +0.020 A 
ATOM     29  C   UNL     1      -4.210  10.347   3.581  0.00  0.00    +0.041 A 
ATOM     30  C   UNL     1      -3.550   9.849   4.691  0.00  0.00    +0.020 A 
ATOM     31  C   UNL     1      -2.956   8.602   4.640  0.00  0.00    +0.005 A 
ATOM     32 CL   UNL     1      -4.957  11.913   3.644  0.00  0.00    -0.084 Cl
ENDBRANCH  10  26
BRANCH   1  33
ATOM     33  C   UNL     1       0.966   1.440   1.096  0.00  0.00    +0.338 C 
ATOM     34  O   UNL     1       1.752   1.461   0.168  0.00  0.00    -0.245 OA
BRANCH  33  35
ATOM     35  O   UNL     1       0.584   0.261   1.631  0.00  0.00    -0.461 OA
BRANCH  35  36
ATOM     36  C   UNL     1       1.143  -0.923   1.058  0.00  0.00    +0.232 C 
BRANCH  36  38
ATOM     37  C   UNL     1       1.195  -3.418   1.176  0.00  0.00    +0.007 C 
ATOM     38  C   UNL     1       0.597  -2.150   1.790  0.00  0.00    +0.038 C 
ENDBRANCH  36  38
ENDBRANCH  35  36
ENDBRANCH  33  35
ENDBRANCH   1  33
TORSDOF 7
