REMARK  Name = ZINC12503547
REMARK  7 active torsions:
REMARK  status: ('A' for Active; 'I' for Inactive)
REMARK    1  A    between atoms: C_10  and  C_11
REMARK    2  A    between atoms: C_11  and  C_12
REMARK    3  A    between atoms: N_14  and  N_15
REMARK    4  A    between atoms: N_15  and  C_16
REMARK    5  A    between atoms: C_16  and  N_18
REMARK    6  A    between atoms: C_19  and  C_21
REMARK    7  A    between atoms: C_22  and  C_23
REMARK                            x       y       z     vdW  Elec       q    Type
REMARK                         _______ _______ _______ _____ _____    ______ ____
ROOT
ATOM      1  C   UNL     1       3.524   1.904  -0.021  0.00  0.00    +0.153 C 
ATOM      2  S   UNL     1       5.018   1.068  -0.040  0.00  0.00    -0.017 S 
ENDROOT
BRANCH   1   3
ATOM      3  N   UNL     1       3.506   3.252  -0.014  0.00  0.00    -0.263 N 
ATOM      4  C   UNL     1       4.664   3.941  -0.021  0.00  0.00    +0.242 C 
ATOM      5  O   UNL     1       5.726   3.347  -0.035  0.00  0.00    -0.270 OA
ATOM      6  H   UNL     1       2.659   3.725  -0.003  0.00  0.00    +0.157 HD
BRANCH   4   7
ATOM      7  C   UNL     1       4.644   5.402  -0.013  0.00  0.00    +0.068 C 
ATOM      8  C   UNL     1       5.806   6.094  -0.021  0.00  0.00    +0.013 C 
BRANCH   8   9
ATOM      9  C   UNL     1       5.786   7.561  -0.013  0.00  0.00    -0.017 A 
ATOM     10  C   UNL     1       4.579   8.256   0.003  0.00  0.00    +0.008 A 
ATOM     11  C   UNL     1       4.565   9.643   0.010  0.00  0.00    +0.001 A 
ATOM     12  C   UNL     1       5.714  10.374   0.003  0.00  0.00    +0.008 A 
ATOM     13  C   UNL     1       6.968   9.740  -0.013  0.00  0.00    -0.017 A 
ATOM     14  C   UNL     1       7.033   8.326  -0.014  0.00  0.00    -0.011 A 
ATOM     15  C   UNL     1       8.280   7.691  -0.024  0.00  0.00    +0.009 A 
ATOM     16  C   UNL     1       9.418   8.441  -0.025  0.00  0.00    +0.001 A 
ATOM     17  C   UNL     1       9.358   9.832  -0.018  0.00  0.00    +0.001 A 
ATOM     18  C   UNL     1       8.161  10.482  -0.020  0.00  0.00    +0.008 A 
ENDBRANCH   8   9
ENDBRANCH   4   7
ENDBRANCH   1   3
BRANCH   1  19
ATOM     19  N   UNL     1       2.366   1.214  -0.014  0.00  0.00    -0.246 N 
ATOM     20  H   UNL     1       2.379   0.244  -0.019  0.00  0.00    +0.172 HD
BRANCH  19  23
ATOM     21  C   UNL     1      -0.014   1.209   0.009  0.00  0.00    +0.233 C 
ATOM     22  O   UNL     1       0.002  -0.004   0.002  0.00  0.00    -0.274 OA
ATOM     23  N   UNL     1       1.143   1.898   0.001  0.00  0.00    -0.235 N 
ATOM     24  H   UNL     1       1.130   2.868   0.007  0.00  0.00    +0.173 HD
BRANCH  21  25
ATOM     25  C   UNL     1      -1.330   1.944   0.019  0.00  0.00    +0.133 C 
BRANCH  25  35
ATOM     26  C   UNL     1      -3.849  -0.722   3.589  0.00  0.00    +0.001 A 
ATOM     27  C   UNL     1      -2.801   0.196   3.608  0.00  0.00    +0.001 A 
ATOM     28  C   UNL     1      -2.334   0.751   2.457  0.00  0.00    +0.009 A 
ATOM     29  C   UNL     1      -2.913   0.393   1.228  0.00  0.00    -0.014 A 
ATOM     30  C   UNL     1      -3.982  -0.537   1.208  0.00  0.00    -0.018 A 
ATOM     31  C   UNL     1      -4.437  -1.090   2.418  0.00  0.00    +0.008 A 
ATOM     32  C   UNL     1      -4.563  -0.893  -0.021  0.00  0.00    +0.008 A 
ATOM     33  C   UNL     1      -4.097  -0.337  -1.173  0.00  0.00    +0.001 A 
ATOM     34  C   UNL     1      -3.049   0.581  -1.153  0.00  0.00    +0.005 A 
ATOM     35  C   UNL     1      -2.462   0.950   0.019  0.00  0.00    -0.031 A 
ENDBRANCH  25  35
ENDBRANCH  21  25
ENDBRANCH  19  23
ENDBRANCH   1  19
TORSDOF 7
