REMARK  Name = ZINC67535293
REMARK  13 active torsions:
REMARK  status: ('A' for Active; 'I' for Inactive)
REMARK    1  A    between atoms: C_1  and  C_2
REMARK    2  A    between atoms: C_3  and  C_9
REMARK    3  A    between atoms: C_4  and  C_8
REMARK    4  A    between atoms: N_5  and  C_7
REMARK    5  A    between atoms: C_9  and  C_11
REMARK    6  A    between atoms: C_9  and  N_12
REMARK    7  A    between atoms: N_15  and  C_16
REMARK    8  A    between atoms: C_16  and  C_18
REMARK    9  A    between atoms: C_16  and  C_19
REMARK   10  A    between atoms: C_22  and  C_25
REMARK   11  A    between atoms: C_25  and  C_26
REMARK   12  A    between atoms: C_25  and  C_27
REMARK   13  A    between atoms: C_25  and  C_28
REMARK                            x       y       z     vdW  Elec       q    Type
REMARK                         _______ _______ _______ _____ _____    ______ ____
ROOT
ATOM      1  N   UNL     1      -0.616   0.845  -2.745  0.00  0.00    -0.293 N 
ATOM      2  C   UNL     1      -1.168   1.100  -3.947  0.00  0.00    +0.301 C 
ATOM      3  O   UNL     1      -0.975   0.342  -4.878  0.00  0.00    -0.253 OA
ATOM      4  N   UNL     1      -1.935   2.195  -4.118  0.00  0.00    -0.293 N 
ATOM      5  H   UNL     1      -0.769   1.450  -2.002  0.00  0.00    +0.151 HD
ATOM      6  H   UNL     1      -2.088   2.800  -3.375  0.00  0.00    +0.151 HD
ENDROOT
BRANCH   1   7
ATOM      7  C   UNL     1       0.218  -0.346  -2.559  0.00  0.00    +0.105 C 
ATOM      8  C   UNL     1       1.648  -0.043  -3.010  0.00  0.00    +0.033 C 
BRANCH   7  11
ATOM      9  C   UNL     1      -0.183  -3.272  -1.411  0.00  0.00    +0.068 C 
ATOM     10  C   UNL     1       0.045  -2.025  -0.595  0.00  0.00    +0.065 A 
ATOM     11  C   UNL     1       0.222  -0.734  -1.103  0.00  0.00    +0.016 A 
ATOM     12  C   UNL     1       0.398   0.105  -0.056  0.00  0.00    +0.041 A 
ATOM     13  N   UNL     1       0.335  -0.630   1.075  0.00  0.00    -0.271 N 
ATOM     14  N   UNL     1       0.108  -1.963   0.710  0.00  0.00    -0.176 NA
ATOM     15  C   UNL     1       0.474  -0.121   2.442  0.00  0.00    +0.172 C 
ATOM     16  C   UNL     1       0.624   1.592  -0.137  0.00  0.00    +0.065 C 
ENDBRANCH   7  11
ENDBRANCH   1   7
BRANCH   4  17
ATOM     17  C   UNL     1      -2.535   2.473  -5.425  0.00  0.00    +0.102 C 
ATOM     18  C   UNL     1      -3.855   1.709  -5.552  0.00  0.00    +0.033 C 
BRANCH  17  19
ATOM     19  C   UNL     1      -2.796   3.951  -5.554  0.00  0.00    -0.027 A 
ATOM     20  C   UNL     1      -3.268   4.667  -4.471  0.00  0.00    +0.006 A 
ATOM     21  C   UNL     1      -3.507   6.024  -4.589  0.00  0.00    +0.004 A 
ATOM     22  C   UNL     1      -3.273   6.664  -5.792  0.00  0.00    -0.042 A 
ATOM     23  C   UNL     1      -2.800   5.948  -6.876  0.00  0.00    +0.004 A 
ATOM     24  C   UNL     1      -2.557   4.592  -6.755  0.00  0.00    +0.006 A 
BRANCH  22  25
ATOM     25  C   UNL     1      -3.535   8.142  -5.922  0.00  0.00    -0.013 C 
ATOM     26  C   UNL     1      -2.663   8.904  -4.922  0.00  0.00    +0.015 C 
ATOM     27  C   UNL     1      -3.197   8.597  -7.343  0.00  0.00    +0.015 C 
ATOM     28  C   UNL     1      -5.010   8.427  -5.633  0.00  0.00    +0.015 C 
ENDBRANCH  22  25
ENDBRANCH  17  19
ENDBRANCH   4  17
TORSDOF 5
