REMARK  Name = ZINC13844867
REMARK  5 active torsions:
REMARK  status: ('A' for Active; 'I' for Inactive)
REMARK    1  A    between atoms: C_1  and  C_2
REMARK    2  A    between atoms: C_2  and  C_3
REMARK    3  A    between atoms: C_2  and  C_4
REMARK    4  A    between atoms: C_2  and  N_5
REMARK    5  A    between atoms: C_6  and  C_16
REMARK                            x       y       z     vdW  Elec       q    Type
REMARK                         _______ _______ _______ _____ _____    ______ ____
ROOT
ATOM      1  N   UNL     1       4.093   2.168  -0.625  0.00  0.00    -0.281 N 
ATOM      2  C   UNL     1       3.513   0.964  -0.020  0.00  0.00    +0.140 C 
ATOM      3  C   UNL     1       4.174   0.806   1.327  0.00  0.00    -0.010 A 
ATOM      4  C   UNL     1       4.046  -0.117   2.338  0.00  0.00    +0.006 A 
ATOM      5  C   UNL     1       4.808   0.006   3.487  0.00  0.00    +0.000 A 
ATOM      6  C   UNL     1       5.699   1.056   3.623  0.00  0.00    +0.001 A 
ATOM      7  C   UNL     1       5.835   1.988   2.615  0.00  0.00    +0.013 A 
ATOM      8  C   UNL     1       5.070   1.871   1.453  0.00  0.00    +0.042 A 
ATOM      9  C   UNL     1       4.992   2.690   0.228  0.00  0.00    +0.248 C 
ATOM     10  O   UNL     1       5.646   3.693   0.020  0.00  0.00    -0.270 OA
ENDROOT
BRANCH   2  11
ATOM     11  C   UNL     1       2.025   1.135   0.150  0.00  0.00    +0.002 A 
ATOM     12  C   UNL     1       1.369   2.294   0.315  0.00  0.00    +0.089 A 
ATOM     13  N   UNL     1       0.026   2.057   0.437  0.00  0.00    -0.360 N 
ATOM     14  H   UNL     1      -0.651   2.740   0.561  0.00  0.00    +0.165 HD
ATOM     15  C   UNL     1      -0.219   0.705   0.351  0.00  0.00    +0.047 A 
ATOM     16  C   UNL     1       1.022   0.068   0.168  0.00  0.00    +0.005 A 
ATOM     17  C   UNL     1       1.081  -1.321   0.045  0.00  0.00    +0.010 A 
ATOM     18  C   UNL     1      -0.069  -2.057   0.106  0.00  0.00    +0.001 A 
ATOM     19  C   UNL     1      -1.296  -1.434   0.287  0.00  0.00    +0.002 A 
ATOM     20  C   UNL     1      -1.377  -0.064   0.409  0.00  0.00    +0.026 A 
ENDBRANCH   2  11
BRANCH   1  22
ATOM     21  C   UNL     1       2.733   1.795  -2.623  0.00  0.00    +0.031 C 
ATOM     22  C   UNL     1       3.750   2.712  -1.941  0.00  0.00    +0.030 C 
ATOM     23  C   UNL     1       3.146   4.108  -1.774  0.00  0.00    +0.031 C 
ATOM     24  C   UNL     1       5.013   2.802  -2.800  0.00  0.00    +0.031 C 
ENDBRANCH   1  22
TORSDOF 2
