REMARK  Name = ZINC06530964
REMARK  7 active torsions:
REMARK  status: ('A' for Active; 'I' for Inactive)
REMARK    1  A    between atoms: C_4  and  C_7
REMARK    2  A    between atoms: C_7  and  C_9
REMARK    3  A    between atoms: C_7  and  N_19
REMARK    4  A    between atoms: N_11  and  C_12
REMARK    5  A    between atoms: C_12  and  C_13
REMARK    6  A    between atoms: N_19  and  S_20
REMARK    7  A    between atoms: S_20  and  C_23
REMARK                            x       y       z     vdW  Elec       q    Type
REMARK                         _______ _______ _______ _____ _____    ______ ____
ROOT
ATOM      1  C   UNL     1       3.711  -0.707  -0.038  0.00  0.00    +0.192 C 
ENDROOT
BRANCH   1   5
ATOM      2  C   UNL     1      -0.017   1.378   0.010  0.00  0.00    +0.000 A 
ATOM      3  C   UNL     1       1.171   2.086   0.002  0.00  0.00    +0.000 A 
ATOM      4  C   UNL     1       2.377   1.411  -0.013  0.00  0.00    +0.006 A 
ATOM      5  C   UNL     1       2.396   0.029  -0.020  0.00  0.00    -0.020 A 
ATOM      6  C   UNL     1       1.208  -0.679  -0.012  0.00  0.00    +0.006 A 
ATOM      7  C   UNL     1       0.002  -0.004   0.002  0.00  0.00    +0.000 A 
ENDBRANCH   1   5
BRANCH   1   8
ATOM      8  C   UNL     1       4.014  -1.161  -1.442  0.00  0.00    +0.236 C 
ATOM      9  O   UNL     1       4.150  -2.342  -1.682  0.00  0.00    -0.274 OA
ATOM     10  N   UNL     1       4.136  -0.254  -2.432  0.00  0.00    -0.310 N 
ATOM     11  H   UNL     1       4.027   0.691  -2.240  0.00  0.00    +0.149 HD
BRANCH  10  12
ATOM     12  C   UNL     1       4.430  -0.695  -3.798  0.00  0.00    +0.141 C 
BRANCH  12  13
ATOM     13  C   UNL     1       4.514   0.505  -4.706  0.00  0.00    -0.012 A 
ATOM     14  C   UNL     1       3.380   0.979  -5.349  0.00  0.00    +0.008 A 
ATOM     15  C   UNL     1       3.504   2.085  -6.175  0.00  0.00    +0.020 A 
ATOM     16  C   UNL     1       4.745   2.675  -6.329  0.00  0.00    +0.111 A 
ATOM     17  N   UNL     1       5.802   2.197  -5.702  0.00  0.00    -0.263 NA
ATOM     18  C   UNL     1       5.720   1.150  -4.904  0.00  0.00    +0.115 A 
ENDBRANCH  12  13
ENDBRANCH  10  12
ENDBRANCH   1   8
BRANCH   1  19
ATOM     19  N   UNL     1       3.630  -1.873   0.845  0.00  0.00    -0.174 NA
ATOM     20  H   UNL     1       3.265  -2.708   0.513  0.00  0.00    +0.149 HD
BRANCH  19  21
ATOM     21  S   UNL     1       4.162  -1.766   2.410  0.00  0.00    +0.059 S 
ATOM     22  O   UNL     1       3.928  -3.034   3.006  0.00  0.00    -0.153 OA
ATOM     23  O   UNL     1       5.453  -1.174   2.360  0.00  0.00    -0.153 OA
BRANCH  21  24
ATOM     24  C   UNL     1       3.113  -0.619   3.239  0.00  0.00    +0.106 A 
ATOM     25  C   UNL     1       3.433   0.727   3.248  0.00  0.00    +0.030 A 
ATOM     26  C   UNL     1       2.614   1.629   3.897  0.00  0.00    +0.025 A 
ATOM     27  C   UNL     1       1.467   1.184   4.541  0.00  0.00    +0.037 A 
ATOM     28  C   UNL     1       1.148  -0.168   4.530  0.00  0.00    -0.024 A 
ATOM     29  C   UNL     1       1.969  -1.065   3.875  0.00  0.00    +0.034 A 
ATOM     30  C   UNL     1      -0.097  -0.650   5.228  0.00  0.00    +0.046 C 
ATOM     31  C   UNL     1      -0.349   0.203   6.471  0.00  0.00    +0.101 C 
ATOM     32  C   UNL     1      -0.252   1.663   6.119  0.00  0.00    +0.218 C 
ATOM     33  O   UNL     1      -0.979   2.462   6.670  0.00  0.00    -0.275 OA
ATOM     34  N   UNL     1       0.632   2.092   5.199  0.00  0.00    -0.285 N 
ATOM     35  H   UNL     1       0.691   3.038   4.992  0.00  0.00    +0.155 HD
ENDBRANCH  21  24
ENDBRANCH  19  21
ENDBRANCH   1  19
TORSDOF 7
