REMARK  Name = ZINC33071101
REMARK  1 active torsions:
REMARK  status: ('A' for Active; 'I' for Inactive)
REMARK    1  A    between atoms: C_13  and  C_15
REMARK                            x       y       z     vdW  Elec       q    Type
REMARK                         _______ _______ _______ _____ _____    ______ ____
ROOT
ATOM      1  C   UNL     1       3.168   3.500  -0.823  0.00  0.00    +0.078 C 
ATOM      2  C   UNL     1       3.404   4.088   0.571  0.00  0.00    +0.032 C 
ATOM      3  C   UNL     1       4.798   4.719   0.623  0.00  0.00    +0.108 C 
ATOM      4  N   UNL     1       4.902   5.770  -0.397  0.00  0.00    -0.301 N 
ATOM      5  C   UNL     1       4.726   5.219  -1.747  0.00  0.00    +0.108 C 
ATOM      6  C   UNL     1       3.329   4.605  -1.871  0.00  0.00    +0.032 C 
ATOM      7  C   UNL     1       6.099   6.445  -0.291  0.00  0.00    +0.197 A 
ATOM      8  N   UNL     1       6.552   7.068   0.837  0.00  0.00    -0.214 NA
ATOM      9  C   UNL     1       7.785   7.622   0.533  0.00  0.00    +0.092 A 
ATOM     10  C   UNL     1       8.711   8.360   1.255  0.00  0.00    +0.050 A 
ATOM     11  C   UNL     1       9.879   8.778   0.649  0.00  0.00    +0.043 A 
ATOM     12  C   UNL     1      10.133   8.464  -0.678  0.00  0.00    +0.022 A 
ATOM     13  C   UNL     1       9.224   7.732  -1.409  0.00  0.00    +0.029 A 
ATOM     14  C   UNL     1       8.037   7.302  -0.810  0.00  0.00    +0.068 A 
ATOM     15  N   UNL     1       6.975   6.579  -1.256  0.00  0.00    -0.326 N 
ATOM     16 CL   UNL     1      11.037   9.702   1.554  0.00  0.00    -0.083 Cl
ATOM     17  H   UNL     1       6.780   6.133  -2.242  0.00  0.00    +0.169 HD
ENDROOT
BRANCH   1  30
ATOM     18  C   UNL     1       1.880  -4.633  -0.866  0.00  0.00    +0.005 A 
ATOM     19  C   UNL     1       0.913  -4.928  -1.819  0.00  0.00    +0.018 A 
ATOM     20  C   UNL     1       0.075  -3.926  -2.264  0.00  0.00    +0.084 A 
ATOM     21  N   UNL     1       0.178  -2.697  -1.792  0.00  0.00    -0.350 N 
ATOM     22  C   UNL     1       1.090  -2.376  -0.888  0.00  0.00    +0.099 A 
ATOM     23  C   UNL     1       1.968  -3.336  -0.394  0.00  0.00    +0.042 A 
ATOM     24  N   UNL     1       1.167  -1.068  -0.422  0.00  0.00    -0.314 N 
ATOM     25  C   UNL     1       0.157  -0.219  -1.068  0.00  0.00    +0.125 C 
ATOM     26  C   UNL     1       0.153   1.161  -0.402  0.00  0.00    +0.126 C 
ATOM     27  N   UNL     1       1.523   1.696  -0.427  0.00  0.00    -0.298 N 
ATOM     28  C   UNL     1       2.611   0.845   0.078  0.00  0.00    +0.126 C 
ATOM     29  C   UNL     1       2.518  -0.522  -0.607  0.00  0.00    +0.125 C 
ATOM     30  C   UNL     1       1.774   2.932  -0.900  0.00  0.00    +0.219 C 
ATOM     31  O   UNL     1       0.878   3.588  -1.388  0.00  0.00    -0.275 OA
ATOM     32  H   UNL     1      -0.503  -1.912  -2.150  0.00  0.00    +0.166 HD
ENDBRANCH   1  30
TORSDOF 1
