REMARK  Name = ZINC04826631
REMARK  5 active torsions:
REMARK  status: ('A' for Active; 'I' for Inactive)
REMARK    1  A    between atoms: C_1  and  C_2
REMARK    2  A    between atoms: C_4  and  C_21
REMARK    3  A    between atoms: N_8  and  N_9
REMARK    4  A    between atoms: C_10  and  C_11
REMARK    5  A    between atoms: C_13  and  N_18
REMARK                            x       y       z     vdW  Elec       q    Type
REMARK                         _______ _______ _______ _____ _____    ______ ____
ROOT
ATOM      1  N   UNL     1      -1.241  -2.060   0.003  0.00  0.00    -0.187 NA
ATOM      2  C   UNL     1      -1.263  -0.762   0.011  0.00  0.00    +0.139 C 
ENDROOT
BRANCH   1  10
ATOM      3  C   UNL     1       0.135  -6.820  -0.037  0.00  0.00    +0.066 C 
ATOM      4  C   UNL     1      -1.196  -6.114  -0.020  0.00  0.00    +0.044 A 
ATOM      5  C   UNL     1      -2.376  -6.841  -0.012  0.00  0.00    +0.046 A 
ATOM      6  C   UNL     1      -3.579  -6.153   0.004  0.00  0.00    +0.044 A 
ATOM      7  N   UNL     1      -3.566  -4.830   0.012  0.00  0.00    -0.218 NA
ATOM      8  C   UNL     1      -2.420  -4.165   0.004  0.00  0.00    +0.235 A 
ATOM      9  N   UNL     1      -1.253  -4.792  -0.017  0.00  0.00    -0.218 NA
ATOM     10  N   UNL     1      -2.443  -2.780   0.011  0.00  0.00    -0.205 N 
ATOM     11  C   UNL     1      -4.887  -6.902   0.014  0.00  0.00    +0.066 C 
ATOM     12  H   UNL     1      -3.291  -2.309   0.022  0.00  0.00    +0.177 HD
ENDBRANCH   1  10
BRANCH   2  13
ATOM     13  C   UNL     1       0.002  -0.004   0.002  0.00  0.00    +0.015 A 
ATOM     14  C   UNL     1      -0.017   1.393   0.010  0.00  0.00    +0.043 A 
ATOM     15  C   UNL     1       1.170   2.095   0.002  0.00  0.00    +0.127 A 
ATOM     16  C   UNL     1       2.378   1.421  -0.013  0.00  0.00    +0.034 A 
ATOM     17  C   UNL     1       2.406   0.038  -0.021  0.00  0.00    +0.023 A 
ATOM     18  C   UNL     1       1.226  -0.679  -0.013  0.00  0.00    +0.050 A 
ATOM     19 CL   UNL     1       1.262  -2.415  -0.024  0.00  0.00    -0.083 Cl
BRANCH  15  20
ATOM     20  N   UNL     1       1.151   3.575   0.010  0.00  0.00    +0.056 N 
ATOM     21  O   UNL     1       0.089   4.171   0.024  0.00  0.00    -0.126 OA
ATOM     22  O   UNL     1       2.198   4.198   0.004  0.00  0.00    -0.126 OA
ENDBRANCH  15  20
ENDBRANCH   2  13
TORSDOF 3
