REMARK  Name = ZINC36360388
REMARK  6 active torsions:
REMARK  status: ('A' for Active; 'I' for Inactive)
REMARK    1  A    between atoms: C_1  and  C_2
REMARK    2  A    between atoms: C_2  and  O_3
REMARK    3  A    between atoms: O_3  and  C_4
REMARK    4  A    between atoms: C_9  and  C_10
REMARK    5  A    between atoms: C_18  and  C_28
REMARK    6  A    between atoms: C_30  and  C_33
REMARK                            x       y       z     vdW  Elec       q    Type
REMARK                         _______ _______ _______ _____ _____    ______ ____
ROOT
ATOM      1  C   UNL     1       2.051  -1.436   3.442  0.00  0.00    +0.066 C 
ATOM      2  C   UNL     1       1.419  -1.724   4.808  0.00  0.00    +0.109 C 
ATOM      3  C   UNL     1       2.234  -1.128   5.921  0.00  0.00    +0.219 C 
ATOM      4  O   UNL     1       1.661  -0.632   6.868  0.00  0.00    -0.275 OA
ATOM      5  N   UNL     1       3.584  -1.127   5.899  0.00  0.00    -0.270 N 
ATOM      6  C   UNL     1       4.222  -1.518   4.723  0.00  0.00    +0.134 A 
ATOM      7  C   UNL     1       3.536  -1.676   3.547  0.00  0.00    +0.023 A 
ATOM      8  C   UNL     1       4.441  -2.070   2.572  0.00  0.00    +0.066 A 
ATOM      9  N   UNL     1       5.632  -2.138   3.119  0.00  0.00    -0.168 NA
ATOM     10  N   UNL     1       5.521  -1.784   4.475  0.00  0.00    -0.198 N 
ATOM     11  C   UNL     1       6.569  -1.718   5.400  0.00  0.00    +0.178 A 
ATOM     12  C   UNL     1       7.723  -2.475   5.204  0.00  0.00    +0.055 A 
ATOM     13  C   UNL     1       8.733  -2.375   6.146  0.00  0.00    +0.077 A 
ATOM     14  C   UNL     1       8.532  -1.525   7.232  0.00  0.00    +0.289 A 
ATOM     15  O   UNL     1       9.494  -1.395   8.180  0.00  0.00    -0.264 OA
ATOM     16  N   UNL     1       7.402  -0.845   7.335  0.00  0.00    -0.105 NA
ATOM     17  N   UNL     1       6.468  -0.933   6.460  0.00  0.00    -0.126 NA
ATOM     18  C   UNL     1       4.112  -2.369   1.132  0.00  0.00    +0.068 C 
ATOM     19  H   UNL     1       4.095  -0.863   6.680  0.00  0.00    +0.156 HD
ENDROOT
BRANCH   1  25
ATOM     20  C   UNL     1       0.802  -1.825   1.306  0.00  0.00    +0.125 A 
ATOM     21  C   UNL     1       0.260  -2.676   0.352  0.00  0.00    +0.053 A 
ATOM     22  C   UNL     1       0.375  -4.040   0.504  0.00  0.00    +0.001 A 
ATOM     23  C   UNL     1       1.034  -4.581   1.601  0.00  0.00    +0.125 A 
ATOM     24  C   UNL     1       1.571  -3.723   2.556  0.00  0.00    +0.053 A 
ATOM     25  C   UNL     1       1.460  -2.356   2.405  0.00  0.00    +0.006 A 
ATOM     26  O   UNL     1       1.051  -5.942   1.542  0.00  0.00    -0.488 OA
ATOM     27  C   UNL     1       0.025  -6.390   0.640  0.00  0.00    +0.175 C 
ATOM     28  C   UNL     1      -0.110  -5.202  -0.341  0.00  0.00    +0.083 C 
ATOM     29  C   UNL     1      -1.287  -6.633   1.388  0.00  0.00    +0.052 C 
BRANCH  20  30
ATOM     30  O   UNL     1       0.693  -0.477   1.160  0.00  0.00    -0.492 OA
BRANCH  30  32
ATOM     31  C   UNL     1      -0.019   1.526   0.010  0.00  0.00    +0.048 C 
ATOM     32  C   UNL     1       0.002  -0.004   0.002  0.00  0.00    +0.225 C 
ENDBRANCH  30  32
ENDBRANCH  20  30
ENDBRANCH   1  25
TORSDOF 3
