REMARK  Name = ZINC16012927
REMARK  8 active torsions:
REMARK  status: ('A' for Active; 'I' for Inactive)
REMARK    1  A    between atoms: C_1  and  C_2
REMARK    2  A    between atoms: C_6  and  C_30
REMARK    3  A    between atoms: C_7  and  N_8
REMARK    4  A    between atoms: C_19  and  C_20
REMARK    5  A    between atoms: C_23  and  O_28
REMARK    6  A    between atoms: C_24  and  O_26
REMARK    7  A    between atoms: O_26  and  C_27
REMARK    8  A    between atoms: O_28  and  C_29
REMARK                            x       y       z     vdW  Elec       q    Type
REMARK                         _______ _______ _______ _____ _____    ______ ____
ROOT
ATOM      1  N   UNL     1       0.025  -0.014   2.419  0.00  0.00    -0.204 N 
ATOM      2  C   UNL     1       1.145   0.375   3.053  0.00  0.00    +0.258 C 
ATOM      3  O   UNL     1       2.268   0.300   2.588  0.00  0.00    -0.269 OA
ATOM      4  C   UNL     1       0.838   0.875   4.318  0.00  0.00    +0.081 C 
ATOM      5  H   UNL     1      -0.117   1.829   7.173  0.00  0.00    +0.194 HD
ATOM      6  C   UNL     1      -0.655   1.218   4.211  0.00  0.00    +0.272 C 
ATOM      7  C   UNL     1      -1.100   0.341   3.080  0.00  0.00    +0.263 C 
ATOM      8  O   UNL     1      -2.237   0.014   2.815  0.00  0.00    -0.271 OA
ATOM      9  O   UNL     1      -1.097   0.828   5.519  0.00  0.00    -0.256 OA
ATOM     10  N   UNL     1      -0.030   1.384   6.315  0.00  0.00    -0.264 N 
ATOM     11  C   UNL     1       1.146   1.158   5.613  0.00  0.00    +0.080 C 
ENDROOT
BRANCH   1  18
ATOM     12  C   UNL     1      -0.018   1.503   0.010  0.00  0.00    +0.046 C 
ATOM     13  C   UNL     1       0.002  -0.004   0.002  0.00  0.00    -0.028 A 
ATOM     14  C   UNL     1       0.006  -0.689  -1.198  0.00  0.00    +0.005 A 
ATOM     15  C   UNL     1       0.025  -2.071  -1.206  0.00  0.00    +0.001 A 
ATOM     16  C   UNL     1       0.040  -2.773  -0.014  0.00  0.00    +0.005 A 
ATOM     17  C   UNL     1       0.036  -2.094   1.188  0.00  0.00    -0.028 A 
ATOM     18  C   UNL     1       0.023  -0.705   1.200  0.00  0.00    +0.050 A 
ATOM     19  C   UNL     1       0.052  -2.859   2.487  0.00  0.00    +0.046 C 
ENDBRANCH   1  18
BRANCH  11  20
ATOM     20  C   UNL     1       2.507   1.214   6.179  0.00  0.00    +0.004 A 
ATOM     21  C   UNL     1       3.615   0.972   5.363  0.00  0.00    +0.014 A 
ATOM     22  C   UNL     1       4.886   1.025   5.894  0.00  0.00    +0.050 A 
ATOM     23  C   UNL     1       5.069   1.320   7.238  0.00  0.00    +0.162 A 
ATOM     24  C   UNL     1       3.968   1.562   8.058  0.00  0.00    +0.162 A 
ATOM     25  C   UNL     1       2.692   1.516   7.532  0.00  0.00    +0.059 A 
BRANCH  24  26
ATOM     26  O   UNL     1       4.151   1.850   9.374  0.00  0.00    -0.491 OA
ATOM     27  C   UNL     1       2.978   2.087  10.155  0.00  0.00    +0.277 C 
ENDBRANCH  24  26
BRANCH  23  28
ATOM     28  O   UNL     1       6.324   1.371   7.756  0.00  0.00    -0.491 OA
ATOM     29  C   UNL     1       7.407   1.112   6.860  0.00  0.00    +0.277 C 
ENDBRANCH  23  28
ENDBRANCH  11  20
TORSDOF 4
