REMARK  Name = ZINC35278973
REMARK  5 active torsions:
REMARK  status: ('A' for Active; 'I' for Inactive)
REMARK    1  A    between atoms: C_10  and  C_13
REMARK    2  A    between atoms: C_13  and  C_14
REMARK    3  A    between atoms: N_16  and  C_17
REMARK    4  A    between atoms: C_21  and  S_23
REMARK    5  A    between atoms: S_23  and  N_26
REMARK                            x       y       z     vdW  Elec       q    Type
REMARK                         _______ _______ _______ _____ _____    ______ ____
ROOT
ATOM      1  C   UNL     1       3.860  -0.955   4.736  0.00  0.00    +0.219 C 
ATOM      2  O   UNL     1       3.949  -0.203   5.685  0.00  0.00    -0.275 OA
ATOM      3  N   UNL     1       4.975  -1.431   4.148  0.00  0.00    -0.285 N 
ATOM      4  H   UNL     1       4.905  -2.084   3.433  0.00  0.00    +0.155 HD
ENDROOT
BRANCH   3   5
ATOM      5  C   UNL     1       6.233  -0.986   4.568  0.00  0.00    +0.035 A 
ATOM      6  C   UNL     1       7.260  -0.830   3.646  0.00  0.00    +0.023 A 
ATOM      7  C   UNL     1       8.501  -0.390   4.063  0.00  0.00    +0.004 A 
ATOM      8  C   UNL     1       8.721  -0.105   5.398  0.00  0.00    +0.029 A 
ATOM      9  C   UNL     1       7.702  -0.259   6.319  0.00  0.00    +0.114 A 
ATOM     10  C   UNL     1       6.457  -0.693   5.907  0.00  0.00    +0.052 A 
BRANCH   9  11
ATOM     11  S   UNL     1       7.988   0.105   8.019  0.00  0.00    +0.100 S 
ATOM     12  O   UNL     1       7.033  -0.641   8.761  0.00  0.00    -0.146 OA
ATOM     13  O   UNL     1       9.387  -0.024   8.232  0.00  0.00    -0.146 OA
BRANCH  11  14
ATOM     14  N   UNL     1       7.620   1.703   8.246  0.00  0.00    -0.118 NA
ATOM     15  C   UNL     1       7.744   2.235   9.418  0.00  0.00    +0.117 C 
ATOM     16  N   UNL     1       8.174   1.581  10.542  0.00  0.00    -0.331 N 
ATOM     17  C   UNL     1       8.647   2.567  11.526  0.00  0.00    +0.103 C 
ATOM     18  C   UNL     1       7.791   3.824  11.255  0.00  0.00    +0.026 C 
ATOM     19  C   UNL     1       7.442   3.678   9.759  0.00  0.00    +0.074 C 
ATOM     20  H   UNL     1       8.169   0.619  10.668  0.00  0.00    +0.147 HD
ENDBRANCH  11  14
ENDBRANCH   9  11
ENDBRANCH   3   5
BRANCH   1  21
ATOM     21  C   UNL     1       2.504  -1.354   4.216  0.00  0.00    +0.120 C 
BRANCH  21  31
ATOM     22  C   UNL     1      -0.461  -5.402   6.296  0.00  0.00    +0.002 A 
ATOM     23  C   UNL     1       0.488  -5.197   7.281  0.00  0.00    +0.001 A 
ATOM     24  C   UNL     1       1.078  -3.954   7.421  0.00  0.00    +0.016 A 
ATOM     25  C   UNL     1       0.718  -2.920   6.574  0.00  0.00    +0.030 A 
ATOM     26  C   UNL     1      -0.233  -3.120   5.573  0.00  0.00    +0.047 A 
ATOM     27  C   UNL     1      -0.822  -4.374   5.447  0.00  0.00    +0.024 A 
ATOM     28  N   UNL     1      -0.598  -2.107   4.692  0.00  0.00    -0.284 N 
ATOM     29  C   UNL     1       0.063  -0.977   4.464  0.00  0.00    +0.231 C 
ATOM     30  O   UNL     1      -0.448  -0.144   3.744  0.00  0.00    -0.274 OA
ATOM     31  C   UNL     1       1.417  -0.679   5.055  0.00  0.00    +0.146 C 
ATOM     32  S   UNL     1       1.458  -1.327   6.754  0.00  0.00    -0.110 S 
ATOM     33  H   UNL     1      -1.419  -2.239   4.193  0.00  0.00    +0.155 HD
ENDBRANCH  21  31
ENDBRANCH   1  21
TORSDOF 5
