REMARK  Name = ZINC45679520
REMARK  5 active torsions:
REMARK  status: ('A' for Active; 'I' for Inactive)
REMARK    1  A    between atoms: C_1  and  C_2
REMARK    2  A    between atoms: C_5  and  C_7
REMARK    3  A    between atoms: C_7  and  N_8
REMARK    4  A    between atoms: N_11  and  N_12
REMARK    5  A    between atoms: C_13  and  C_15
REMARK                            x       y       z     vdW  Elec       q    Type
REMARK                         _______ _______ _______ _____ _____    ______ ____
ROOT
ATOM      1  N   UNL     1       1.505  -5.302  -3.999  0.00  0.00    -0.228 N 
ATOM      2  C   UNL     1       1.659  -5.715  -5.273  0.00  0.00    +0.279 C 
ATOM      3  O   UNL     1       2.083  -6.830  -5.504  0.00  0.00    -0.267 OA
ATOM      4  H   UNL     1       1.167  -4.412  -3.815  0.00  0.00    +0.173 HD
ENDROOT
BRANCH   2   5
ATOM      5  C   UNL     1       1.311  -4.807  -6.394  0.00  0.00    +0.127 A 
ATOM      6  C   UNL     1       1.472  -5.255  -7.713  0.00  0.00    +0.034 A 
ATOM      7  C   UNL     1       1.156  -4.429  -8.753  0.00  0.00    +0.012 A 
ATOM      8  C   UNL     1       0.672  -3.141  -8.458  0.00  0.00    +0.000 A 
ATOM      9  C   UNL     1       0.327  -2.240  -9.478  0.00  0.00    +0.010 A 
ATOM     10  C   UNL     1      -0.138  -1.002  -9.154  0.00  0.00    +0.001 A 
ATOM     11  C   UNL     1      -0.276  -0.614  -7.822  0.00  0.00    +0.002 A 
ATOM     12  C   UNL     1       0.049  -1.460  -6.808  0.00  0.00    +0.028 A 
ATOM     13  C   UNL     1       0.533  -2.749  -7.101  0.00  0.00    +0.072 A 
ATOM     14  N   UNL     1       0.853  -3.600  -6.126  0.00  0.00    -0.242 NA
ENDBRANCH   2   5
BRANCH   1  18
ATOM     15  N   UNL     1       1.210  -4.510  -1.412  0.00  0.00    -0.294 N 
ATOM     16  C   UNL     1       1.680  -5.747  -1.667  0.00  0.00    +0.316 C 
ATOM     17  O   UNL     1       1.965  -6.491  -0.749  0.00  0.00    -0.251 OA
ATOM     18  N   UNL     1       1.834  -6.159  -2.941  0.00  0.00    -0.218 N 
ATOM     19  H   UNL     1       0.983  -3.917  -2.144  0.00  0.00    +0.151 HD
ATOM     20  H   UNL     1       2.172  -7.050  -3.125  0.00  0.00    +0.174 HD
BRANCH  15  21
ATOM     21  C   UNL     1       1.043  -4.062  -0.027  0.00  0.00    +0.148 C 
BRANCH  21  26
ATOM     22  C   UNL     1      -0.018   1.503   0.010  0.00  0.00    +0.051 C 
ATOM     23  C   UNL     1       0.002  -0.004   0.002  0.00  0.00    -0.013 A 
ATOM     24  C   UNL     1      -1.039  -0.872   0.002  0.00  0.00    +0.011 A 
ATOM     25  C   UNL     1      -0.780  -2.230  -0.007  0.00  0.00    +0.013 A 
ATOM     26  C   UNL     1       0.507  -2.653  -0.016  0.00  0.00    +0.007 A 
ATOM     27  S   UNL     1       1.404  -1.109  -0.018  0.00  0.00    -0.097 S 
ENDBRANCH  21  26
ENDBRANCH  15  21
ENDBRANCH   1  18
TORSDOF 4
