REMARK  Name = ZINC63752176
REMARK  5 active torsions:
REMARK  status: ('A' for Active; 'I' for Inactive)
REMARK    1  A    between atoms: C_1  and  C_2
REMARK    2  A    between atoms: C_4  and  C_30
REMARK    3  A    between atoms: C_6  and  N_8
REMARK    4  A    between atoms: C_9  and  C_11
REMARK    5  A    between atoms: N_16  and  C_18
REMARK                            x       y       z     vdW  Elec       q    Type
REMARK                         _______ _______ _______ _____ _____    ______ ____
ROOT
ATOM      1  C   UNL     1       0.280  -2.900   4.854  0.00  0.00    +0.089 C 
ATOM      2  C   UNL     1       1.545  -3.762   4.812  0.00  0.00    +0.015 C 
ATOM      3  C   UNL     1       1.701  -4.490   6.150  0.00  0.00    +0.016 C 
ATOM      4  C   UNL     1       1.757  -3.461   7.282  0.00  0.00    +0.087 C 
ATOM      5  N   UNL     1       0.524  -2.663   7.279  0.00  0.00    -0.275 NA
ATOM      6  C   UNL     1       0.376  -1.917   6.023  0.00  0.00    +0.099 C 
ENDROOT
BRANCH   5   7
ATOM      7  C   UNL     1       0.481  -1.758   8.436  0.00  0.00    +0.204 C 
ATOM      8  N   UNL     1      -0.815  -1.055   8.511  0.00  0.00    -0.307 N 
ATOM      9  C   UNL     1      -0.843   0.273   8.536  0.00  0.00    +0.120 C 
ATOM     10  N   UNL     1      -1.807   1.153   8.296  0.00  0.00    -0.226 NA
ATOM     11  C   UNL     1      -1.537   2.398   7.944  0.00  0.00    +0.213 C 
ATOM     12  N   UNL     1      -0.345   2.920   7.771  0.00  0.00    -0.168 NA
ATOM     13  C   UNL     1       0.765   2.236   8.113  0.00  0.00    +0.258 C 
ATOM     14  O   UNL     1       1.884   2.634   7.859  0.00  0.00    -0.272 OA
ATOM     15  C   UNL     1       0.506   0.942   8.836  0.00  0.00    +0.200 C 
ATOM     16  S   UNL     1       1.655  -0.348   8.219  0.00  0.00    -0.102 S 
ATOM     17  H   UNL     1      -1.642  -1.560   8.540  0.00  0.00    +0.149 HD
ENDBRANCH   5   7
BRANCH   1  19
ATOM     18  N   UNL     1       0.052  -2.797   2.393  0.00  0.00    -0.285 N 
ATOM     19  C   UNL     1       0.150  -2.134   3.562  0.00  0.00    +0.222 C 
ATOM     20  O   UNL     1       0.134  -0.922   3.575  0.00  0.00    -0.275 OA
ATOM     21  H   UNL     1      -0.012  -3.765   2.388  0.00  0.00    +0.155 HD
BRANCH  18  27
ATOM     22  C   UNL     1      -1.512  -2.365  -2.248  0.00  0.00    +0.044 C 
ATOM     23  C   UNL     1      -0.706  -1.857  -1.080  0.00  0.00    -0.048 A 
ATOM     24  C   UNL     1       0.025  -0.690  -1.201  0.00  0.00    +0.006 A 
ATOM     25  C   UNL     1       0.765  -0.220  -0.131  0.00  0.00    -0.048 A 
ATOM     26  C   UNL     1       0.776  -0.917   1.061  0.00  0.00    +0.026 A 
ATOM     27  C   UNL     1       0.043  -2.089   1.186  0.00  0.00    +0.034 A 
ATOM     28  C   UNL     1      -0.704  -2.555   0.112  0.00  0.00    +0.026 A 
ATOM     29  C   UNL     1       1.562   1.052  -0.268  0.00  0.00    +0.044 C 
ENDBRANCH  18  27
ENDBRANCH   1  19
TORSDOF 3
