REMARK  Name = ZINC13143148
REMARK  9 active torsions:
REMARK  status: ('A' for Active; 'I' for Inactive)
REMARK    1  A    between atoms: C_1  and  C_2
REMARK    2  A    between atoms: C_2  and  C_3
REMARK    3  A    between atoms: C_2  and  C_4
REMARK    4  A    between atoms: C_2  and  C_5
REMARK    5  A    between atoms: C_13  and  C_25
REMARK    6  A    between atoms: C_15  and  C_21
REMARK    7  A    between atoms: C_15  and  C_23
REMARK    8  A    between atoms: C_16  and  N_20
REMARK    9  A    between atoms: C_17  and  C_18
REMARK                            x       y       z     vdW  Elec       q    Type
REMARK                         _______ _______ _______ _____ _____    ______ ____
ROOT
ATOM      1  C   UNL     1      -0.707   1.426   1.136  0.00  0.00    -0.001 C 
ATOM      2  C   UNL     1      -0.081   0.640  -0.025  0.00  0.00    +0.031 C 
ATOM      3  C   UNL     1      -0.823   1.012  -1.283  0.00  0.00    -0.021 C 
ATOM      4  C   UNL     1      -1.317   2.224  -1.444  0.00  0.00    -0.029 C 
ATOM      5  C   UNL     1      -1.150   3.333  -0.449  0.00  0.00    +0.031 C 
ATOM      6  C   UNL     1      -0.524   2.917   0.860  0.00  0.00    +0.013 C 
ATOM      7  C   UNL     1      -2.508   4.008  -0.250  0.00  0.00    +0.073 C 
ATOM      8  C   UNL     1      -2.946   4.635  -1.574  0.00  0.00    +0.189 C 
ATOM      9  C   UNL     1      -2.854   3.659  -2.708  0.00  0.00    +0.054 C 
ATOM     10  C   UNL     1      -2.092   2.537  -2.674  0.00  0.00    +0.074 C 
ENDROOT
BRANCH   7  11
ATOM     11  C   UNL     1      -2.389   5.081   0.801  0.00  0.00    -0.004 A 
ATOM     12  C   UNL     1      -3.049   5.199   1.979  0.00  0.00    +0.011 A 
ATOM     13  C   UNL     1      -2.775   6.280   2.796  0.00  0.00    +0.008 A 
ATOM     14  C   UNL     1      -1.853   7.190   2.396  0.00  0.00    +0.045 A 
ATOM     15  S   UNL     1      -1.335   6.523   0.823  0.00  0.00    -0.101 S 
ENDBRANCH   7  11
BRANCH   1  17
ATOM     16  C   UNL     1      -2.379  -0.272   1.884  0.00  0.00    +0.011 C 
ATOM     17  C   UNL     1      -2.198   1.101   1.234  0.00  0.00    -0.035 C 
ATOM     18  C   UNL     1      -2.897   2.164   2.084  0.00  0.00    +0.011 C 
ATOM     19  C   UNL     1      -2.811   1.086  -0.168  0.00  0.00    +0.011 C 
ENDBRANCH   1  17
BRANCH   9  20
ATOM     20  N   UNL     1      -3.577   3.914  -3.840  0.00  0.00    -0.358 N 
ATOM     21  H   UNL     1      -3.532   3.218  -4.690  0.00  0.00    +0.142 HD
ATOM     22  H   UNL     1      -4.205   4.816  -3.900  0.00  0.00    +0.142 HD
ENDBRANCH   9  20
BRANCH  10  23
ATOM     23  C   UNL     1      -2.036   1.665  -3.808  0.00  0.00    +0.101 C 
ATOM     24  N   UNL     1      -1.992   0.972  -4.707  0.00  0.00    -0.191 NA
ENDBRANCH  10  23
BRANCH   8  25
ATOM     25  C   UNL     1      -2.085   5.793  -1.866  0.00  0.00    +0.091 C 
ATOM     26  N   UNL     1      -1.420   6.686  -2.091  0.00  0.00    -0.194 NA
ENDBRANCH   8  25
BRANCH   8  27
ATOM     27  C   UNL     1      -4.339   5.094  -1.448  0.00  0.00    +0.091 C 
ATOM     28  N   UNL     1      -5.414   5.448  -1.351  0.00  0.00    -0.194 NA
ENDBRANCH   8  27
TORSDOF 6
