REMARK  Name = ZINC06924192
REMARK  6 active torsions:
REMARK  status: ('A' for Active; 'I' for Inactive)
REMARK    1  A    between atoms: C_1  and  C_2
REMARK    2  A    between atoms: C_6  and  N_8
REMARK    3  A    between atoms: C_13  and  C_14
REMARK    4  A    between atoms: C_17  and  O_20
REMARK    5  A    between atoms: O_20  and  C_21
REMARK    6  A    between atoms: C_21  and  C_22
REMARK                            x       y       z     vdW  Elec       q    Type
REMARK                         _______ _______ _______ _____ _____    ______ ____
ROOT
ATOM      1  N   UNL     1      -1.035  -2.098   2.954  0.00  0.00    -0.226 NA
ATOM      2  C   UNL     1      -1.581  -3.293   2.982  0.00  0.00    +0.166 C 
ATOM      3  N   UNL     1      -2.445  -3.862   2.072  0.00  0.00    -0.260 N 
ATOM      4  C   UNL     1      -2.905  -5.088   2.254  0.00  0.00    +0.256 C 
ATOM      5  C   UNL     1      -2.449  -5.801   3.462  0.00  0.00    +0.078 C 
ATOM      6  C   UNL     1      -2.757  -7.051   3.893  0.00  0.00    +0.028 C 
ATOM      7  S   UNL     1      -1.377  -4.579   4.204  0.00  0.00    -0.049 S 
ATOM      8  O   UNL     1      -3.670  -5.605   1.460  0.00  0.00    -0.269 OA
ATOM      9  H   UNL     1      -2.720  -3.357   1.290  0.00  0.00    +0.157 HD
ENDROOT
BRANCH   1  15
ATOM     10  C   UNL     1      -2.211   2.400   1.420  0.00  0.00    +0.044 C 
ATOM     11  C   UNL     1      -1.891   0.954   1.141  0.00  0.00    -0.048 A 
ATOM     12  C   UNL     1      -1.880   0.489  -0.163  0.00  0.00    +0.003 A 
ATOM     13  C   UNL     1      -1.588  -0.837  -0.429  0.00  0.00    +0.002 A 
ATOM     14  C   UNL     1      -1.305  -1.705   0.605  0.00  0.00    +0.028 A 
ATOM     15  C   UNL     1      -1.314  -1.242   1.923  0.00  0.00    +0.067 A 
ATOM     16  C   UNL     1      -1.605   0.099   2.184  0.00  0.00    +0.031 A 
ENDBRANCH   1  15
BRANCH   6  17
ATOM     17  C   UNL     1      -2.315  -7.501   5.219  0.00  0.00    -0.024 A 
ATOM     18  C   UNL     1      -1.894  -6.567   6.173  0.00  0.00    +0.011 A 
ATOM     19  C   UNL     1      -1.481  -6.994   7.415  0.00  0.00    +0.046 A 
ATOM     20  C   UNL     1      -1.481  -8.350   7.723  0.00  0.00    +0.121 A 
ATOM     21  C   UNL     1      -1.898  -9.281   6.779  0.00  0.00    +0.046 A 
ATOM     22  C   UNL     1      -2.319  -8.865   5.536  0.00  0.00    +0.011 A 
BRANCH  20  23
ATOM     23  O   UNL     1      -1.072  -8.765   8.949  0.00  0.00    -0.488 OA
BRANCH  23  24
ATOM     24  C   UNL     1      -1.097 -10.172   9.198  0.00  0.00    +0.256 C 
BRANCH  24  25
ATOM     25  C   UNL     1      -0.613 -10.442  10.600  0.00  0.00    +0.006 C 
ATOM     26  C   UNL     1      -1.261 -11.285  11.365  0.00  0.00    +0.007 C 
ENDBRANCH  24  25
ENDBRANCH  23  24
ENDBRANCH  20  23
ENDBRANCH   6  17
TORSDOF 5
