REMARK  Name = ZINC63738778
REMARK  11 active torsions:
REMARK  status: ('A' for Active; 'I' for Inactive)
REMARK    1  A    between atoms: C_1  and  C_2
REMARK    2  A    between atoms: C_2  and  C_4
REMARK    3  A    between atoms: C_2  and  N_12
REMARK    4  A    between atoms: C_4  and  C_5
REMARK    5  A    between atoms: C_5  and  C_6
REMARK    6  A    between atoms: C_13  and  C_15
REMARK    7  A    between atoms: C_15  and  C_17
REMARK    8  A    between atoms: C_15  and  C_18
REMARK    9  A    between atoms: C_24  and  C_26
REMARK   10  A    between atoms: C_32  and  O_36
REMARK   11  A    between atoms: O_36  and  C_37
REMARK                            x       y       z     vdW  Elec       q    Type
REMARK                         _______ _______ _______ _____ _____    ______ ____
ROOT
ATOM      1  C   UNL     1       4.287  -1.129   2.114  0.00  0.00    +0.004 C 
ATOM      2  C   UNL     1       5.026  -1.637   3.354  0.00  0.00    +0.023 C 
ATOM      3  C   UNL     1       6.528  -1.698   3.058  0.00  0.00    +0.108 C 
ATOM      4  N   UNL     1       6.972  -0.378   2.590  0.00  0.00    -0.300 N 
ATOM      5  C   UNL     1       6.268   0.244   1.460  0.00  0.00    +0.108 C 
ATOM      6  C   UNL     1       4.769   0.283   1.773  0.00  0.00    +0.023 C 
ATOM      7  C   UNL     1       8.004   0.250   3.185  0.00  0.00    +0.242 C 
ATOM      8  O   UNL     1       8.577  -0.273   4.118  0.00  0.00    -0.273 OA
ENDROOT
BRANCH   7   9
ATOM      9  C   UNL     1       8.448   1.604   2.693  0.00  0.00    +0.190 C 
ATOM     10  C   UNL     1       8.929   1.507   1.263  0.00  0.00    +0.016 C 
ATOM     11  C   UNL     1      10.225   1.891   1.276  0.00  0.00    -0.003 A 
ATOM     12  C   UNL     1      11.235   2.011   0.216  0.00  0.00    +0.013 A 
ATOM     13  C   UNL     1      12.477   2.431   0.538  0.00  0.00    +0.046 A 
ATOM     14  C   UNL     1      12.826   2.756   1.863  0.00  0.00    +0.122 A 
ATOM     15  C   UNL     1      11.946   2.669   2.892  0.00  0.00    +0.071 A 
ATOM     16  C   UNL     1      10.615   2.239   2.661  0.00  0.00    +0.047 A 
ATOM     17  N   UNL     1       9.596   2.075   3.476  0.00  0.00    -0.370 N 
ATOM     18  H   UNL     1       9.602   2.238   4.432  0.00  0.00    +0.161 HD
BRANCH  14  19
ATOM     19  O   UNL     1      14.091   3.172   2.120  0.00  0.00    -0.495 OA
ATOM     20  C   UNL     1      14.987   3.250   1.010  0.00  0.00    +0.277 C 
ENDBRANCH  14  19
ENDBRANCH   7   9
BRANCH   1  21
ATOM     21  C   UNL     1       2.783  -1.099   2.395  0.00  0.00    +0.075 C 
ATOM     22  C   UNL     1       2.300  -2.510   2.736  0.00  0.00    +0.017 C 
BRANCH  21  24
ATOM     23  N   UNL     1       0.711  -0.489   1.189  0.00  0.00    -0.312 N 
ATOM     24  C   UNL     1       2.054  -0.600   1.174  0.00  0.00    +0.216 C 
ATOM     25  O   UNL     1       2.676  -0.297   0.177  0.00  0.00    -0.276 OA
ATOM     26  H   UNL     1       0.213  -0.731   1.986  0.00  0.00    +0.149 HD
BRANCH  23  28
ATOM     27  C   UNL     1      -0.019   1.526   0.010  0.00  0.00    +0.028 C 
ATOM     28  C   UNL     1       0.002  -0.004   0.002  0.00  0.00    +0.070 C 
BRANCH  28  29
ATOM     29  C   UNL     1      -1.433  -0.534   0.013  0.00  0.00    +0.026 C 
BRANCH  29  30
ATOM     30  C   UNL     1      -1.416  -2.058  -0.121  0.00  0.00    +0.037 C 
BRANCH  30  31
ATOM     31  C   UNL     1      -2.829  -2.579  -0.111  0.00  0.00    -0.047 A 
ATOM     32  C   UNL     1      -3.432  -2.917   1.087  0.00  0.00    +0.003 A 
ATOM     33  C   UNL     1      -4.729  -3.396   1.096  0.00  0.00    +0.000 A 
ATOM     34  C   UNL     1      -5.423  -3.536  -0.091  0.00  0.00    +0.000 A 
ATOM     35  C   UNL     1      -4.821  -3.197  -1.288  0.00  0.00    +0.000 A 
ATOM     36  C   UNL     1      -3.525  -2.714  -1.297  0.00  0.00    +0.003 A 
ENDBRANCH  30  31
ENDBRANCH  29  30
ENDBRANCH  28  29
ENDBRANCH  23  28
ENDBRANCH  21  24
ENDBRANCH   1  21
TORSDOF 8
