REMARK  Name = ZINC03010143
REMARK  4 active torsions:
REMARK  status: ('A' for Active; 'I' for Inactive)
REMARK    1  A    between atoms: C_3  and  C_18
REMARK    2  A    between atoms: C_5  and  C_11
REMARK    3  A    between atoms: C_14  and  O_17
REMARK    4  A    between atoms: N_20  and  C_21
REMARK                            x       y       z     vdW  Elec       q    Type
REMARK                         _______ _______ _______ _____ _____    ______ ____
ROOT
ATOM      1  C   UNL     1      -3.480  -1.691   1.874  0.00  0.00    +0.029 C 
ATOM      2  C   UNL     1      -2.830  -2.824   1.693  0.00  0.00    +0.019 C 
ATOM      3  C   UNL     1      -1.862  -3.005   0.541  0.00  0.00    +0.143 C 
ATOM      4  C   UNL     1      -2.200  -4.336  -0.144  0.00  0.00    +0.122 C 
ATOM      5  N   UNL     1      -2.303  -5.390   0.864  0.00  0.00    -0.291 N 
ATOM      6  C   UNL     1      -2.721  -5.151   2.114  0.00  0.00    +0.304 C 
ATOM      7  O   UNL     1      -2.849  -6.088   2.878  0.00  0.00    -0.253 OA
ATOM      8  N   UNL     1      -3.004  -3.912   2.556  0.00  0.00    -0.273 N 
ATOM      9  H   UNL     1      -2.059  -6.296   0.619  0.00  0.00    +0.151 HD
ATOM     10  H   UNL     1      -3.325  -3.774   3.461  0.00  0.00    +0.156 HD
ENDROOT
BRANCH   4  11
ATOM     11  C   UNL     1      -1.114  -4.686  -1.128  0.00  0.00    -0.026 A 
ATOM     12  C   UNL     1      -1.335  -4.534  -2.484  0.00  0.00    +0.009 A 
ATOM     13  C   UNL     1      -0.339  -4.848  -3.387  0.00  0.00    +0.046 A 
ATOM     14  C   UNL     1       0.881  -5.327  -2.933  0.00  0.00    +0.117 A 
ATOM     15  C   UNL     1       1.099  -5.484  -1.572  0.00  0.00    +0.046 A 
ATOM     16  C   UNL     1       0.101  -5.163  -0.673  0.00  0.00    +0.009 A 
BRANCH  14  17
ATOM     17  O   UNL     1       1.861  -5.643  -3.820  0.00  0.00    -0.507 OA
ATOM     18  H   UNL     1       1.837  -6.561  -4.123  0.00  0.00    +0.292 HD
ENDBRANCH  14  17
ENDBRANCH   4  11
BRANCH   3  19
ATOM     19  C   UNL     1      -0.448  -3.043   1.061  0.00  0.00    +0.228 C 
ATOM     20  O   UNL     1      -0.139  -3.845   1.918  0.00  0.00    -0.275 OA
ATOM     21  N   UNL     1       0.473  -2.187   0.575  0.00  0.00    -0.285 N 
ATOM     22  H   UNL     1       0.219  -1.529  -0.090  0.00  0.00    +0.155 HD
BRANCH  21  23
ATOM     23  C   UNL     1       1.794  -2.248   1.031  0.00  0.00    +0.033 A 
ATOM     24  C   UNL     1       2.844  -2.002   0.156  0.00  0.00    +0.024 A 
ATOM     25  C   UNL     1       4.147  -2.063   0.609  0.00  0.00    +0.017 A 
ATOM     26  C   UNL     1       4.408  -2.368   1.933  0.00  0.00    +0.018 A 
ATOM     27  C   UNL     1       3.364  -2.612   2.808  0.00  0.00    +0.017 A 
ATOM     28  C   UNL     1       2.058  -2.554   2.360  0.00  0.00    +0.024 A 
ATOM     29 BR   UNL     1       6.194  -2.449   2.550  0.00  0.00    -0.050 Br
ENDBRANCH  21  23
ENDBRANCH   3  19
TORSDOF 4
