REMARK  Name = ZINC58232429
REMARK  6 active torsions:
REMARK  status: ('A' for Active; 'I' for Inactive)
REMARK    1  A    between atoms: C_1  and  C_2
REMARK    2  A    between atoms: C_6  and  C_27
REMARK    3  A    between atoms: C_7  and  C_12
REMARK    4  A    between atoms: C_8  and  C_11
REMARK    5  A    between atoms: C_12  and  C_13
REMARK    6  A    between atoms: C_13  and  C_14
REMARK                            x       y       z     vdW  Elec       q    Type
REMARK                         _______ _______ _______ _____ _____    ______ ____
ROOT
ATOM      1  C   UNL     1      -1.342  -6.296   1.548  0.00  0.00    +0.101 C 
ENDROOT
BRANCH   1   2
ATOM      2  C   UNL     1      -1.321  -7.610   2.285  0.00  0.00    +0.219 C 
ATOM      3  O   UNL     1      -0.267  -8.080   2.657  0.00  0.00    -0.275 OA
ATOM      4  N   UNL     1      -2.475  -8.263   2.531  0.00  0.00    -0.265 N 
ATOM      5  C   UNL     1      -2.455  -9.469   3.208  0.00  0.00    +0.165 A 
ATOM      6  N   UNL     1      -3.480 -10.242   3.529  0.00  0.00    -0.229 NA
ATOM      7  C   UNL     1      -3.326 -11.372   4.177  0.00  0.00    +0.061 A 
ATOM      8  C   UNL     1      -1.996 -11.680   4.491  0.00  0.00    +0.079 A 
ATOM      9  S   UNL     1      -1.121 -10.303   3.812  0.00  0.00    -0.049 S 
ATOM     10  C   UNL     1      -1.570 -12.819   5.165  0.00  0.00    +0.172 C 
ATOM     11  O   UNL     1      -0.396 -13.003   5.419  0.00  0.00    -0.291 OA
ATOM     12  C   UNL     1      -2.635 -13.822   5.570  0.00  0.00    +0.080 C 
ATOM     13  C   UNL     1      -3.947 -13.087   5.845  0.00  0.00    +0.014 C 
ATOM     14  C   UNL     1      -4.426 -12.333   4.601  0.00  0.00    +0.057 C 
ATOM     15  H   UNL     1      -3.318  -7.887   2.234  0.00  0.00    +0.157 HD
ENDBRANCH   1   2
BRANCH   1  16
ATOM     16  C   UNL     1       0.087  -5.771   1.402  0.00  0.00    +0.048 C 
BRANCH  16  23
ATOM     17  C   UNL     1      -0.018   1.503   0.010  0.00  0.00    +0.067 C 
ATOM     18  C   UNL     1       0.002  -0.004   0.002  0.00  0.00    +0.062 A 
ATOM     19  C   UNL     1       0.008  -0.803  -1.131  0.00  0.00    +0.073 A 
ATOM     20  C   UNL     1       0.028  -2.127  -0.713  0.00  0.00    +0.156 A 
ATOM     21  N   UNL     1       0.041  -3.289  -1.380  0.00  0.00    -0.233 NA
ATOM     22  C   UNL     1       0.060  -4.433  -0.738  0.00  0.00    +0.045 A 
ATOM     23  C   UNL     1       0.067  -4.457   0.664  0.00  0.00    -0.005 A 
ATOM     24  C   UNL     1       0.054  -3.288   1.351  0.00  0.00    +0.047 A 
ATOM     25  N   UNL     1       0.035  -2.111   0.659  0.00  0.00    -0.218 N 
ATOM     26  N   UNL     1       0.023  -0.773   1.067  0.00  0.00    -0.170 NA
ATOM     27  C   UNL     1       0.060  -3.288   2.858  0.00  0.00    +0.066 C 
ATOM     28  C   UNL     1       0.074  -5.727  -1.510  0.00  0.00    +0.066 C 
ENDBRANCH  16  23
ENDBRANCH   1  16
TORSDOF 3
