REMARK  Name = ZINC39660387
REMARK  10 active torsions:
REMARK  status: ('A' for Active; 'I' for Inactive)
REMARK    1  A    between atoms: C_1  and  C_2
REMARK    2  A    between atoms: C_2  and  C_3
REMARK    3  A    between atoms: C_3  and  C_4
REMARK    4  A    between atoms: C_4  and  C_5
REMARK    5  A    between atoms: C_5  and  C_6
REMARK    6  A    between atoms: C_6  and  N_7
REMARK    7  A    between atoms: C_8  and  C_10
REMARK    8  A    between atoms: C_21  and  C_23
REMARK    9  A    between atoms: C_28  and  S_29
REMARK   10  A    between atoms: S_29  and  C_30
REMARK                            x       y       z     vdW  Elec       q    Type
REMARK                         _______ _______ _______ _____ _____    ______ ____
ROOT
ATOM      1  C   UNL     1       3.597  -6.473  -5.312  0.00  0.00    +0.100 C 
ATOM      2  C   UNL     1       2.617  -6.035  -6.423  0.00  0.00    +0.121 C 
ATOM      3  N   UNL     1       2.555  -7.193  -7.346  0.00  0.00    -0.296 N 
ATOM      4  C   UNL     1       2.563  -8.377  -6.454  0.00  0.00    +0.115 C 
ATOM      5  C   UNL     1       3.559  -8.011  -5.335  0.00  0.00    -0.004 C 
ATOM      6  C   UNL     1       3.066  -8.547  -3.994  0.00  0.00    -0.010 C 
ATOM      7  C   UNL     1       3.091 -10.078  -4.021  0.00  0.00    -0.082 C 
ATOM      8  N   UNL     1       4.459 -10.541  -4.283  0.00  0.00    +0.379 N 
ATOM      9  C   UNL     1       4.891 -10.099  -5.615  0.00  0.00    -0.082 C 
ATOM     10  C   UNL     1       4.942  -8.569  -5.655  0.00  0.00    -0.010 C 
ATOM     11  C   UNL     1       2.504  -7.173  -8.693  0.00  0.00    +0.249 C 
ATOM     12  O   UNL     1       2.360  -8.211  -9.310  0.00  0.00    -0.270 OA
ATOM     13  H   UNL     1       5.081 -10.161  -3.586  0.00  0.00    -0.086 HD
ATOM     14  H   UNL     1       4.486 -11.549  -4.240  0.00  0.00    -0.086 HD
ENDROOT
BRANCH  11  15
ATOM     15  C   UNL     1       2.623  -5.895  -9.416  0.00  0.00    +0.069 A 
ATOM     16  C   UNL     1       2.076  -4.721  -8.885  0.00  0.00    +0.017 A 
ATOM     17  C   UNL     1       2.215  -3.547  -9.603  0.00  0.00    +0.020 A 
ATOM     18  C   UNL     1       2.884  -3.564 -10.815  0.00  0.00    +0.112 A 
ATOM     19  N   UNL     1       3.392  -4.680 -11.299  0.00  0.00    -0.248 NA
ATOM     20  C   UNL     1       3.293  -5.831 -10.651  0.00  0.00    +0.114 A 
BRANCH  20  21
ATOM     21  S   UNL     1       3.998  -7.290 -11.342  0.00  0.00    -0.069 S 
BRANCH  21  22
ATOM     22  C   UNL     1       4.573  -6.776 -12.927  0.00  0.00    +0.014 A 
ATOM     23  C   UNL     1       5.895  -6.381 -13.093  0.00  0.00    +0.015 A 
ATOM     24  C   UNL     1       6.343  -5.979 -14.336  0.00  0.00    +0.001 A 
ATOM     25  C   UNL     1       5.477  -5.970 -15.414  0.00  0.00    +0.000 A 
ATOM     26  C   UNL     1       4.161  -6.362 -15.252  0.00  0.00    +0.001 A 
ATOM     27  C   UNL     1       3.708  -6.771 -14.014  0.00  0.00    +0.015 A 
ENDBRANCH  21  22
ENDBRANCH  20  21
ENDBRANCH  11  15
BRANCH   1  29
ATOM     28  N   UNL     1       4.040  -5.699  -3.005  0.00  0.00    -0.315 N 
ATOM     29  C   UNL     1       3.138  -5.957  -3.973  0.00  0.00    +0.218 C 
ATOM     30  O   UNL     1       1.957  -5.773  -3.766  0.00  0.00    -0.275 OA
ATOM     31  H   UNL     1       4.984  -5.846  -3.170  0.00  0.00    +0.149 HD
BRANCH  28  32
ATOM     32  C   UNL     1       3.593  -5.197  -1.703  0.00  0.00    +0.104 C 
BRANCH  32  33
ATOM     33  C   UNL     1       4.806  -4.989  -0.793  0.00  0.00    +0.019 C 
BRANCH  33  34
ATOM     34  C   UNL     1       4.339  -4.464   0.566  0.00  0.00    +0.002 C 
BRANCH  34  35
ATOM     35  C   UNL     1       5.552  -4.256   1.476  0.00  0.00    -0.000 C 
BRANCH  35  37
ATOM     36  C   UNL     1       6.298  -3.524   3.745  0.00  0.00    +0.004 C 
ATOM     37  C   UNL     1       5.086  -3.732   2.835  0.00  0.00    -0.003 C 
ENDBRANCH  35  37
ENDBRANCH  34  35
ENDBRANCH  33  34
ENDBRANCH  32  33
ENDBRANCH  28  32
ENDBRANCH   1  29
TORSDOF 9
