REMARK  Name = ZINC38675820
REMARK  9 active torsions:
REMARK  status: ('A' for Active; 'I' for Inactive)
REMARK    1  A    between atoms: C_1  and  C_2
REMARK    2  A    between atoms: C_2  and  O_3
REMARK    3  A    between atoms: O_3  and  C_4
REMARK    4  A    between atoms: C_9  and  N_10
REMARK    5  A    between atoms: C_14  and  C_15
REMARK    6  A    between atoms: C_17  and  C_25
REMARK    7  A    between atoms: C_25  and  C_26
REMARK    8  A    between atoms: C_26  and  N_27
REMARK    9  A    between atoms: C_28  and  C_30
REMARK                            x       y       z     vdW  Elec       q    Type
REMARK                         _______ _______ _______ _____ _____    ______ ____
ROOT
ATOM      1  N   UNL     1       3.935   3.616  -3.115  0.00  0.00    -0.185 N 
ATOM      2  C   UNL     1       4.571   2.425  -3.081  0.00  0.00    +0.263 C 
ATOM      3  O   UNL     1       5.236   2.093  -2.119  0.00  0.00    -0.269 OA
ATOM      4  C   UNL     1       4.428   1.535  -4.260  0.00  0.00    +0.100 C 
ATOM      5  C   UNL     1       5.030   0.325  -4.310  0.00  0.00    +0.020 C 
ATOM      6  C   UNL     1       3.597   2.034  -5.377  0.00  0.00    +0.276 C 
ATOM      7  O   UNL     1       3.413   1.291  -6.487  0.00  0.00    -0.268 OA
ATOM      8  N   UNL     1       3.039   3.224  -5.260  0.00  0.00    -0.123 NA
ATOM      9  C   UNL     1       3.197   3.979  -4.174  0.00  0.00    +0.340 C 
ATOM     10  O   UNL     1       2.644   5.063  -4.143  0.00  0.00    -0.250 OA
ENDROOT
BRANCH   5  11
ATOM     11  C   UNL     1       6.034  -0.062  -3.255  0.00  0.00    +0.130 C 
ATOM     12  C   UNL     1       7.288  -0.604  -3.903  0.00  0.00    -0.033 C 
ATOM     13  C   UNL     1       7.419  -1.875  -3.461  0.00  0.00    -0.000 A 
ATOM     14  C   UNL     1       8.416  -2.921  -3.720  0.00  0.00    +0.010 A 
ATOM     15  C   UNL     1       8.277  -4.124  -3.119  0.00  0.00    +0.001 A 
ATOM     16  C   UNL     1       7.205  -4.398  -2.257  0.00  0.00    +0.002 A 
ATOM     17  C   UNL     1       6.250  -3.489  -1.970  0.00  0.00    +0.026 A 
ATOM     18  C   UNL     1       6.297  -2.190  -2.547  0.00  0.00    +0.043 A 
ATOM     19  N   UNL     1       5.503  -1.151  -2.428  0.00  0.00    -0.374 N 
ATOM     20  H   UNL     1       4.701  -1.110  -1.884  0.00  0.00    +0.161 HD
BRANCH  12  21
ATOM     21  C   UNL     1       8.207   0.125  -4.849  0.00  0.00    +0.052 C 
BRANCH  21  22
ATOM     22  C   UNL     1       9.354  -0.800  -5.261  0.00  0.00    +0.108 C 
BRANCH  22  23
ATOM     23  N   UNL     1      10.247  -0.091  -6.181  0.00  0.00    -0.315 N 
ATOM     24  C   UNL     1      11.334  -0.713  -6.678  0.00  0.00    +0.210 C 
ATOM     25  O   UNL     1      11.573  -1.860  -6.364  0.00  0.00    -0.276 OA
ATOM     26  C   UNL     1      12.253   0.016  -7.624  0.00  0.00    +0.109 C 
ATOM     27  H   UNL     1      10.056   0.826  -6.431  0.00  0.00    +0.149 HD
ENDBRANCH  22  23
ENDBRANCH  21  22
ENDBRANCH  12  21
ENDBRANCH   5  11
BRANCH   1  33
ATOM     28  C   UNL     1       5.069   5.429  -1.977  0.00  0.00    +0.142 A 
ATOM     29  C   UNL     1       5.169   6.290  -0.896  0.00  0.00    +0.047 A 
ATOM     30  C   UNL     1       4.256   6.209   0.139  0.00  0.00    +0.004 A 
ATOM     31  C   UNL     1       3.242   5.270   0.099  0.00  0.00    +0.002 A 
ATOM     32  C   UNL     1       3.135   4.408  -0.975  0.00  0.00    +0.028 A 
ATOM     33  C   UNL     1       4.044   4.487  -2.020  0.00  0.00    +0.087 A 
BRANCH  28  34
ATOM     34  O   UNL     1       5.966   5.508  -2.996  0.00  0.00    -0.490 OA
BRANCH  34  36
ATOM     35  C   UNL     1       7.897   6.436  -4.114  0.00  0.00    +0.048 C 
ATOM     36  C   UNL     1       6.990   6.498  -2.884  0.00  0.00    +0.226 C 
ENDBRANCH  34  36
ENDBRANCH  28  34
ENDBRANCH   1  33
TORSDOF 7
