REMARK  Name = ZINC22454041
REMARK  5 active torsions:
REMARK  status: ('A' for Active; 'I' for Inactive)
REMARK    1  A    between atoms: C_1  and  C_2
REMARK    2  A    between atoms: C_7  and  C_21
REMARK    3  A    between atoms: C_16  and  C_18
REMARK    4  A    between atoms: C_18  and  O_19
REMARK    5  A    between atoms: O_19  and  C_20
REMARK                            x       y       z     vdW  Elec       q    Type
REMARK                         _______ _______ _______ _____ _____    ______ ____
ROOT
ATOM      1  C   UNL     1      -0.963  -1.975   1.120  0.00  0.00    +0.028 C 
ATOM      2  C   UNL     1       0.446  -2.571   1.117  0.00  0.00    +0.073 C 
ATOM      3  C   UNL     1       0.358  -4.091   1.270  0.00  0.00    +0.022 C 
ATOM      4  C   UNL     1       1.769  -4.684   1.246  0.00  0.00    +0.004 C 
ATOM      5  C   UNL     1       2.459  -4.288  -0.062  0.00  0.00    +0.022 C 
ATOM      6  C   UNL     1       2.486  -2.762  -0.177  0.00  0.00    +0.073 C 
ATOM      7  N   UNL     1       1.113  -2.243  -0.150  0.00  0.00    -0.296 N 
ATOM      8  C   UNL     1       1.094  -0.894  -0.379  0.00  0.00    +0.199 A 
ATOM      9  N   UNL     1       1.290  -0.036   0.658  0.00  0.00    -0.295 N 
ATOM     10  H   UNL     1       1.463  -0.429   1.671  0.00  0.00    +0.172 HD
ATOM     11  C   UNL     1       1.272   1.296   0.440  0.00  0.00    +0.253 A 
ATOM     12  O   UNL     1       1.442   2.079   1.360  0.00  0.00    -0.268 OA
ATOM     13  C   UNL     1       1.049   1.763  -0.868  0.00  0.00    +0.095 A 
ATOM     14  C   UNL     1       0.858   0.856  -1.869  0.00  0.00    +0.075 A 
ATOM     15  N   UNL     1       0.885  -0.448  -1.602  0.00  0.00    -0.218 NA
ATOM     16  C   UNL     1       3.275  -2.177   0.997  0.00  0.00    +0.028 C 
ENDROOT
BRANCH  14  17
ATOM     17  C   UNL     1       0.617   1.331  -3.279  0.00  0.00    +0.215 C 
BRANCH  17  18
ATOM     18  O   UNL     1       0.634   2.759  -3.309  0.00  0.00    -0.377 OA
ATOM     19  C   UNL     1       0.414   3.315  -4.607  0.00  0.00    +0.194 C 
ENDBRANCH  17  18
ENDBRANCH  14  17
TORSDOF 2
