REMARK  Name = ZINC39467501
REMARK  5 active torsions:
REMARK  status: ('A' for Active; 'I' for Inactive)
REMARK    1  A    between atoms: C_1  and  C_2
REMARK    2  A    between atoms: C_2  and  O_3
REMARK    3  A    between atoms: O_3  and  C_4
REMARK    4  A    between atoms: P_13  and  C_23
REMARK    5  A    between atoms: C_28  and  O_29
REMARK                            x       y       z     vdW  Elec       q    Type
REMARK                         _______ _______ _______ _____ _____    ______ ____
ROOT
ATOM      1  C   UNL     1      -1.498  -1.848   0.006  0.00  0.00    +0.152 C 
ATOM      2  C   UNL     1      -0.431  -2.650  -0.003  0.00  0.00    +0.025 C 
ATOM      3  C   UNL     1      -0.624  -4.148   0.002  0.00  0.00    +0.019 C 
ATOM      4  C   UNL     1      -0.916  -4.610  -1.426  0.00  0.00    -0.002 C 
ATOM      5  C   UNL     1      -1.247  -6.107  -1.450  0.00  0.00    -0.020 C 
ATOM      6  C   UNL     1      -1.526  -6.484  -2.911  0.00  0.00    +0.157 C 
ATOM      7  O   UNL     1      -1.792  -7.895  -3.001  0.00  0.00    -0.316 OA
ATOM      8  P   UNL     1      -2.897  -8.521  -1.984  0.00  0.00    +0.291 P 
ATOM      9  O   UNL     1      -2.674  -9.975  -1.816  0.00  0.00    -0.269 OA
ATOM     10  N   UNL     1      -2.659  -7.737  -0.551  0.00  0.00    -0.288 NA
ATOM     11  N   UNL     1      -2.406  -6.382  -0.599  0.00  0.00    +0.398 N 
ATOM     12  C   UNL     1      -2.130  -5.977   0.789  0.00  0.00    -0.046 C 
ATOM     13  C   UNL     1      -1.820  -4.489   0.895  0.00  0.00    +0.007 C 
ATOM     14  C   UNL     1      -3.018  -3.689   0.459  0.00  0.00    +0.017 C 
ATOM     15  C   UNL     1      -2.854  -2.435   0.016  0.00  0.00    +0.161 C 
ATOM     16  F   UNL     1      -3.915  -1.707  -0.397  0.00  0.00    -0.202 F 
ATOM     17  H   UNL     1      -2.699  -8.213   0.293  0.00  0.00    +0.111 HD
ATOM     18  H   UNL     1      -3.214  -5.893  -0.955  0.00  0.00    -0.055 HD
ENDROOT
BRANCH   8  19
ATOM     19  C   UNL     1      -4.572  -8.211  -2.605  0.00  0.00    +0.091 A 
ATOM     20  C   UNL     1      -5.240  -7.056  -2.245  0.00  0.00    +0.018 A 
ATOM     21  C   UNL     1      -6.518  -6.819  -2.718  0.00  0.00    +0.001 A 
ATOM     22  C   UNL     1      -7.130  -7.736  -3.553  0.00  0.00    +0.004 A 
ATOM     23  C   UNL     1      -6.466  -8.891  -3.917  0.00  0.00    +0.046 A 
ATOM     24  C   UNL     1      -5.182  -9.129  -3.448  0.00  0.00    +0.131 A 
BRANCH  24  25
ATOM     25  O   UNL     1      -4.524 -10.262  -3.809  0.00  0.00    -0.506 OA
ATOM     26  H   UNL     1      -4.671 -11.009  -3.212  0.00  0.00    +0.292 HD
ENDBRANCH  24  25
ENDBRANCH   8  19
BRANCH   1  27
ATOM     27  O   UNL     1      -1.339  -0.499   0.012  0.00  0.00    -0.490 OA
BRANCH  27  29
ATOM     28  C   UNL     1      -0.019   1.526   0.010  0.00  0.00    +0.048 C 
ATOM     29  C   UNL     1       0.002  -0.004   0.002  0.00  0.00    +0.226 C 
ENDBRANCH  27  29
ENDBRANCH   1  27
TORSDOF 4
