REMARK  Name = ZINC51599581
REMARK  9 active torsions:
REMARK  status: ('A' for Active; 'I' for Inactive)
REMARK    1  A    between atoms: C_1  and  C_2
REMARK    2  A    between atoms: C_2  and  N_3
REMARK    3  A    between atoms: N_3  and  C_4
REMARK    4  A    between atoms: C_4  and  C_6
REMARK    5  A    between atoms: C_4  and  C_12
REMARK    6  A    between atoms: C_14  and  C_21
REMARK    7  A    between atoms: C_17  and  O_18
REMARK    8  A    between atoms: O_18  and  C_19
REMARK    9  A    between atoms: C_19  and  C_20
REMARK                            x       y       z     vdW  Elec       q    Type
REMARK                         _______ _______ _______ _____ _____    ______ ____
ROOT
ATOM      1  C   UNL     1       0.710  -1.947  -1.215  0.00  0.00    +0.030 C 
ENDROOT
BRANCH   1   2
ATOM      2  C   UNL     1      -0.700  -2.467  -1.328  0.00  0.00    -0.012 A 
ATOM      3  C   UNL     1      -1.680  -1.688  -1.911  0.00  0.00    +0.009 A 
ATOM      4  C   UNL     1      -2.974  -2.165  -2.015  0.00  0.00    -0.050 A 
ATOM      5  C   UNL     1      -3.290  -3.423  -1.536  0.00  0.00    +0.007 A 
ATOM      6  C   UNL     1      -2.313  -4.207  -0.952  0.00  0.00    +0.046 A 
ATOM      7  C   UNL     1      -1.013  -3.732  -0.851  0.00  0.00    +0.122 A 
ATOM      8  C   UNL     1      -4.041  -1.313  -2.651  0.00  0.00    +0.044 C 
BRANCH   7   9
ATOM      9  O   UNL     1      -0.049  -4.503  -0.283  0.00  0.00    -0.492 OA
BRANCH   9  10
ATOM     10  C   UNL     1      -0.444  -5.794   0.186  0.00  0.00    +0.225 C 
ATOM     11  C   UNL     1       0.767  -6.509   0.790  0.00  0.00    +0.048 C 
ENDBRANCH   9  10
ENDBRANCH   7   9
ENDBRANCH   1   2
BRANCH   1  12
ATOM     12  C   UNL     1       1.520  -2.432  -2.389  0.00  0.00    +0.097 A 
ATOM     13  C   UNL     1       2.370  -3.474  -2.381  0.00  0.00    +0.044 A 
ATOM     14  C   UNL     1       2.910  -3.572  -3.684  0.00  0.00    +0.057 A 
ATOM     15  C   UNL     1       2.357  -2.584  -4.411  0.00  0.00    +0.170 A 
ATOM     16  O   UNL     1       1.511  -1.900  -3.623  0.00  0.00    -0.454 OA
ATOM     17 BR   UNL     1       2.705  -2.224  -6.235  0.00  0.00    -0.008 Br
ENDBRANCH   1  12
BRANCH   1  18
ATOM     18  N   UNL     1       0.690  -0.478  -1.207  0.00  0.00    +0.388 N 
ATOM     19  H   UNL     1       0.202  -0.144  -2.024  0.00  0.00    -0.084 HD
ATOM     20  H   UNL     1       1.636  -0.129  -1.214  0.00  0.00    -0.084 HD
BRANCH  18  22
ATOM     21  C   UNL     1      -0.019   1.526   0.010  0.00  0.00    -0.017 C 
ATOM     22  C   UNL     1       0.002  -0.004   0.002  0.00  0.00    -0.085 C 
ENDBRANCH  18  22
ENDBRANCH   1  18
TORSDOF 6
