REMARK  Name = ZINC08790762
REMARK  9 active torsions:
REMARK  status: ('A' for Active; 'I' for Inactive)
REMARK    1  A    between atoms: C_1  and  C_2
REMARK    2  A    between atoms: C_4  and  C_35
REMARK    3  A    between atoms: C_13  and  C_15
REMARK    4  A    between atoms: C_15  and  C_16
REMARK    5  A    between atoms: C_16  and  S_17
REMARK    6  A    between atoms: S_17  and  C_18
REMARK    7  A    between atoms: N_21  and  C_24
REMARK    8  A    between atoms: C_24  and  C_25
REMARK    9  A    between atoms: C_25  and  C_26
REMARK                            x       y       z     vdW  Elec       q    Type
REMARK                         _______ _______ _______ _____ _____    ______ ____
ROOT
ATOM      1  C   UNL     1      -5.414   2.454   0.403  0.00  0.00    +0.044 C 
ATOM      2  C   UNL     1      -4.398   1.834  -0.522  0.00  0.00    -0.050 A 
ATOM      3  C   UNL     1      -4.812   1.038  -1.574  0.00  0.00    +0.008 A 
ATOM      4  C   UNL     1      -3.887   0.470  -2.424  0.00  0.00    -0.029 A 
ATOM      5  C   UNL     1      -2.526   0.693  -2.228  0.00  0.00    +0.039 A 
ATOM      6  C   UNL     1      -2.120   1.493  -1.164  0.00  0.00    -0.027 A 
ATOM      7  C   UNL     1      -3.048   2.060  -0.319  0.00  0.00    +0.008 A 
ATOM      8  C   UNL     1      -0.620   1.532  -1.228  0.00  0.00    +0.050 C 
ATOM      9  C   UNL     1      -0.099   2.966  -1.376  0.00  0.00    +0.088 C 
ATOM     10  C   UNL     1       1.217   2.992  -0.549  0.00  0.00    +0.073 C 
ATOM     11  C   UNL     1       1.369   1.557  -0.003  0.00  0.00    -0.057 C 
ATOM     12  C   UNL     1       2.280   3.240  -1.595  0.00  0.00    +0.224 C 
ATOM     13  O   UNL     1       3.469   3.336  -1.377  0.00  0.00    -0.275 OA
ATOM     14  N   UNL     1       1.706   3.336  -2.800  0.00  0.00    -0.241 N 
ATOM     15  C   UNL     1       0.375   3.196  -2.793  0.00  0.00    +0.225 C 
ATOM     16  O   UNL     1      -0.340   3.246  -3.771  0.00  0.00    -0.275 OA
ATOM     17  C   UNL     1      -0.257   0.688  -2.420  0.00  0.00    +0.211 C 
ATOM     18  O   UNL     1       0.861   0.459  -2.832  0.00  0.00    -0.277 OA
ATOM     19  N   UNL     1      -1.414   0.238  -2.942  0.00  0.00    -0.286 N 
ATOM     20  C   UNL     1      -4.349  -0.396  -3.568  0.00  0.00    +0.045 C 
ATOM     21  H   UNL     1      -1.470  -0.335  -3.722  0.00  0.00    +0.155 HD
ATOM     22  N   UNL     1       0.004   1.027  -0.018  0.00  0.00    +0.394 N 
ATOM     23  H   UNL     1       0.022   0.000  -0.029  0.00  0.00    -0.083 HD
ATOM     24  H   UNL     1      -0.512   1.351   0.809  0.00  0.00    -0.083 HD
ENDROOT
BRANCH  11  25
ATOM     25  C   UNL     1       1.943   1.582   1.415  0.00  0.00    -0.004 C 
BRANCH  25  26
ATOM     26  C   UNL     1       2.129   0.148   1.916  0.00  0.00    +0.067 C 
BRANCH  26  27
ATOM     27  S   UNL     1       2.809   0.178   3.598  0.00  0.00    -0.164 S 
ATOM     28  C   UNL     1       2.967  -1.574   4.038  0.00  0.00    +0.084 C 
ENDBRANCH  26  27
ENDBRANCH  25  26
ENDBRANCH  11  25
BRANCH  14  29
ATOM     29  C   UNL     1       2.471   3.575  -4.026  0.00  0.00    +0.121 C 
BRANCH  29  30
ATOM     30  C   UNL     1       2.589   5.081  -4.269  0.00  0.00    +0.054 C 
BRANCH  30  31
ATOM     31  C   UNL     1       3.376   5.326  -5.530  0.00  0.00    -0.046 A 
ATOM     32  C   UNL     1       4.750   5.468  -5.471  0.00  0.00    +0.004 A 
ATOM     33  C   UNL     1       5.472   5.689  -6.629  0.00  0.00    +0.000 A 
ATOM     34  C   UNL     1       4.820   5.777  -7.844  0.00  0.00    +0.000 A 
ATOM     35  C   UNL     1       3.446   5.640  -7.903  0.00  0.00    +0.000 A 
ATOM     36  C   UNL     1       2.724   5.415  -6.746  0.00  0.00    +0.004 A 
ENDBRANCH  30  31
ENDBRANCH  29  30
ENDBRANCH  14  29
TORSDOF 6
