REMARK  Name = ZINC39678429
REMARK  6 active torsions:
REMARK  status: ('A' for Active; 'I' for Inactive)
REMARK    1  A    between atoms: C_3  and  C_11
REMARK    2  A    between atoms: C_5  and  O_7
REMARK    3  A    between atoms: O_7  and  C_8
REMARK    4  A    between atoms: C_11  and  N_12
REMARK    5  A    between atoms: C_13  and  C_15
REMARK    6  A    between atoms: C_26  and  C_28
REMARK                            x       y       z     vdW  Elec       q    Type
REMARK                         _______ _______ _______ _____ _____    ______ ____
ROOT
ATOM      1  C   UNL     1       5.686   3.366   3.014  0.00  0.00    +0.100 C 
ATOM      2  C   UNL     1       5.857   2.028   3.769  0.00  0.00    +0.121 C 
ATOM      3  N   UNL     1       7.298   1.707   3.639  0.00  0.00    -0.296 N 
ATOM      4  C   UNL     1       7.982   3.014   3.788  0.00  0.00    +0.115 C 
ATOM      5  C   UNL     1       7.081   4.011   3.032  0.00  0.00    -0.004 C 
ATOM      6  C   UNL     1       7.592   4.206   1.607  0.00  0.00    -0.010 C 
ATOM      7  C   UNL     1       8.956   4.901   1.649  0.00  0.00    -0.082 C 
ATOM      8  N   UNL     1       8.826   6.197   2.325  0.00  0.00    +0.379 N 
ATOM      9  C   UNL     1       8.424   5.995   3.723  0.00  0.00    -0.082 C 
ATOM     10  C   UNL     1       7.037   5.346   3.768  0.00  0.00    -0.010 C 
ATOM     11  C   UNL     1       7.860   0.500   3.432  0.00  0.00    +0.249 C 
ATOM     12  O   UNL     1       9.069   0.398   3.347  0.00  0.00    -0.270 OA
ATOM     13  H   UNL     1       9.712   6.679   2.298  0.00  0.00    -0.086 HD
ATOM     14  H   UNL     1       8.129   6.753   1.853  0.00  0.00    -0.086 HD
ENDROOT
BRANCH  11  15
ATOM     15  C   UNL     1       7.008  -0.700   3.307  0.00  0.00    +0.073 A 
ATOM     16  C   UNL     1       6.538  -1.101   2.054  0.00  0.00    +0.054 A 
ATOM     17  C   UNL     1       5.742  -2.224   1.945  0.00  0.00    +0.021 A 
ATOM     18  C   UNL     1       5.409  -2.951   3.074  0.00  0.00    +0.003 A 
ATOM     19  C   UNL     1       5.869  -2.560   4.318  0.00  0.00    +0.021 A 
ATOM     20  C   UNL     1       6.671  -1.443   4.442  0.00  0.00    +0.054 A 
ATOM     21 CL   UNL     1       7.254  -0.959   6.004  0.00  0.00    -0.083 Cl
ATOM     22 CL   UNL     1       6.954  -0.189   0.636  0.00  0.00    -0.083 Cl
ENDBRANCH  11  15
BRANCH   1  24
ATOM     23  N   UNL     1       4.563   4.066   0.924  0.00  0.00    -0.311 N 
ATOM     24  C   UNL     1       5.242   3.115   1.596  0.00  0.00    +0.218 C 
ATOM     25  O   UNL     1       5.494   2.057   1.060  0.00  0.00    -0.275 OA
ATOM     26  H   UNL     1       4.361   4.912   1.353  0.00  0.00    +0.149 HD
BRANCH  23  27
ATOM     27  C   UNL     1       4.131   3.822  -0.454  0.00  0.00    +0.139 C 
BRANCH  27  30
ATOM     28  C   UNL     1       3.429   7.152  -2.092  0.00  0.00    +0.004 A 
ATOM     29  C   UNL     1       4.097   6.039  -1.614  0.00  0.00    +0.005 A 
ATOM     30  C   UNL     1       3.400   5.033  -0.973  0.00  0.00    -0.027 A 
ATOM     31  C   UNL     1       2.032   5.136  -0.808  0.00  0.00    +0.051 A 
ATOM     32  C   UNL     1       1.359   6.251  -1.286  0.00  0.00    +0.127 A 
ATOM     33  C   UNL     1       2.061   7.260  -1.929  0.00  0.00    +0.046 A 
BRANCH  32  34
ATOM     34  O   UNL     1       0.013   6.355  -1.124  0.00  0.00    -0.434 OA
BRANCH  34  35
ATOM     35  C   UNL     1      -0.613   7.530  -1.641  0.00  0.00    +0.541 C 
ATOM     36  F   UNL     1      -0.072   8.660  -1.019  0.00  0.00    -0.166 F 
ATOM     37  F   UNL     1      -0.393   7.607  -3.021  0.00  0.00    -0.166 F 
ENDBRANCH  34  35
ENDBRANCH  32  34
ENDBRANCH  27  30
ENDBRANCH  23  27
ENDBRANCH   1  24
TORSDOF 6
