REMARK  Name = ZINC11664762
REMARK  4 active torsions:
REMARK  status: ('A' for Active; 'I' for Inactive)
REMARK    1  A    between atoms: C_1  and  C_2
REMARK    2  A    between atoms: C_7  and  C_8
REMARK    3  A    between atoms: C_23  and  C_25
REMARK    4  A    between atoms: C_27  and  C_31
REMARK                            x       y       z     vdW  Elec       q    Type
REMARK                         _______ _______ _______ _____ _____    ______ ____
ROOT
ATOM      1  C   UNL     1      -2.635   1.096   0.848  0.00  0.00    +0.154 C 
ATOM      2  C   UNL     1      -2.238   2.523   1.151  0.00  0.00    +0.046 A 
ATOM      3  C   UNL     1      -3.080   3.433   1.686  0.00  0.00    -0.015 A 
ATOM      4  C   UNL     1      -2.335   4.668   1.828  0.00  0.00    +0.003 A 
ATOM      5  C   UNL     1      -2.679   5.932   2.317  0.00  0.00    +0.010 A 
ATOM      6  C   UNL     1      -1.697   6.891   2.301  0.00  0.00    +0.001 A 
ATOM      7  C   UNL     1      -0.422   6.632   1.826  0.00  0.00    +0.002 A 
ATOM      8  C   UNL     1      -0.054   5.391   1.337  0.00  0.00    +0.026 A 
ATOM      9  C   UNL     1      -1.031   4.396   1.340  0.00  0.00    +0.047 A 
ATOM     10  N   UNL     1      -1.010   3.091   0.940  0.00  0.00    -0.356 N 
ATOM     11  H   UNL     1      -0.242   2.635   0.562  0.00  0.00    +0.166 HD
ATOM     12  C   UNL     1      -4.519   3.166   2.048  0.00  0.00    +0.056 C 
ATOM     13  C   UNL     1      -4.736   1.650   2.138  0.00  0.00    +0.114 C 
ATOM     14  N   UNL     1      -4.100   1.005   0.979  0.00  0.00    -0.283 N 
ATOM     15  C   UNL     1      -4.837   0.351   0.059  0.00  0.00    +0.265 C 
ATOM     16  O   UNL     1      -4.287  -0.266  -0.833  0.00  0.00    -0.268 OA
ENDROOT
BRANCH   1  23
ATOM     17  C   UNL     1      -2.382  -1.713   0.221  0.00  0.00    +0.044 C 
ATOM     18  C   UNL     1      -1.854  -1.182   1.529  0.00  0.00    -0.045 A 
ATOM     19  C   UNL     1      -1.244  -2.039   2.426  0.00  0.00    +0.004 A 
ATOM     20  C   UNL     1      -0.759  -1.552   3.626  0.00  0.00    +0.000 A 
ATOM     21  C   UNL     1      -0.885  -0.209   3.928  0.00  0.00    +0.000 A 
ATOM     22  C   UNL     1      -1.494   0.648   3.031  0.00  0.00    +0.006 A 
ATOM     23  C   UNL     1      -1.975   0.161   1.829  0.00  0.00    -0.018 A 
ENDBRANCH   1  23
BRANCH  15  24
ATOM     24  C   UNL     1      -6.306   0.383   0.136  0.00  0.00    +0.121 A 
ATOM     25  C   UNL     1      -7.166  -0.699   0.054  0.00  0.00    +0.057 A 
ATOM     26  C   UNL     1      -8.449  -0.162   0.180  0.00  0.00    +0.067 A 
ATOM     27  N   UNL     1      -8.330   1.135   0.317  0.00  0.00    -0.178 NA
ATOM     28  N   UNL     1      -7.095   1.487   0.295  0.00  0.00    -0.272 N 
ATOM     29  H   UNL     1      -6.761   2.425   0.382  0.00  0.00    +0.189 HD
BRANCH  26  30
ATOM     30  C   UNL     1      -9.741  -0.936   0.158  0.00  0.00    +0.040 C 
ATOM     31  C   UNL     1      -9.698  -2.366  -0.384  0.00  0.00    +0.010 C 
ATOM     32  C   UNL     1     -10.351  -1.254  -1.209  0.00  0.00    +0.010 C 
ENDBRANCH  26  30
ENDBRANCH  15  24
TORSDOF 3
