REMARK  Name = ZINC12377913
REMARK  6 active torsions:
REMARK  status: ('A' for Active; 'I' for Inactive)
REMARK    1  A    between atoms: C_1  and  C_2
REMARK    2  A    between atoms: C_5  and  C_8
REMARK    3  A    between atoms: C_10  and  C_22
REMARK    4  A    between atoms: C_12  and  C_17
REMARK    5  A    between atoms: C_12  and  O_21
REMARK    6  A    between atoms: C_22  and  C_24
REMARK                            x       y       z     vdW  Elec       q    Type
REMARK                         _______ _______ _______ _____ _____    ______ ____
ROOT
ATOM      1  C   UNL     1       0.142  -4.357   0.216  0.00  0.00    +0.120 C 
ATOM      2  C   UNL     1      -1.323  -4.792   0.106  0.00  0.00    +0.144 C 
ATOM      3  C   UNL     1      -1.366  -6.260  -0.331  0.00  0.00    +0.243 C 
ATOM      4  N   UNL     1      -0.611  -6.413  -1.575  0.00  0.00    -0.264 N 
ATOM      5  C   UNL     1       0.420  -5.606  -1.869  0.00  0.00    +0.302 C 
ATOM      6  O   UNL     1       1.021  -5.783  -2.912  0.00  0.00    -0.253 OA
ATOM      7  N   UNL     1       0.817  -4.614  -1.058  0.00  0.00    -0.292 N 
ATOM      8  H   UNL     1      -0.861  -7.111  -2.200  0.00  0.00    +0.153 HD
ATOM      9  H   UNL     1       1.564  -4.054  -1.321  0.00  0.00    +0.151 HD
ENDROOT
BRANCH   1  14
ATOM     10  C   UNL     1       0.396   1.285   1.436  0.00  0.00    +0.044 C 
ATOM     11  C   UNL     1       0.330  -0.186   1.118  0.00  0.00    -0.050 A 
ATOM     12  C   UNL     1       0.203  -0.605  -0.194  0.00  0.00    +0.004 A 
ATOM     13  C   UNL     1       0.147  -1.955  -0.486  0.00  0.00    +0.006 A 
ATOM     14  C   UNL     1       0.209  -2.886   0.534  0.00  0.00    -0.026 A 
ATOM     15  C   UNL     1       0.331  -2.467   1.845  0.00  0.00    +0.006 A 
ATOM     16  C   UNL     1       0.392  -1.117   2.138  0.00  0.00    +0.004 A 
ENDBRANCH   1  14
BRANCH   3  17
ATOM     17  C   UNL     1      -2.818  -6.684  -0.558  0.00  0.00    +0.436 C 
ATOM     18  F   UNL     1      -3.344  -5.981  -1.647  0.00  0.00    -0.166 F 
ATOM     19  F   UNL     1      -2.867  -8.057  -0.823  0.00  0.00    -0.166 F 
ATOM     20  F   UNL     1      -3.571  -6.403   0.587  0.00  0.00    -0.166 F 
ENDBRANCH   3  17
BRANCH   3  21
ATOM     21  O   UNL     1      -0.782  -7.078   0.685  0.00  0.00    -0.364 OA
ATOM     22  H   UNL     1      -0.775  -8.021   0.475  0.00  0.00    +0.212 HD
ENDBRANCH   3  21
BRANCH   2  23
ATOM     23  C   UNL     1      -2.029  -3.939  -0.917  0.00  0.00    +0.173 C 
ATOM     24  O   UNL     1      -1.701  -3.994  -2.083  0.00  0.00    -0.292 OA
BRANCH  23  25
ATOM     25  C   UNL     1      -3.115  -3.040  -0.501  0.00  0.00    +0.018 A 
ATOM     26  C   UNL     1      -3.409  -2.874   0.858  0.00  0.00    +0.014 A 
ATOM     27  C   UNL     1      -4.424  -2.026   1.241  0.00  0.00    +0.039 A 
ATOM     28  C   UNL     1      -5.163  -1.346   0.283  0.00  0.00    +0.123 A 
ATOM     29  C   UNL     1      -4.881  -1.511  -1.065  0.00  0.00    +0.039 A 
ATOM     30  C   UNL     1      -3.864  -2.351  -1.461  0.00  0.00    +0.014 A 
ATOM     31  F   UNL     1      -6.162  -0.520   0.665  0.00  0.00    -0.205 F 
ENDBRANCH  23  25
ENDBRANCH   2  23
TORSDOF 5
