REMARK  Name = ZINC39678580
REMARK  11 active torsions:
REMARK  status: ('A' for Active; 'I' for Inactive)
REMARK    1  A    between atoms: C_1  and  C_2
REMARK    2  A    between atoms: C_2  and  C_3
REMARK    3  A    between atoms: C_2  and  C_4
REMARK    4  A    between atoms: C_4  and  C_6
REMARK    5  A    between atoms: C_4  and  O_33
REMARK    6  A    between atoms: C_10  and  C_19
REMARK    7  A    between atoms: N_21  and  C_22
REMARK    8  A    between atoms: C_22  and  C_23
REMARK    9  A    between atoms: C_27  and  O_29
REMARK   10  A    between atoms: O_29  and  C_30
REMARK   11  A    between atoms: O_33  and  C_34
REMARK                            x       y       z     vdW  Elec       q    Type
REMARK                         _______ _______ _______ _____ _____    ______ ____
ROOT
ATOM      1  C   UNL     1       1.126  -1.880  -1.442  0.00  0.00    +0.257 C 
ATOM      2  O   UNL     1       0.678  -2.513  -2.375  0.00  0.00    -0.272 OA
ATOM      3  N   UNL     1       1.728  -2.521  -0.421  0.00  0.00    -0.297 N 
ATOM      4  C   UNL     1       2.392  -1.924   0.761  0.00  0.00    +0.121 C 
ATOM      5  C   UNL     1       1.998  -2.845   1.937  0.00  0.00    +0.100 C 
ATOM      6  C   UNL     1       1.663  -4.196   1.283  0.00  0.00    -0.004 C 
ATOM      7  C   UNL     1       1.871  -3.984  -0.224  0.00  0.00    +0.115 C 
ATOM      8  C   UNL     1       0.210  -4.571   1.561  0.00  0.00    -0.010 C 
ATOM      9  C   UNL     1      -0.083  -5.944   0.949  0.00  0.00    -0.082 C 
ATOM     10  N   UNL     1       0.822  -6.944   1.528  0.00  0.00    +0.379 N 
ATOM     11  C   UNL     1       2.211  -6.625   1.177  0.00  0.00    -0.082 C 
ATOM     12  C   UNL     1       2.602  -5.281   1.799  0.00  0.00    -0.010 C 
ATOM     13  H   UNL     1       0.722  -6.944   2.532  0.00  0.00    -0.086 HD
ATOM     14  H   UNL     1       0.587  -7.857   1.169  0.00  0.00    -0.086 HD
ENDROOT
BRANCH   5  15
ATOM     15  C   UNL     1       0.793  -2.294   2.655  0.00  0.00    +0.218 C 
ATOM     16  O   UNL     1      -0.098  -1.764   2.026  0.00  0.00    -0.275 OA
ATOM     17  N   UNL     1       0.706  -2.389   3.997  0.00  0.00    -0.311 N 
ATOM     18  H   UNL     1       1.419  -2.812   4.500  0.00  0.00    +0.149 HD
BRANCH  17  19
ATOM     19  C   UNL     1      -0.465  -1.853   4.695  0.00  0.00    +0.139 C 
BRANCH  19  20
ATOM     20  C   UNL     1      -0.317  -2.085   6.176  0.00  0.00    -0.027 A 
ATOM     21  C   UNL     1      -0.794  -3.252   6.744  0.00  0.00    +0.005 A 
ATOM     22  C   UNL     1      -0.660  -3.468   8.103  0.00  0.00    +0.004 A 
ATOM     23  C   UNL     1      -0.048  -2.517   8.897  0.00  0.00    +0.046 A 
ATOM     24  C   UNL     1       0.432  -1.346   8.330  0.00  0.00    +0.127 A 
ATOM     25  C   UNL     1       0.301  -1.134   6.965  0.00  0.00    +0.051 A 
BRANCH  24  26
ATOM     26  O   UNL     1       1.034  -0.409   9.110  0.00  0.00    -0.434 OA
BRANCH  26  27
ATOM     27  C   UNL     1       1.139  -0.697  10.506  0.00  0.00    +0.541 C 
ATOM     28  F   UNL     1      -0.141  -0.868  11.044  0.00  0.00    -0.166 F 
ATOM     29  F   UNL     1       1.881  -1.869  10.686  0.00  0.00    -0.166 F 
ENDBRANCH  26  27
ENDBRANCH  24  26
ENDBRANCH  19  20
ENDBRANCH  17  19
ENDBRANCH   5  15
BRANCH   1  30
ATOM     30  C   UNL     1       1.009  -0.378  -1.425  0.00  0.00    +0.261 C 
BRANCH  30  32
ATOM     31  C   UNL     1      -0.004   1.572  -0.236  0.00  0.00    +0.011 C 
ATOM     32  C   UNL     1       0.041   0.045  -0.318  0.00  0.00    +0.033 C 
ATOM     33  C   UNL     1      -1.357  -0.491  -0.630  0.00  0.00    +0.011 C 
ENDBRANCH  30  32
BRANCH  30  34
ATOM     34  O   UNL     1       0.516   0.076  -2.687  0.00  0.00    -0.479 OA
BRANCH  34  35
ATOM     35  C   UNL     1       0.960   1.284  -3.124  0.00  0.00    +0.122 A 
ATOM     36  C   UNL     1       1.909   1.982  -2.392  0.00  0.00    +0.045 A 
ATOM     37  C   UNL     1       2.359   3.209  -2.838  0.00  0.00    +0.004 A 
ATOM     38  C   UNL     1       1.864   3.742  -4.014  0.00  0.00    +0.000 A 
ATOM     39  C   UNL     1       0.918   3.049  -4.746  0.00  0.00    +0.004 A 
ATOM     40  C   UNL     1       0.469   1.818  -4.306  0.00  0.00    +0.045 A 
ENDBRANCH  34  35
ENDBRANCH  30  34
ENDBRANCH   1  30
TORSDOF 9
