REMARK  Name = ZINC66252994
REMARK  5 active torsions:
REMARK  status: ('A' for Active; 'I' for Inactive)
REMARK    1  A    between atoms: C_1  and  C_2
REMARK    2  A    between atoms: C_7  and  C_8
REMARK    3  A    between atoms: C_11  and  N_13
REMARK    4  A    between atoms: N_13  and  S_14
REMARK    5  A    between atoms: S_14  and  C_17
REMARK                            x       y       z     vdW  Elec       q    Type
REMARK                         _______ _______ _______ _____ _____    ______ ____
ROOT
ATOM      1  N   UNL     1      -0.020   3.578   3.622  0.00  0.00    -0.070 NA
ENDROOT
BRANCH   1   5
ATOM      2  C   UNL     1       0.173   0.156   2.409  0.00  0.00    +0.081 A 
ATOM      3  C   UNL     1       0.389  -0.457   3.610  0.00  0.00    +0.077 A 
ATOM      4  S   UNL     1       0.387   0.952   4.710  0.00  0.00    -0.057 S 
ATOM      5  C   UNL     1       0.100   2.206   3.469  0.00  0.00    +0.202 A 
ATOM      6  N   UNL     1       0.038   1.480   2.369  0.00  0.00    -0.222 NA
BRANCH   2  13
ATOM      7  C   UNL     1      -1.987   0.621   0.541  0.00  0.00    +0.044 C 
ATOM      8  C   UNL     1      -0.942  -0.427   0.257  0.00  0.00    -0.041 A 
ATOM      9  C   UNL     1      -1.007  -1.171  -0.904  0.00  0.00    +0.004 A 
ATOM     10  C   UNL     1      -0.048  -2.133  -1.167  0.00  0.00    +0.000 A 
ATOM     11  C   UNL     1       0.980  -2.356  -0.268  0.00  0.00    +0.001 A 
ATOM     12  C   UNL     1       1.054  -1.619   0.896  0.00  0.00    +0.010 A 
ATOM     13  C   UNL     1       0.095  -0.644   1.163  0.00  0.00    +0.004 A 
ENDBRANCH   2  13
ENDBRANCH   1   5
BRANCH   1  14
ATOM     14  S   UNL     1       0.104   4.258   5.127  0.00  0.00    +0.096 S 
ATOM     15  O   UNL     1      -1.015   3.801   5.872  0.00  0.00    -0.148 OA
ATOM     16  O   UNL     1       1.442   4.051   5.557  0.00  0.00    -0.148 OA
BRANCH  14  17
ATOM     17  C   UNL     1      -0.098   5.997   4.931  0.00  0.00    +0.137 A 
ATOM     18  C   UNL     1      -1.099   6.746   5.419  0.00  0.00    +0.114 A 
ATOM     19  N   UNL     1      -0.918   8.056   5.063  0.00  0.00    -0.344 N 
ATOM     20  H   UNL     1      -1.513   8.784   5.301  0.00  0.00    +0.167 HD
ATOM     21  C   UNL     1       0.229   8.188   4.319  0.00  0.00    +0.140 A 
ATOM     22  C   UNL     1       0.797   6.904   4.209  0.00  0.00    +0.045 A 
ATOM     23  C   UNL     1       1.989   6.738   3.500  0.00  0.00    +0.015 A 
ATOM     24  C   UNL     1       2.569   7.858   2.934  0.00  0.00    +0.020 A 
ATOM     25  C   UNL     1       1.956   9.092   3.085  0.00  0.00    +0.113 A 
ATOM     26  N   UNL     1       0.829   9.225   3.751  0.00  0.00    -0.237 NA
ENDBRANCH  14  17
ENDBRANCH   1  14
TORSDOF 4
