REMARK  Name = ZINC54982185
REMARK  6 active torsions:
REMARK  status: ('A' for Active; 'I' for Inactive)
REMARK    1  A    between atoms: C_3  and  N_14
REMARK    2  A    between atoms: C_4  and  N_11
REMARK    3  A    between atoms: C_6  and  S_7
REMARK    4  A    between atoms: S_7  and  N_10
REMARK    5  A    between atoms: N_14  and  C_15
REMARK    6  A    between atoms: N_24  and  C_26
REMARK                            x       y       z     vdW  Elec       q    Type
REMARK                         _______ _______ _______ _____ _____    ______ ____
ROOT
ATOM      1  C   UNL     1       0.007   1.418   0.043  0.00  0.00    +0.030 A 
ATOM      2  C   UNL     1       1.209   2.057   0.280  0.00  0.00    +0.027 A 
ATOM      3  C   UNL     1       2.397   1.339   0.233  0.00  0.00    +0.058 A 
ATOM      4  C   UNL     1       2.372  -0.020  -0.054  0.00  0.00    +0.149 A 
ATOM      5  C   UNL     1       1.168  -0.653  -0.291  0.00  0.00    +0.063 A 
ATOM      6  C   UNL     1      -0.013   0.065  -0.242  0.00  0.00    +0.107 A 
ENDROOT
BRANCH   6   7
ATOM      7  S   UNL     1      -1.548  -0.746  -0.545  0.00  0.00    +0.056 S 
ATOM      8  O   UNL     1      -1.345  -2.121  -0.251  0.00  0.00    -0.153 OA
ATOM      9  O   UNL     1      -2.551   0.030   0.096  0.00  0.00    -0.153 OA
BRANCH   7  10
ATOM     10  N   UNL     1      -1.841  -0.648  -2.172  0.00  0.00    -0.204 NA
ATOM     11  H   UNL     1      -2.347  -1.346  -2.616  0.00  0.00    +0.144 HD
ATOM     12  H   UNL     1      -1.507   0.107  -2.681  0.00  0.00    +0.144 HD
ENDBRANCH   7  10
ENDBRANCH   6   7
BRANCH   4  13
ATOM     13  N   UNL     1       3.636  -0.789  -0.106  0.00  0.00    +0.058 N 
ATOM     14  O   UNL     1       4.633  -0.283  -0.567  0.00  0.00    -0.126 OA
ATOM     15  O   UNL     1       3.671  -1.923   0.311  0.00  0.00    -0.126 OA
ENDBRANCH   4  13
BRANCH   3  16
ATOM     16  N   UNL     1       3.613   1.982   0.472  0.00  0.00    -0.339 N 
ATOM     17  H   UNL     1       4.433   1.466   0.524  0.00  0.00    +0.146 HD
BRANCH  16  18
ATOM     18  C   UNL     1       3.651   3.434   0.644  0.00  0.00    +0.073 C 
ATOM     19  C   UNL     1       3.388   3.803   2.106  0.00  0.00    -0.007 C 
ATOM     20  C   UNL     1       3.319   5.320   2.239  0.00  0.00    +0.003 C 
ATOM     21  C   UNL     1       4.567   6.013   1.715  0.00  0.00    +0.001 C 
ATOM     22  C   UNL     1       5.016   5.499   0.356  0.00  0.00    +0.003 C 
ATOM     23  C   UNL     1       5.035   3.977   0.279  0.00  0.00    -0.007 C 
ATOM     24  C   UNL     1       6.094   3.381   1.193  0.00  0.00    -0.073 C 
ATOM     25  N   UNL     1       5.817   3.588   2.611  0.00  0.00    +0.382 N 
ATOM     26  C   UNL     1       4.464   3.209   3.002  0.00  0.00    -0.073 C 
ATOM     27  H   UNL     1       6.000   4.546   2.866  0.00  0.00    -0.081 HD
BRANCH  25  28
ATOM     28  C   UNL     1       6.760   2.768   3.383  0.00  0.00    -0.069 C 
ATOM     29  C   UNL     1       7.556   3.461   4.491  0.00  0.00    -0.017 C 
ATOM     30  C   UNL     1       8.253   3.043   3.195  0.00  0.00    -0.017 C 
ENDBRANCH  25  28
ENDBRANCH  16  18
ENDBRANCH   3  16
TORSDOF 6
