REMARK  Name = ZINC06195732
REMARK  12 active torsions:
REMARK  status: ('A' for Active; 'I' for Inactive)
REMARK    1  A    between atoms: C_1  and  C_2
REMARK    2  A    between atoms: C_5  and  C_38
REMARK    3  A    between atoms: C_6  and  N_8
REMARK    4  A    between atoms: C_13  and  C_15
REMARK    5  A    between atoms: C_13  and  C_29
REMARK    6  A    between atoms: C_13  and  N_72
REMARK    7  A    between atoms: C_20  and  O_27
REMARK    8  A    between atoms: O_27  and  C_28
REMARK    9  A    between atoms: N_33  and  C_34
REMARK   10  A    between atoms: C_34  and  C_35
REMARK   11  A    between atoms: C_34  and  C_36
REMARK   12  A    between atoms: C_34  and  C_37
REMARK                            x       y       z     vdW  Elec       q    Type
REMARK                         _______ _______ _______ _____ _____    ______ ____
ROOT
ATOM      1  C   UNL     1       1.459   0.109   8.709  0.00  0.00    +0.039 C 
ENDROOT
BRANCH   1   2
ATOM      2  C   UNL     1       0.726   0.543   7.466  0.00  0.00    +0.011 A 
ATOM      3  C   UNL     1       0.666   1.860   7.143  0.00  0.00    +0.017 A 
ATOM      4  C   UNL     1      -0.054   2.250   5.931  0.00  0.00    -0.001 A 
ATOM      5  C   UNL     1      -0.151   3.593   5.548  0.00  0.00    +0.013 A 
ATOM      6  C   UNL     1      -0.824   3.926   4.409  0.00  0.00    +0.046 A 
ATOM      7  C   UNL     1      -1.427   2.941   3.628  0.00  0.00    +0.122 A 
ATOM      8  C   UNL     1      -1.343   1.607   3.990  0.00  0.00    +0.072 A 
ATOM      9  C   UNL     1      -0.656   1.249   5.143  0.00  0.00    +0.053 A 
ATOM     10  N   UNL     1      -0.557  -0.072   5.527  0.00  0.00    -0.322 N 
ATOM     11  H   UNL     1      -0.973  -0.760   4.984  0.00  0.00    +0.169 HD
ATOM     12  C   UNL     1       0.106  -0.419   6.644  0.00  0.00    +0.251 A 
ATOM     13  O   UNL     1       0.173  -1.597   6.953  0.00  0.00    -0.268 OA
BRANCH   7  14
ATOM     14  O   UNL     1      -2.097   3.291   2.501  0.00  0.00    -0.495 OA
ATOM     15  C   UNL     1      -2.147   4.683   2.183  0.00  0.00    +0.277 C 
ENDBRANCH   7  14
ENDBRANCH   1   2
BRANCH   1  21
ATOM     16  N   UNL     1      -0.948  -0.931  12.021  0.00  0.00    -0.333 N 
ATOM     17  C   UNL     1       0.220  -1.773  11.727  0.00  0.00    +0.086 C 
ATOM     18  C   UNL     1       1.201  -0.992  10.851  0.00  0.00    -0.058 C 
ATOM     19  C   UNL     1      -0.641   0.262   9.905  0.00  0.00    -0.058 C 
ATOM     20  C   UNL     1      -1.622  -0.519  10.782  0.00  0.00    +0.086 C 
ATOM     21  N   UNL     1       0.518  -0.603   9.599  0.00  0.00    +0.391 N 
ATOM     22  H   UNL     1       0.185  -1.450   9.124  0.00  0.00    -0.080 HD
BRANCH  16  28
ATOM     23  C   UNL     1      -3.907  -4.746  12.938  0.00  0.00    +0.044 C 
ATOM     24  C   UNL     1      -3.284  -3.437  13.350  0.00  0.00    -0.049 A 
ATOM     25  C   UNL     1      -3.589  -2.884  14.580  0.00  0.00    +0.004 A 
ATOM     26  C   UNL     1      -3.020  -1.683  14.962  0.00  0.00    +0.005 A 
ATOM     27  C   UNL     1      -2.140  -1.035  14.117  0.00  0.00    -0.029 A 
ATOM     28  C   UNL     1      -1.835  -1.586  12.879  0.00  0.00    +0.033 A 
ATOM     29  C   UNL     1      -2.408  -2.792  12.499  0.00  0.00    +0.026 A 
ATOM     30  C   UNL     1      -1.515   0.271  14.537  0.00  0.00    +0.045 C 
ENDBRANCH  16  28
ENDBRANCH   1  21
BRANCH   1  31
ATOM     31  C   UNL     1       2.031   1.318   9.404  0.00  0.00    +0.143 A 
ATOM     32  N   UNL     1       1.360   2.231  10.063  0.00  0.00    -0.115 NA
ATOM     33  N   UNL     1       2.202   3.098  10.509  0.00  0.00    -0.023 NA
ATOM     34  N   UNL     1       3.393   2.761  10.152  0.00  0.00    -0.043 NA
ATOM     35  N   UNL     1       3.329   1.666   9.473  0.00  0.00    -0.225 N 
BRANCH  35  36
ATOM     36  C   UNL     1       4.457   0.940   8.885  0.00  0.00    +0.059 C 
ATOM     37  C   UNL     1       4.231   0.779   7.380  0.00  0.00    +0.036 C 
ATOM     38  C   UNL     1       5.749   1.724   9.126  0.00  0.00    +0.036 C 
ATOM     39  C   UNL     1       4.569  -0.441   9.534  0.00  0.00    +0.036 C 
ENDBRANCH  35  36
ENDBRANCH   1  31
TORSDOF 6
