REMARK  Name = ZINC39639509
REMARK  5 active torsions:
REMARK  status: ('A' for Active; 'I' for Inactive)
REMARK    1  A    between atoms: C_6  and  C_7
REMARK    2  A    between atoms: C_7  and  C_8
REMARK    3  A    between atoms: C_12  and  C_21
REMARK    4  A    between atoms: N_23  and  C_24
REMARK    5  A    between atoms: C_24  and  C_25
REMARK                            x       y       z     vdW  Elec       q    Type
REMARK                         _______ _______ _______ _____ _____    ______ ____
ROOT
ATOM      1  C   UNL     1      -1.739  -1.063  -1.566  0.00  0.00    +0.220 C 
ATOM      2  O   UNL     1      -1.119  -0.620  -2.510  0.00  0.00    -0.275 OA
ATOM      3  N   UNL     1      -2.902  -1.713  -1.768  0.00  0.00    -0.300 N 
ATOM      4  C   UNL     1      -3.796  -2.312  -0.750  0.00  0.00    +0.121 C 
ATOM      5  C   UNL     1      -5.224  -1.993  -1.248  0.00  0.00    +0.100 C 
ATOM      6  C   UNL     1      -5.073  -1.784  -2.764  0.00  0.00    -0.004 C 
ATOM      7  C   UNL     1      -3.579  -1.983  -3.059  0.00  0.00    +0.115 C 
ATOM      8  C   UNL     1      -5.905  -2.812  -3.525  0.00  0.00    -0.010 C 
ATOM      9  C   UNL     1      -5.785  -2.547  -5.029  0.00  0.00    -0.082 C 
ATOM     10  N   UNL     1      -6.256  -1.189  -5.328  0.00  0.00    +0.379 N 
ATOM     11  C   UNL     1      -5.393  -0.203  -4.666  0.00  0.00    -0.082 C 
ATOM     12  C   UNL     1      -5.497  -0.369  -3.147  0.00  0.00    -0.010 C 
ATOM     13  H   UNL     1      -6.233  -1.039  -6.325  0.00  0.00    -0.086 HD
ATOM     14  H   UNL     1      -7.202  -1.083  -4.996  0.00  0.00    -0.086 HD
ENDROOT
BRANCH   5  15
ATOM     15  C   UNL     1      -6.149  -3.149  -0.966  0.00  0.00    +0.218 C 
ATOM     16  O   UNL     1      -5.718  -4.282  -0.955  0.00  0.00    -0.275 OA
ATOM     17  N   UNL     1      -7.456  -2.923  -0.724  0.00  0.00    -0.311 N 
ATOM     18  H   UNL     1      -7.801  -2.016  -0.733  0.00  0.00    +0.149 HD
BRANCH  17  19
ATOM     19  C   UNL     1      -8.355  -4.046  -0.449  0.00  0.00    +0.142 C 
BRANCH  19  20
ATOM     20  C   UNL     1      -9.750  -3.527  -0.215  0.00  0.00    +0.005 A 
ATOM     21  C   UNL     1     -10.226  -3.380   1.075  0.00  0.00    +0.009 A 
ATOM     22  C   UNL     1     -11.505  -2.904   1.290  0.00  0.00    +0.016 A 
ATOM     23  C   UNL     1     -12.311  -2.574   0.215  0.00  0.00    +0.021 A 
ATOM     24  C   UNL     1     -11.838  -2.721  -1.075  0.00  0.00    +0.054 A 
ATOM     25  C   UNL     1     -10.554  -3.192  -1.291  0.00  0.00    +0.129 A 
ATOM     26  F   UNL     1     -10.088  -3.331  -2.552  0.00  0.00    -0.205 F 
ATOM     27 BR   UNL     1     -14.062  -1.923   0.511  0.00  0.00    -0.050 Br
ENDBRANCH  19  20
ENDBRANCH  17  19
ENDBRANCH   5  15
BRANCH   1  28
ATOM     28  C   UNL     1      -1.208  -0.886  -0.167  0.00  0.00    +0.131 C 
BRANCH  28  34
ATOM     29  C   UNL     1       0.100   1.248  -0.143  0.00  0.00    +0.005 A 
ATOM     30  C   UNL     1       1.295   1.940  -0.188  0.00  0.00    +0.020 A 
ATOM     31  C   UNL     1       2.489   1.250  -0.305  0.00  0.00    +0.041 A 
ATOM     32  C   UNL     1       2.485  -0.132  -0.377  0.00  0.00    +0.020 A 
ATOM     33  C   UNL     1       1.289  -0.822  -0.333  0.00  0.00    +0.005 A 
ATOM     34  C   UNL     1       0.096  -0.133  -0.216  0.00  0.00    -0.039 A 
ATOM     35 CL   UNL     1       3.991   2.118  -0.361  0.00  0.00    -0.084 Cl
ENDBRANCH  28  34
ENDBRANCH   1  28
TORSDOF 5
