REMARK  Name = ZINC22331681
REMARK  4 active torsions:
REMARK  status: ('A' for Active; 'I' for Inactive)
REMARK    1  A    between atoms: C_1  and  C_2
REMARK    2  A    between atoms: C_2  and  C_3
REMARK    3  A    between atoms: C_14  and  N_18
REMARK    4  A    between atoms: C_19  and  C_21
REMARK                            x       y       z     vdW  Elec       q    Type
REMARK                         _______ _______ _______ _____ _____    ______ ____
ROOT
ATOM      1  C   UNL     1      -1.688   1.731  -4.694  0.00  0.00    -0.024 A 
ATOM      2  C   UNL     1      -2.609   2.616  -5.228  0.00  0.00    +0.005 A 
ATOM      3  C   UNL     1      -3.272   3.551  -4.451  0.00  0.00    +0.001 A 
ATOM      4  C   UNL     1      -3.057   3.661  -3.099  0.00  0.00    +0.010 A 
ATOM      5  C   UNL     1      -2.131   2.780  -2.533  0.00  0.00    +0.003 A 
ATOM      6  C   UNL     1      -1.449   1.819  -3.324  0.00  0.00    +0.050 A 
ATOM      7  N   UNL     1      -0.625   1.119  -2.491  0.00  0.00    -0.357 N 
ATOM      8  H   UNL     1       0.007   0.313  -2.893  0.00  0.00    +0.166 HD
ATOM      9  C   UNL     1      -0.750   1.590  -1.210  0.00  0.00    +0.020 A 
ATOM     10  C   UNL     1      -1.649   2.597  -1.179  0.00  0.00    -0.017 A 
ATOM     11  C   UNL     1      -2.037   3.354   0.065  0.00  0.00    +0.059 C 
ATOM     12  C   UNL     1      -0.982   3.091   1.146  0.00  0.00    +0.078 C 
ATOM     13  C   UNL     1      -0.737   1.584   1.264  0.00  0.00    +0.028 C 
ATOM     14  C   UNL     1      -0.013   1.086   0.008  0.00  0.00    +0.055 C 
ENDROOT
BRANCH  12  15
ATOM     15  N   UNL     1      -1.457   3.611   2.430  0.00  0.00    -0.312 N 
ATOM     16  C   UNL     1      -0.573   3.960   3.385  0.00  0.00    +0.217 C 
ATOM     17  O   UNL     1       0.617   3.844   3.181  0.00  0.00    -0.275 OA
ATOM     18  H   UNL     1      -2.537   3.717   2.615  0.00  0.00    +0.149 HD
BRANCH  16  19
ATOM     19  C   UNL     1      -1.061   4.495   4.706  0.00  0.00    +0.079 C 
ATOM     20  C   UNL     1       0.138   4.839   5.599  0.00  0.00    +0.017 C 
ATOM     21  C   UNL     1      -0.384   5.208   6.989  0.00  0.00    +0.027 C 
ATOM     22  C   UNL     1      -1.491   6.215   6.876  0.00  0.00    -0.031 C 
ATOM     23  C   UNL     1      -2.142   6.457   5.783  0.00  0.00    -0.030 C 
ATOM     24  C   UNL     1      -1.875   5.771   4.476  0.00  0.00    +0.039 C 
ENDBRANCH  16  19
ENDBRANCH  12  15
BRANCH   1  26
ATOM     25  C   UNL     1      -1.725  -0.614  -5.500  0.00  0.00    +0.009 C 
ATOM     26  C   UNL     1      -0.976   0.719  -5.554  0.00  0.00    +0.034 C 
ENDBRANCH   1  26
TORSDOF 3
