REMARK  Name = ZINC66318660
REMARK  10 active torsions:
REMARK  status: ('A' for Active; 'I' for Inactive)
REMARK    1  A    between atoms: C_1  and  C_2
REMARK    2  A    between atoms: C_2  and  C_4
REMARK    3  A    between atoms: C_2  and  S_14
REMARK    4  A    between atoms: N_6  and  C_7
REMARK    5  A    between atoms: C_7  and  C_8
REMARK    6  A    between atoms: C_7  and  C_9
REMARK    7  A    between atoms: C_7  and  C_11
REMARK    8  A    between atoms: C_11  and  C_12
REMARK    9  A    between atoms: C_11  and  C_13
REMARK   10  A    between atoms: S_14  and  C_15
REMARK                            x       y       z     vdW  Elec       q    Type
REMARK                         _______ _______ _______ _____ _____    ______ ____
ROOT
ATOM      1  C   UNL     1      -0.019   1.526   0.010  0.00  0.00    +0.029 C 
ATOM      2  C   UNL     1       0.002  -0.004   0.002  0.00  0.00    +0.137 C 
ENDROOT
BRANCH   2   3
ATOM      3  C   UNL     1       0.731  -0.503   1.223  0.00  0.00    +0.227 C 
ATOM      4  O   UNL     1       1.911  -0.775   1.156  0.00  0.00    -0.275 OA
ATOM      5  N   UNL     1       0.071  -0.647   2.389  0.00  0.00    -0.296 N 
ATOM      6  H   UNL     1      -0.872  -0.430   2.443  0.00  0.00    +0.150 HD
BRANCH   5   7
ATOM      7  C   UNL     1       0.780  -1.133   3.576  0.00  0.00    +0.121 C 
ATOM      8  C   UNL     1       1.347  -2.526   3.298  0.00  0.00    +0.048 C 
BRANCH   7   9
ATOM      9  C   UNL     1      -0.191  -1.204   4.756  0.00  0.00    +0.020 C 
ATOM     10  C   UNL     1      -1.266  -2.254   4.470  0.00  0.00    +0.010 C 
ATOM     11  C   UNL     1       0.574  -1.591   6.024  0.00  0.00    +0.010 C 
ENDBRANCH   7   9
BRANCH   7  12
ATOM     12  C   UNL     1       1.881  -0.211   3.902  0.00  0.00    +0.088 C 
ATOM     13  N   UNL     1       2.731   0.500   4.153  0.00  0.00    -0.194 NA
ENDBRANCH   7  12
ENDBRANCH   5   7
ENDBRANCH   2   3
BRANCH   2  14
ATOM     14  S   UNL     1       0.851  -0.589  -1.490  0.00  0.00    -0.073 S 
BRANCH  14  15
ATOM     15  C   UNL     1      -0.189  -0.057  -2.809  0.00  0.00    +0.192 A 
ATOM     16  N   UNL     1      -1.310   0.609  -2.663  0.00  0.00    -0.201 NA
ATOM     17  C   UNL     1      -1.857   0.858  -3.880  0.00  0.00    +0.181 A 
ATOM     18  C   UNL     1      -0.995   0.296  -4.839  0.00  0.00    +0.112 A 
ATOM     19  N   UNL     1       0.054  -0.271  -4.136  0.00  0.00    -0.219 NA
ATOM     20  C   UNL     1      -1.311   0.402  -6.185  0.00  0.00    +0.053 A 
ATOM     21  C   UNL     1      -2.479   1.066  -6.535  0.00  0.00    +0.061 A 
ATOM     22  C   UNL     1      -3.284   1.597  -5.540  0.00  0.00    +0.133 A 
ATOM     23  N   UNL     1      -2.965   1.485  -4.268  0.00  0.00    -0.233 NA
ATOM     24 CL   UNL     1      -2.926   1.230  -8.204  0.00  0.00    -0.082 Cl
ENDBRANCH  14  15
ENDBRANCH   2  14
TORSDOF 6
