REMARK  Name = ZINC12548240
REMARK  4 active torsions:
REMARK  status: ('A' for Active; 'I' for Inactive)
REMARK    1  A    between atoms: C_3  and  C_8
REMARK    2  A    between atoms: C_8  and  O_9
REMARK    3  A    between atoms: O_9  and  C_10
REMARK    4  A    between atoms: C_13  and  C_16
REMARK                            x       y       z     vdW  Elec       q    Type
REMARK                         _______ _______ _______ _____ _____    ______ ____
ROOT
ATOM      1  C   UNL     1       8.893   5.284   2.031  0.00  0.00    +0.209 C 
ATOM      2  N   UNL     1       9.658   4.716   3.155  0.00  0.00    -0.294 N 
ATOM      3  C   UNL     1       9.352   5.077   4.441  0.00  0.00    +0.160 C 
ATOM      4  N   UNL     1       8.851   6.266   4.722  0.00  0.00    -0.302 N 
ATOM      5  C   UNL     1       8.582   7.111   3.698  0.00  0.00    +0.213 A 
ATOM      6  N   UNL     1       8.600   6.678   2.383  0.00  0.00    -0.286 N 
ATOM      7  C   UNL     1       8.303   7.755   1.580  0.00  0.00    +0.076 A 
ATOM      8  C   UNL     1       8.190   7.940   0.208  0.00  0.00    +0.077 A 
ATOM      9  C   UNL     1       7.866   9.186  -0.294  0.00  0.00    +0.164 A 
ATOM     10  C   UNL     1       7.653  10.259   0.566  0.00  0.00    +0.164 A 
ATOM     11  C   UNL     1       7.762  10.094   1.931  0.00  0.00    +0.079 A 
ATOM     12  C   UNL     1       8.088   8.838   2.453  0.00  0.00    +0.095 A 
ATOM     13  N   UNL     1       8.264   8.378   3.729  0.00  0.00    -0.212 NA
ATOM     14  O   UNL     1       7.332  11.483   0.050  0.00  0.00    -0.488 OA
ATOM     15  C   UNL     1       8.365  12.141  -0.686  0.00  0.00    +0.232 C 
ATOM     16  C   UNL     1       8.387  11.664  -2.130  0.00  0.00    +0.082 C 
ATOM     17  C   UNL     1       8.752  10.193  -2.247  0.00  0.00    +0.232 C 
ATOM     18  O   UNL     1       7.752   9.371  -1.642  0.00  0.00    -0.488 OA
ATOM     19  N   UNL     1       9.571   4.185   5.456  0.00  0.00    -0.332 N 
ATOM     20  H   UNL     1       9.938   3.308   5.261  0.00  0.00    +0.145 HD
ATOM     21  H   UNL     1       9.358   4.429   6.370  0.00  0.00    +0.145 HD
ATOM     22  H   UNL     1      10.377   4.088   2.985  0.00  0.00    +0.151 HD
ATOM     23  H   UNL     1       8.679   6.529   5.640  0.00  0.00    +0.171 HD
ENDROOT
BRANCH   1  27
ATOM     24  C   UNL     1       5.251   3.113   1.494  0.00  0.00    +0.121 A 
ATOM     25  C   UNL     1       5.964   3.558   0.390  0.00  0.00    +0.046 A 
ATOM     26  C   UNL     1       7.141   4.260   0.567  0.00  0.00    +0.011 A 
ATOM     27  C   UNL     1       7.609   4.519   1.842  0.00  0.00    -0.007 A 
ATOM     28  C   UNL     1       6.900   4.076   2.943  0.00  0.00    +0.011 A 
ATOM     29  C   UNL     1       5.720   3.379   2.773  0.00  0.00    +0.046 A 
BRANCH  24  30
ATOM     30  O   UNL     1       4.093   2.423   1.323  0.00  0.00    -0.487 OA
BRANCH  30  31
ATOM     31  C   UNL     1       3.672   2.186  -0.021  0.00  0.00    +0.264 C 
BRANCH  31  34
ATOM     32  C   UNL     1      -0.017   1.377   0.010  0.00  0.00    +0.003 A 
ATOM     33  C   UNL     1       1.171   2.086   0.002  0.00  0.00    +0.007 A 
ATOM     34  C   UNL     1       2.378   1.413  -0.013  0.00  0.00    -0.008 A 
ATOM     35  C   UNL     1       2.399   0.030  -0.021  0.00  0.00    +0.045 A 
ATOM     36  C   UNL     1       1.211  -0.679  -0.013  0.00  0.00    +0.124 A 
ATOM     37  C   UNL     1       0.002  -0.004   0.002  0.00  0.00    +0.038 A 
ATOM     38  F   UNL     1       1.230  -2.030  -0.022  0.00  0.00    -0.205 F 
ENDBRANCH  31  34
ENDBRANCH  30  31
ENDBRANCH  24  30
ENDBRANCH   1  27
TORSDOF 4
