REMARK  Name = ZINC14829199
REMARK  9 active torsions:
REMARK  status: ('A' for Active; 'I' for Inactive)
REMARK    1  A    between atoms: C_1  and  C_2
REMARK    2  A    between atoms: C_2  and  C_4
REMARK    3  A    between atoms: C_10  and  O_34
REMARK    4  A    between atoms: C_16  and  O_33
REMARK    5  A    between atoms: C_21  and  O_31
REMARK    6  A    between atoms: C_22  and  O_29
REMARK    7  A    between atoms: C_25  and  O_28
REMARK    8  A    between atoms: O_29  and  C_30
REMARK    9  A    between atoms: O_31  and  C_32
REMARK                            x       y       z     vdW  Elec       q    Type
REMARK                         _______ _______ _______ _____ _____    ______ ____
ROOT
ATOM      1  C   UNL     1     -11.512  -3.447   2.572  0.00  0.00    +0.203 C 
ATOM      2  C   UNL     1     -10.253  -3.219   1.698  0.00  0.00    +0.091 C 
ATOM      3  C   UNL     1      -9.346  -2.481   2.645  0.00  0.00    +0.041 A 
ATOM      4  C   UNL     1      -9.879  -2.637   3.934  0.00  0.00    +0.132 A 
ATOM      5  C   UNL     1      -9.259  -2.042   5.038  0.00  0.00    +0.092 A 
ATOM      6  C   UNL     1      -8.107  -1.303   4.812  0.00  0.00    +0.134 A 
ATOM      7  C   UNL     1      -7.577  -1.152   3.522  0.00  0.00    +0.104 A 
ATOM      8  C   UNL     1      -8.201  -1.754   2.406  0.00  0.00    +0.142 A 
ATOM      9  O   UNL     1      -7.696  -1.620   1.157  0.00  0.00    -0.478 OA
ATOM     10  C   UNL     1      -6.313  -1.298   1.052  0.00  0.00    +0.285 C 
ATOM     11  C   UNL     1      -5.881  -1.033  -0.388  0.00  0.00    +0.350 C 
ATOM     12  O   UNL     1      -4.465  -0.829  -0.391  0.00  0.00    -0.459 OA
ATOM     13  C   UNL     1      -3.911  -0.033   0.561  0.00  0.00    +0.134 A 
ATOM     14  C   UNL     1      -2.587   0.362   0.401  0.00  0.00    +0.095 A 
ATOM     15  C   UNL     1      -1.976   1.163   1.348  0.00  0.00    +0.165 A 
ATOM     16  C   UNL     1      -2.686   1.571   2.474  0.00  0.00    +0.162 A 
ATOM     17  C   UNL     1      -4.005   1.183   2.630  0.00  0.00    +0.060 A 
ATOM     18  C   UNL     1      -4.618   0.385   1.679  0.00  0.00    +0.041 A 
ATOM     19  C   UNL     1      -6.052  -0.018   1.864  0.00  0.00    +0.200 C 
ATOM     20  C   UNL     1      -6.356  -0.357   3.308  0.00  0.00    +0.210 C 
ATOM     21  O   UNL     1      -5.645   0.001   4.224  0.00  0.00    -0.288 OA
ATOM     22  O   UNL     1     -10.991  -3.398   3.914  0.00  0.00    -0.484 OA
ENDROOT
BRANCH   1  24
ATOM     23  C   UNL     1     -11.317  -6.049   2.512  0.00  0.00    +0.042 C 
ATOM     24  C   UNL     1     -12.121  -4.795   2.286  0.00  0.00    -0.040 C 
ATOM     25  C   UNL     1     -13.351  -4.877   1.841  0.00  0.00    +0.011 C 
ENDBRANCH   1  24
BRANCH  19  26
ATOM     26  O   UNL     1      -6.925   1.022   1.419  0.00  0.00    -0.373 OA
ATOM     27  H   UNL     1      -6.812   1.859   1.891  0.00  0.00    +0.211 HD
ENDBRANCH  19  26
BRANCH  16  28
ATOM     28  O   UNL     1      -2.087   2.351   3.413  0.00  0.00    -0.491 OA
ATOM     29  C   UNL     1      -2.878   2.731   4.541  0.00  0.00    +0.277 C 
ENDBRANCH  16  28
BRANCH  15  30
ATOM     30  O   UNL     1      -0.682   1.547   1.184  0.00  0.00    -0.491 OA
ATOM     31  C   UNL     1      -0.013   1.086   0.008  0.00  0.00    +0.277 C 
ENDBRANCH  15  30
BRANCH  11  32
ATOM     32  O   UNL     1      -6.538   0.135  -0.884  0.00  0.00    -0.355 OA
ATOM     33  H   UNL     1      -6.289   0.373  -1.787  0.00  0.00    +0.214 HD
ENDBRANCH  11  32
BRANCH   6  34
ATOM     34  O   UNL     1      -7.481  -0.713   5.860  0.00  0.00    -0.506 OA
ATOM     35  H   UNL     1      -7.788   0.184   6.048  0.00  0.00    +0.292 HD
ENDBRANCH   6  34
TORSDOF 6
