REMARK  Name = ZINC16906470
REMARK  6 active torsions:
REMARK  status: ('A' for Active; 'I' for Inactive)
REMARK    1  A    between atoms: C_4  and  C_7
REMARK    2  A    between atoms: N_9  and  N_10
REMARK    3  A    between atoms: C_14  and  C_15
REMARK    4  A    between atoms: C_18  and  O_21
REMARK    5  A    between atoms: O_21  and  C_22
REMARK    6  A    between atoms: C_22  and  C_23
REMARK                            x       y       z     vdW  Elec       q    Type
REMARK                         _______ _______ _______ _____ _____    ______ ____
ROOT
ATOM      1  N   UNL     1       5.115   1.448  -0.180  0.00  0.00    -0.169 N 
ATOM      2  C   UNL     1       5.834   1.384   0.928  0.00  0.00    +0.275 C 
ATOM      3  O   UNL     1       5.617   2.118   1.874  0.00  0.00    -0.267 OA
ATOM      4  C   UNL     1       6.911   0.374   0.961  0.00  0.00    +0.079 C 
ATOM      5  C   UNL     1       7.794   0.082   1.950  0.00  0.00    +0.028 C 
ATOM      6  S   UNL     1       6.736  -0.354  -0.662  0.00  0.00    -0.059 S 
ATOM      7  C   UNL     1       5.362   0.636  -1.228  0.00  0.00    +0.138 C 
ATOM      8  S   UNL     1       4.554   0.571  -2.736  0.00  0.00    -0.026 S 
ENDROOT
BRANCH   5   9
ATOM      9  C   UNL     1       7.644   0.700   3.273  0.00  0.00    -0.024 A 
ATOM     10  C   UNL     1       8.774   1.118   3.986  0.00  0.00    +0.011 A 
ATOM     11  C   UNL     1       8.628   1.702   5.224  0.00  0.00    +0.046 A 
ATOM     12  C   UNL     1       7.361   1.865   5.772  0.00  0.00    +0.121 A 
ATOM     13  C   UNL     1       6.235   1.446   5.072  0.00  0.00    +0.046 A 
ATOM     14  C   UNL     1       6.370   0.867   3.831  0.00  0.00    +0.011 A 
BRANCH  12  15
ATOM     15  O   UNL     1       7.222   2.436   6.997  0.00  0.00    -0.481 OA
BRANCH  15  16
ATOM     16  C   UNL     1       8.420   2.844   7.661  0.00  0.00    +0.353 C 
BRANCH  16  17
ATOM     17  C   UNL     1       8.071   3.450   8.996  0.00  0.00    +0.393 C 
ATOM     18  O   UNL     1       6.916   3.526   9.342  0.00  0.00    -0.243 OA
ATOM     19  O   UNL     1       9.044   3.907   9.800  0.00  0.00    -0.243 OA
ENDBRANCH  16  17
ENDBRANCH  15  16
ENDBRANCH  12  15
ENDBRANCH   5   9
BRANCH   1  22
ATOM     20  C   UNL     1       2.794   1.979  -0.172  0.00  0.00    +0.261 C 
ATOM     21  O   UNL     1       2.539   0.801  -0.009  0.00  0.00    -0.269 OA
ATOM     22  N   UNL     1       4.076   2.384  -0.269  0.00  0.00    -0.222 N 
ATOM     23  H   UNL     1       4.279   3.323  -0.400  0.00  0.00    +0.174 HD
BRANCH  20  27
ATOM     24  C   UNL     1      -0.355   4.816  -0.441  0.00  0.00    +0.000 A 
ATOM     25  C   UNL     1      -0.649   3.476  -0.261  0.00  0.00    +0.001 A 
ATOM     26  C   UNL     1       0.369   2.550  -0.167  0.00  0.00    +0.013 A 
ATOM     27  C   UNL     1       1.698   2.966  -0.266  0.00  0.00    +0.038 A 
ATOM     28  C   UNL     1       1.987   4.319  -0.454  0.00  0.00    +0.013 A 
ATOM     29  C   UNL     1       0.960   5.235  -0.541  0.00  0.00    +0.001 A 
ENDBRANCH  20  27
ENDBRANCH   1  22
TORSDOF 6
