REMARK  Name = ZINC60369149
REMARK  8 active torsions:
REMARK  status: ('A' for Active; 'I' for Inactive)
REMARK    1  A    between atoms: C_1  and  C_2
REMARK    2  A    between atoms: C_5  and  N_8
REMARK    3  A    between atoms: C_11  and  C_13
REMARK    4  A    between atoms: N_15  and  C_16
REMARK    5  A    between atoms: C_16  and  C_17
REMARK    6  A    between atoms: C_17  and  C_18
REMARK    7  A    between atoms: C_18  and  N_19
REMARK    8  A    between atoms: C_23  and  C_26
REMARK                            x       y       z     vdW  Elec       q    Type
REMARK                         _______ _______ _______ _____ _____    ______ ____
ROOT
ATOM      1  C   UNL     1      -0.838  -7.340  -1.380  0.00  0.00    +0.264 C 
ATOM      2  O   UNL     1      -0.569  -8.471  -1.024  0.00  0.00    -0.268 OA
ATOM      3  N   UNL     1      -1.605  -7.142  -2.470  0.00  0.00    -0.310 N 
ATOM      4  H   UNL     1      -1.821  -6.240  -2.754  0.00  0.00    +0.149 HD
ENDROOT
BRANCH   1   8
ATOM      5  N   UNL     1       0.058  -4.172  -0.021  0.00  0.00    -0.236 N 
ATOM      6  C   UNL     1       0.708  -4.948   0.888  0.00  0.00    +0.049 A 
ATOM      7  C   UNL     1       0.486  -6.233   0.540  0.00  0.00    +0.006 A 
ATOM      8  C   UNL     1      -0.325  -6.185  -0.618  0.00  0.00    +0.151 A 
ATOM      9  N   UNL     1      -0.541  -4.911  -0.884  0.00  0.00    -0.161 NA
ATOM     10  C   UNL     1       1.177  -7.169   1.502  0.00  0.00    +0.040 C 
ATOM     11  C   UNL     1       2.208  -6.289   2.244  0.00  0.00    +0.011 C 
ATOM     12  C   UNL     1       1.573  -4.885   2.127  0.00  0.00    +0.056 C 
BRANCH   5  17
ATOM     13  C   UNL     1      -0.018   1.503   0.010  0.00  0.00    +0.044 C 
ATOM     14  C   UNL     1       0.002  -0.004   0.002  0.00  0.00    -0.050 A 
ATOM     15  C   UNL     1       0.006  -0.687  -1.200  0.00  0.00    +0.005 A 
ATOM     16  C   UNL     1       0.024  -2.068  -1.211  0.00  0.00    +0.028 A 
ATOM     17  C   UNL     1       0.040  -2.771  -0.013  0.00  0.00    +0.066 A 
ATOM     18  C   UNL     1       0.036  -2.082   1.192  0.00  0.00    +0.028 A 
ATOM     19  C   UNL     1       0.023  -0.700   1.196  0.00  0.00    +0.005 A 
ENDBRANCH   5  17
ENDBRANCH   1   8
BRANCH   3  20
ATOM     20  C   UNL     1      -2.115  -8.289  -3.226  0.00  0.00    +0.103 C 
BRANCH  20  21
ATOM     21  C   UNL     1      -2.951  -7.791  -4.407  0.00  0.00    +0.000 C 
BRANCH  21  22
ATOM     22  C   UNL     1      -3.482  -8.988  -5.196  0.00  0.00    -0.077 C 
BRANCH  22  23
ATOM     23  N   UNL     1      -4.285  -8.510  -6.330  0.00  0.00    +0.380 N 
ATOM     24  C   UNL     1      -5.472  -7.809  -5.826  0.00  0.00    -0.079 C 
ATOM     25  C   UNL     1      -6.269  -7.239  -7.001  0.00  0.00    -0.018 C 
ATOM     26  C   UNL     1      -6.703  -8.384  -7.920  0.00  0.00    +0.009 C 
ATOM     27  C   UNL     1      -5.462  -9.154  -8.380  0.00  0.00    +0.058 C 
ATOM     28  C   UNL     1      -4.695  -9.653  -7.154  0.00  0.00    -0.066 C 
ATOM     29  H   UNL     1      -3.733  -7.875  -6.887  0.00  0.00    -0.082 HD
BRANCH  27  30
ATOM     30  C   UNL     1      -5.884 -10.329  -9.224  0.00  0.00    +0.212 C 
ATOM     31  O   UNL     1      -5.595 -11.456  -8.882  0.00  0.00    -0.276 OA
ATOM     32  N   UNL     1      -6.581 -10.127 -10.360  0.00  0.00    -0.329 N 
ATOM     33  H   UNL     1      -6.812  -9.226 -10.634  0.00  0.00    +0.145 HD
ATOM     34  H   UNL     1      -6.852 -10.884 -10.903  0.00  0.00    +0.145 HD
ENDBRANCH  27  30
ENDBRANCH  22  23
ENDBRANCH  21  22
ENDBRANCH  20  21
ENDBRANCH   3  20
TORSDOF 7
