REMARK  Name = ZINC12873845
REMARK  3 active torsions:
REMARK  status: ('A' for Active; 'I' for Inactive)
REMARK    1  A    between atoms: C_1  and  C_2
REMARK    2  A    between atoms: C_2  and  C_3
REMARK    3  A    between atoms: N_21  and  C_24
REMARK                            x       y       z     vdW  Elec       q    Type
REMARK                         _______ _______ _______ _____ _____    ______ ____
ROOT
ATOM      1  C   UNL     1       4.245  -0.570   2.372  0.00  0.00    -0.047 A 
ATOM      2  C   UNL     1       5.197  -1.572   2.417  0.00  0.00    +0.005 A 
ATOM      3  C   UNL     1       4.861  -2.868   2.086  0.00  0.00    +0.024 A 
ATOM      4  C   UNL     1       3.558  -3.177   1.701  0.00  0.00    +0.036 A 
ATOM      5  C   UNL     1       2.609  -2.161   1.659  0.00  0.00    -0.027 A 
ATOM      6  C   UNL     1       2.949  -0.868   1.991  0.00  0.00    +0.008 A 
ATOM      7  C   UNL     1       1.329  -2.811   1.214  0.00  0.00    +0.053 C 
ATOM      8  C   UNL     1       0.805  -2.188  -0.084  0.00  0.00    +0.089 C 
ATOM      9  C   UNL     1      -0.741  -2.209   0.065  0.00  0.00    +0.074 C 
ATOM     10  C   UNL     1      -1.004  -2.842   1.444  0.00  0.00    -0.054 C 
ATOM     11  C   UNL     1       0.208  -1.228   2.659  0.00  0.00    -0.076 C 
ATOM     12  C   UNL     1      -1.272  -0.966   3.001  0.00  0.00    -0.020 C 
ATOM     13  C   UNL     1      -2.064  -2.011   2.191  0.00  0.00    -0.016 C 
ATOM     14  C   UNL     1      -1.108  -0.743   0.112  0.00  0.00    +0.228 C 
ATOM     15  O   UNL     1      -2.232  -0.306   0.230  0.00  0.00    -0.275 OA
ATOM     16  N   UNL     1       0.002  -0.004   0.002  0.00  0.00    -0.210 N 
ATOM     17  C   UNL     1       1.132  -0.712  -0.111  0.00  0.00    +0.229 C 
ATOM     18  O   UNL     1       2.245  -0.243  -0.218  0.00  0.00    -0.275 OA
ATOM     19  C   UNL     1       1.675  -4.263   1.024  0.00  0.00    +0.212 C 
ATOM     20  O   UNL     1       0.924  -5.146   0.667  0.00  0.00    -0.277 OA
ATOM     21  N   UNL     1       2.982  -4.392   1.325  0.00  0.00    -0.286 N 
ATOM     22  H   UNL     1       3.466  -5.232   1.285  0.00  0.00    +0.155 HD
ATOM     23  N   UNL     1       0.229  -2.620   2.164  0.00  0.00    +0.395 N 
ATOM     24  H   UNL     1       0.318  -3.276   2.950  0.00  0.00    -0.079 HD
ENDROOT
BRANCH  16  25
ATOM     25  C   UNL     1      -0.017   1.399   0.010  0.00  0.00    +0.048 A 
ATOM     26  C   UNL     1       0.538   2.095   1.075  0.00  0.00    +0.028 A 
ATOM     27  C   UNL     1       0.518   3.476   1.084  0.00  0.00    +0.051 A 
ATOM     28  C   UNL     1      -0.055   4.172   0.029  0.00  0.00    +0.162 A 
ATOM     29  C   UNL     1      -0.609   3.477  -1.040  0.00  0.00    +0.164 A 
ATOM     30  C   UNL     1      -0.585   2.091  -1.050  0.00  0.00    +0.073 A 
ATOM     31  O   UNL     1      -1.172   4.142  -2.086  0.00  0.00    -0.485 OA
ATOM     32  C   UNL     1      -1.508   5.517  -1.868  0.00  0.00    +0.270 C 
ATOM     33  C   UNL     1      -0.316   6.200  -1.185  0.00  0.00    +0.270 C 
ATOM     34  O   UNL     1      -0.069   5.533   0.058  0.00  0.00    -0.485 OA
ENDBRANCH  16  25
BRANCH   1  36
ATOM     35  C   UNL     1       4.402   1.060   4.234  0.00  0.00    +0.009 C 
ATOM     36  C   UNL     1       4.619   0.844   2.735  0.00  0.00    +0.032 C 
ENDBRANCH   1  36
TORSDOF 2
