REMARK  Name = ZINC23109369
REMARK  7 active torsions:
REMARK  status: ('A' for Active; 'I' for Inactive)
REMARK    1  A    between atoms: C_3  and  C_16
REMARK    2  A    between atoms: N_6  and  C_8
REMARK    3  A    between atoms: C_8  and  C_9
REMARK    4  A    between atoms: N_18  and  N_19
REMARK    5  A    between atoms: C_20  and  C_22
REMARK    6  A    between atoms: C_22  and  C_23
REMARK    7  A    between atoms: C_26  and  N_29
REMARK                            x       y       z     vdW  Elec       q    Type
REMARK                         _______ _______ _______ _____ _____    ______ ____
ROOT
ATOM      1  C   UNL     1       1.246  -5.790  -3.272  0.00  0.00    +0.265 C 
ATOM      2  O   UNL     1       1.372  -6.582  -2.357  0.00  0.00    -0.268 OA
ATOM      3  N   UNL     1       1.214  -4.466  -3.018  0.00  0.00    -0.230 N 
ATOM      4  H   UNL     1       1.185  -3.747  -3.849  0.00  0.00    +0.173 HD
ENDROOT
BRANCH   1   7
ATOM      5  C   UNL     1       0.927  -8.064  -6.246  0.00  0.00    +0.019 A 
ATOM      6  C   UNL     1       1.038  -7.640  -4.922  0.00  0.00    +0.020 A 
ATOM      7  C   UNL     1       1.128  -6.276  -4.655  0.00  0.00    +0.103 A 
ATOM      8  C   UNL     1       1.097  -5.363  -5.741  0.00  0.00    +0.264 A 
ATOM      9  O   UNL     1       1.169  -4.164  -5.534  0.00  0.00    -0.267 OA
ATOM     10  N   UNL     1       0.994  -5.826  -7.001  0.00  0.00    -0.310 N 
ATOM     11  C   UNL     1       0.907  -7.154  -7.253  0.00  0.00    +0.089 A 
BRANCH  10  12
ATOM     12  C   UNL     1       0.969  -4.877  -8.118  0.00  0.00    +0.160 C 
BRANCH  12  13
ATOM     13  C   UNL     1      -0.455  -4.477  -8.405  0.00  0.00    -0.027 A 
ATOM     14  C   UNL     1      -1.206  -5.201  -9.313  0.00  0.00    +0.008 A 
ATOM     15  C   UNL     1      -2.514  -4.838  -9.574  0.00  0.00    +0.038 A 
ATOM     16  C   UNL     1      -3.068  -3.743  -8.934  0.00  0.00    +0.123 A 
ATOM     17  C   UNL     1      -2.313  -3.015  -8.029  0.00  0.00    +0.038 A 
ATOM     18  C   UNL     1      -1.008  -3.383  -7.766  0.00  0.00    +0.008 A 
ATOM     19  F   UNL     1      -4.345  -3.384  -9.192  0.00  0.00    -0.205 F 
ENDBRANCH  12  13
ENDBRANCH  10  12
ENDBRANCH   1   7
BRANCH   3  20
ATOM     20  N   UNL     1       1.218  -4.007  -1.694  0.00  0.00    -0.234 N 
ATOM     21  C   UNL     1       1.186  -2.684  -1.440  0.00  0.00    +0.233 C 
ATOM     22  O   UNL     1       1.154  -1.891  -2.357  0.00  0.00    -0.274 OA
ATOM     23  H   UNL     1       1.247  -4.727  -0.863  0.00  0.00    +0.173 HD
BRANCH  21  24
ATOM     24  C   UNL     1       1.191  -2.190  -0.016  0.00  0.00    +0.132 C 
BRANCH  24  25
ATOM     25  C   UNL     1       1.151  -0.683  -0.007  0.00  0.00    -0.038 A 
ATOM     26  C   UNL     1      -0.064  -0.024   0.012  0.00  0.00    +0.006 A 
ATOM     27  C   UNL     1      -0.100   1.358   0.021  0.00  0.00    +0.033 A 
ATOM     28  C   UNL     1       1.079   2.080   0.011  0.00  0.00    +0.126 A 
ATOM     29  C   UNL     1       2.293   1.421  -0.009  0.00  0.00    +0.033 A 
ATOM     30  C   UNL     1       2.330   0.039  -0.017  0.00  0.00    +0.006 A 
BRANCH  28  31
ATOM     31  N   UNL     1       1.040   3.560   0.021  0.00  0.00    +0.056 N 
ATOM     32  O   UNL     1      -0.031   4.141   0.037  0.00  0.00    -0.126 OA
ATOM     33  O   UNL     1       2.078   4.196   0.013  0.00  0.00    -0.126 OA
ENDBRANCH  28  31
ENDBRANCH  24  25
ENDBRANCH  21  24
ENDBRANCH   3  20
TORSDOF 7
