REMARK  Name = ZINC14021708
REMARK  8 active torsions:
REMARK  status: ('A' for Active; 'I' for Inactive)
REMARK    1  A    between atoms: C_1  and  C_2
REMARK    2  A    between atoms: C_5  and  S_8
REMARK    3  A    between atoms: S_8  and  N_11
REMARK    4  A    between atoms: C_15  and  C_18
REMARK    5  A    between atoms: N_20  and  C_21
REMARK    6  A    between atoms: C_22  and  C_26
REMARK    7  A    between atoms: C_26  and  O_28
REMARK    8  A    between atoms: O_28  and  C_29
REMARK                            x       y       z     vdW  Elec       q    Type
REMARK                         _______ _______ _______ _____ _____    ______ ____
ROOT
ATOM      1  N   UNL     1       0.024  -0.502   1.581  0.00  0.00    -0.176 NA
ATOM      2  C   UNL     1       1.298  -0.716   2.281  0.00  0.00    +0.109 C 
ATOM      3  C   UNL     1       1.285   0.104   3.580  0.00  0.00    +0.018 C 
ATOM      4  C   UNL     1       0.048  -0.269   4.400  0.00  0.00    +0.015 C 
ATOM      5  C   UNL     1      -1.215   0.070   3.604  0.00  0.00    +0.091 C 
ATOM      6  C   UNL     1      -1.230  -0.745   2.307  0.00  0.00    +0.122 C 
ENDROOT
BRANCH   5   7
ATOM      7  C   UNL     1      -2.433  -0.267   4.425  0.00  0.00    +0.222 C 
ATOM      8  O   UNL     1      -3.235  -1.079   4.014  0.00  0.00    -0.275 OA
ATOM      9  N   UNL     1      -2.631   0.333   5.615  0.00  0.00    -0.279 N 
ATOM     10  H   UNL     1      -1.989   0.982   5.944  0.00  0.00    +0.155 HD
BRANCH   9  11
ATOM     11  C   UNL     1      -3.751   0.022   6.370  0.00  0.00    +0.086 A 
ATOM     12  C   UNL     1      -4.126   0.530   7.610  0.00  0.00    +0.087 A 
ATOM     13  C   UNL     1      -5.355   0.025   8.173  0.00  0.00    +0.024 A 
ATOM     14  C   UNL     1      -6.030  -0.890   7.454  0.00  0.00    +0.048 A 
ATOM     15  S   UNL     1      -5.027  -1.086   5.995  0.00  0.00    -0.081 S 
BRANCH  12  16
ATOM     16  C   UNL     1      -3.313   1.528   8.309  0.00  0.00    +0.341 C 
ATOM     17  O   UNL     1      -2.282   1.933   7.807  0.00  0.00    -0.245 OA
BRANCH  16  18
ATOM     18  O   UNL     1      -3.708   1.998   9.510  0.00  0.00    -0.464 OA
ATOM     19  C   UNL     1      -2.853   2.985  10.145  0.00  0.00    +0.280 C 
ENDBRANCH  16  18
ENDBRANCH  12  16
ENDBRANCH   9  11
ENDBRANCH   5   7
BRANCH   1  20
ATOM     20  S   UNL     1       0.002  -0.004   0.002  0.00  0.00    +0.061 S 
ATOM     21  O   UNL     1      -1.243  -0.424  -0.539  0.00  0.00    -0.153 OA
ATOM     22  O   UNL     1       1.248  -0.390  -0.563  0.00  0.00    -0.153 OA
BRANCH  20  27
ATOM     23  C   UNL     1      -0.080   6.029   0.033  0.00  0.00    +0.044 C 
ATOM     24  C   UNL     1      -0.059   4.522   0.026  0.00  0.00    -0.050 A 
ATOM     25  C   UNL     1       1.147   3.847   0.011  0.00  0.00    +0.005 A 
ATOM     26  C   UNL     1       1.166   2.465   0.004  0.00  0.00    +0.029 A 
ATOM     27  C   UNL     1      -0.022   1.758   0.012  0.00  0.00    +0.105 A 
ATOM     28  C   UNL     1      -1.228   2.433   0.021  0.00  0.00    +0.029 A 
ATOM     29  C   UNL     1      -1.247   3.815   0.034  0.00  0.00    +0.005 A 
ENDBRANCH  20  27
ENDBRANCH   1  20
TORSDOF 6
