REMARK  Name = ZINC07523975
REMARK  10 active torsions:
REMARK  status: ('A' for Active; 'I' for Inactive)
REMARK    1  A    between atoms: C_3  and  C_6
REMARK    2  A    between atoms: C_6  and  O_7
REMARK    3  A    between atoms: O_7  and  C_8
REMARK    4  A    between atoms: C_11  and  C_14
REMARK    5  A    between atoms: C_14  and  N_48
REMARK    6  A    between atoms: C_15  and  C_16
REMARK    7  A    between atoms: C_15  and  N_48
REMARK    8  A    between atoms: C_16  and  C_17
REMARK    9  A    between atoms: C_20  and  S_23
REMARK   10  A    between atoms: S_23  and  N_26
REMARK                            x       y       z     vdW  Elec       q    Type
REMARK                         _______ _______ _______ _____ _____    ______ ____
ROOT
ATOM      1  N   UNL     1      -9.185   0.117   2.191  0.00  0.00    +0.382 N 
ATOM      2  H   UNL     1      -9.143   0.655   1.317  0.00  0.00    -0.085 HD
ATOM      3  H   UNL     1      -8.931   0.724   2.979  0.00  0.00    -0.085 HD
ENDROOT
BRANCH   1   4
ATOM      4  C   UNL     1      -8.233  -1.008   2.117  0.00  0.00    -0.047 C 
BRANCH   4   8
ATOM      5  C   UNL     1      -4.287   0.531   1.549  0.00  0.00    +0.121 A 
ATOM      6  C   UNL     1      -5.083   0.237   0.451  0.00  0.00    +0.046 A 
ATOM      7  C   UNL     1      -6.356  -0.267   0.637  0.00  0.00    +0.005 A 
ATOM      8  C   UNL     1      -6.842  -0.465   1.916  0.00  0.00    -0.064 A 
ATOM      9  C   UNL     1      -6.053  -0.167   3.012  0.00  0.00    +0.005 A 
ATOM     10  C   UNL     1      -4.777   0.331   2.831  0.00  0.00    +0.046 A 
BRANCH   5  11
ATOM     11  O   UNL     1      -3.032   1.021   1.368  0.00  0.00    -0.487 OA
BRANCH  11  12
ATOM     12  C   UNL     1      -2.594   1.202   0.020  0.00  0.00    +0.271 C 
BRANCH  12  15
ATOM     13  C   UNL     1       1.169   1.793   0.001  0.00  0.00    +0.008 A 
ATOM     14  C   UNL     1      -0.013   1.076   0.008  0.00  0.00    +0.014 A 
ATOM     15  C   UNL     1      -1.190   1.748   0.017  0.00  0.00    +0.027 A 
ATOM     16  S   UNL     1      -0.644   3.448   0.027  0.00  0.00    -0.098 S 
ATOM     17  C   UNL     1       1.115   3.148   0.008  0.00  0.00    +0.045 A 
ENDBRANCH  12  15
ENDBRANCH  11  12
ENDBRANCH   5  11
ENDBRANCH   4   8
ENDBRANCH   1   4
BRANCH   1  18
ATOM     18  C   UNL     1     -10.557  -0.386   2.387  0.00  0.00    -0.077 C 
BRANCH  18  19
ATOM     19  C   UNL     1     -11.520   0.801   2.460  0.00  0.00    +0.016 C 
BRANCH  19  20
ATOM     20  C   UNL     1     -12.926   0.296   2.661  0.00  0.00    -0.049 A 
ATOM     21  C   UNL     1     -13.724   0.020   1.566  0.00  0.00    +0.005 A 
ATOM     22  C   UNL     1     -15.012  -0.448   1.750  0.00  0.00    +0.029 A 
ATOM     23  C   UNL     1     -15.505  -0.630   3.029  0.00  0.00    +0.105 A 
ATOM     24  C   UNL     1     -14.709  -0.349   4.123  0.00  0.00    +0.029 A 
ATOM     25  C   UNL     1     -13.419   0.114   3.939  0.00  0.00    +0.005 A 
BRANCH  23  26
ATOM     26  S   UNL     1     -17.148  -1.222   3.263  0.00  0.00    +0.056 S 
ATOM     27  O   UNL     1     -17.498  -1.928   2.080  0.00  0.00    -0.153 OA
ATOM     28  O   UNL     1     -17.182  -1.826   4.549  0.00  0.00    -0.153 OA
BRANCH  26  29
ATOM     29  N   UNL     1     -18.140   0.102   3.335  0.00  0.00    -0.204 NA
ATOM     30  H   UNL     1     -19.058   0.037   3.031  0.00  0.00    +0.144 HD
ATOM     31  H   UNL     1     -17.801   0.943   3.681  0.00  0.00    +0.144 HD
ENDBRANCH  26  29
ENDBRANCH  23  26
ENDBRANCH  19  20
ENDBRANCH  18  19
ENDBRANCH   1  18
TORSDOF 10
