REMARK  Name = ZINC12497325
REMARK  9 active torsions:
REMARK  status: ('A' for Active; 'I' for Inactive)
REMARK    1  A    between atoms: C_1  and  C_2
REMARK    2  A    between atoms: C_2  and  C_3
REMARK    3  A    between atoms: C_3  and  C_29
REMARK    4  A    between atoms: C_8  and  C_10
REMARK    5  A    between atoms: C_13  and  O_16
REMARK    6  A    between atoms: N_19  and  C_22
REMARK    7  A    between atoms: C_25  and  C_28
REMARK    8  A    between atoms: C_29  and  O_31
REMARK    9  A    between atoms: O_31  and  C_32
REMARK                            x       y       z     vdW  Elec       q    Type
REMARK                         _______ _______ _______ _____ _____    ______ ____
ROOT
ATOM      1  C   UNL     1      -6.069   4.479   0.124  0.00  0.00    +0.043 C 
ATOM      2  C   UNL     1      -4.632   4.248   0.422  0.00  0.00    +0.086 C 
ATOM      3  C   UNL     1      -3.968   5.476  -0.318  0.00  0.00    +0.077 C 
ATOM      4  C   UNL     1      -4.845   6.563   0.256  0.00  0.00    -0.027 C 
ATOM      5  C   UNL     1      -2.564   5.190   0.053  0.00  0.00    +0.229 C 
ATOM      6  O   UNL     1      -1.692   5.993   0.309  0.00  0.00    -0.275 OA
ATOM      7  N   UNL     1      -2.459   3.824   0.046  0.00  0.00    -0.210 N 
ATOM      8  C   UNL     1      -3.682   3.202   0.048  0.00  0.00    +0.229 C 
ATOM      9  O   UNL     1      -3.921   2.040  -0.202  0.00  0.00    -0.275 OA
ATOM     10  N   UNL     1      -6.207   5.964   0.126  0.00  0.00    +0.395 N 
ATOM     11  H   UNL     1      -6.792   6.257   0.917  0.00  0.00    -0.083 HD
ATOM     12  H   UNL     1      -6.640   6.273  -0.752  0.00  0.00    -0.083 HD
ENDROOT
BRANCH   7  13
ATOM     13  C   UNL     1      -1.236   3.138   0.031  0.00  0.00    +0.044 A 
ATOM     14  C   UNL     1      -1.218   1.749   0.017  0.00  0.00    +0.024 A 
ATOM     15  C   UNL     1      -0.013   1.076   0.008  0.00  0.00    +0.005 A 
ATOM     16  C   UNL     1       1.176   1.783   0.000  0.00  0.00    -0.050 A 
ATOM     17  C   UNL     1       1.161   3.165   0.008  0.00  0.00    +0.005 A 
ATOM     18  C   UNL     1      -0.042   3.845   0.024  0.00  0.00    +0.024 A 
ATOM     19  C   UNL     1       2.490   1.045  -0.016  0.00  0.00    +0.044 C 
ENDBRANCH   7  13
BRANCH   4  20
ATOM     20  C   UNL     1      -4.724   7.830  -0.551  0.00  0.00    -0.060 A 
ATOM     21  C   UNL     1      -5.418   7.961  -1.740  0.00  0.00    +0.005 A 
ATOM     22  C   UNL     1      -5.313   9.124  -2.478  0.00  0.00    +0.045 A 
ATOM     23  C   UNL     1      -4.502  10.157  -2.031  0.00  0.00    +0.117 A 
ATOM     24  C   UNL     1      -3.802  10.021  -0.841  0.00  0.00    +0.045 A 
ATOM     25  C   UNL     1      -3.914   8.858  -0.104  0.00  0.00    +0.005 A 
BRANCH  23  26
ATOM     26  O   UNL     1      -4.392  11.300  -2.758  0.00  0.00    -0.507 OA
ATOM     27  H   UNL     1      -3.678  11.285  -3.410  0.00  0.00    +0.292 HD
ENDBRANCH  23  26
ENDBRANCH   4  20
BRANCH   1  29
ATOM     28  C   UNL     1      -7.847   4.336  -1.625  0.00  0.00    +0.003 C 
ATOM     29  C   UNL     1      -6.428   3.907  -1.249  0.00  0.00    -0.004 C 
ENDBRANCH   1  29
BRANCH   1  30
ATOM     30  C   UNL     1      -6.936   3.863   1.192  0.00  0.00    +0.297 C 
ATOM     31  O   UNL     1      -6.545   2.898   1.804  0.00  0.00    -0.252 OA
BRANCH  30  32
ATOM     32  O   UNL     1      -8.142   4.387   1.462  0.00  0.00    -0.469 OA
ATOM     33  C   UNL     1      -8.922   3.741   2.503  0.00  0.00    +0.280 C 
ENDBRANCH  30  32
ENDBRANCH   1  30
TORSDOF 6
