REMARK  Name = ZINC53363415
REMARK  4 active torsions:
REMARK  status: ('A' for Active; 'I' for Inactive)
REMARK    1  A    between atoms: C_4  and  O_29
REMARK    2  A    between atoms: C_5  and  C_7
REMARK    3  A    between atoms: C_10  and  C_22
REMARK    4  A    between atoms: C_12  and  C_15
REMARK                            x       y       z     vdW  Elec       q    Type
REMARK                         _______ _______ _______ _____ _____    ______ ____
ROOT
ATOM      1  C   UNL     1       1.227  -2.187  -0.022  0.00  0.00    +0.095 C 
ATOM      2  C   UNL     1       1.454  -2.692  -1.450  0.00  0.00    +0.079 C 
ATOM      3  C   UNL     1       1.161  -4.165  -1.513  0.00  0.00    +0.047 C 
ATOM      4  N   UNL     1       0.513  -4.788  -0.602  0.00  0.00    -0.264 NA
ATOM      5  C   UNL     1      -0.008  -4.161   0.606  0.00  0.00    +0.204 C 
ATOM      6  N   UNL     1      -0.070  -2.703   0.449  0.00  0.00    -0.284 NA
ATOM      7  H   UNL     1      -0.345  -2.257   1.311  0.00  0.00    +0.125 HD
ENDROOT
BRANCH   5   8
ATOM      8  C   UNL     1      -1.392  -4.689   0.882  0.00  0.00    -0.009 A 
ATOM      9  C   UNL     1      -2.323  -3.889   1.518  0.00  0.00    +0.008 A 
ATOM     10  C   UNL     1      -3.593  -4.372   1.771  0.00  0.00    +0.020 A 
ATOM     11  C   UNL     1      -3.932  -5.658   1.389  0.00  0.00    +0.041 A 
ATOM     12  C   UNL     1      -3.000  -6.459   0.753  0.00  0.00    +0.020 A 
ATOM     13  C   UNL     1      -1.732  -5.972   0.495  0.00  0.00    +0.008 A 
ATOM     14 CL   UNL     1      -5.526  -6.267   1.708  0.00  0.00    -0.084 Cl
ENDBRANCH   5   8
BRANCH   3  15
ATOM     15  C   UNL     1       1.641  -4.929  -2.681  0.00  0.00    -0.003 A 
ATOM     16  C   UNL     1       2.356  -4.285  -3.694  0.00  0.00    +0.010 A 
ATOM     17  C   UNL     1       2.803  -5.004  -4.783  0.00  0.00    +0.002 A 
ATOM     18  C   UNL     1       2.545  -6.361  -4.874  0.00  0.00    +0.015 A 
ATOM     19  C   UNL     1       1.837  -7.005  -3.874  0.00  0.00    +0.018 A 
ATOM     20  C   UNL     1       1.389  -6.298  -2.776  0.00  0.00    +0.025 A 
ATOM     21 BR   UNL     1       1.488  -8.859  -4.010  0.00  0.00    -0.050 Br
ENDBRANCH   3  15
BRANCH   1  26
ATOM     22  C   UNL     1      -0.017   1.378   0.010  0.00  0.00    +0.001 A 
ATOM     23  C   UNL     1       1.170   2.088   0.002  0.00  0.00    +0.004 A 
ATOM     24  C   UNL     1       2.377   1.417  -0.013  0.00  0.00    +0.046 A 
ATOM     25  C   UNL     1       2.399   0.030  -0.021  0.00  0.00    +0.122 A 
ATOM     26  C   UNL     1       1.207  -0.680  -0.013  0.00  0.00    +0.011 A 
ATOM     27  C   UNL     1       0.002  -0.004   0.002  0.00  0.00    +0.009 A 
BRANCH  25  28
ATOM     28  O   UNL     1       3.586  -0.632  -0.037  0.00  0.00    -0.506 OA
ATOM     29  H   UNL     1       3.938  -0.829   0.842  0.00  0.00    +0.292 HD
ENDBRANCH  25  28
ENDBRANCH   1  26
TORSDOF 4
