REMARK  Name = ZINC21238311
REMARK  3 active torsions:
REMARK  status: ('A' for Active; 'I' for Inactive)
REMARK    1  A    between atoms: C_4  and  C_7
REMARK    2  A    between atoms: C_12  and  C_18
REMARK    3  A    between atoms: C_21  and  N_24
REMARK                            x       y       z     vdW  Elec       q    Type
REMARK                         _______ _______ _______ _____ _____    ______ ____
ROOT
ATOM      1  C   UNL     1       1.416   2.038  -0.001  0.00  0.00    +0.032 C 
ATOM      2  C   UNL     1      -0.018   1.504   0.010  0.00  0.00    +0.059 C 
ATOM      3  C   UNL     1       0.002  -0.004   0.002  0.00  0.00    +0.018 C 
ATOM      4  C   UNL     1       1.015  -0.685   0.578  0.00  0.00    +0.020 C 
ATOM      5  C   UNL     1       1.011  -2.196   0.562  0.00  0.00    +0.063 C 
ATOM      6  C   UNL     1      -0.428  -2.702   0.677  0.00  0.00    +0.109 C 
ATOM      7  C   UNL     1      -1.292  -1.960  -0.310  0.00  0.00    +0.218 C 
ATOM      8  O   UNL     1      -2.224  -2.524  -0.842  0.00  0.00    -0.275 OA
ATOM      9  N   UNL     1      -1.030  -0.674  -0.603  0.00  0.00    -0.289 N 
ATOM     10  C   UNL     1       2.086  -0.019   1.196  0.00  0.00    +0.162 C 
ATOM     11  O   UNL     1       2.973  -0.666   1.717  0.00  0.00    -0.292 OA
ATOM     12  C   UNL     1       2.152   1.485   1.225  0.00  0.00    +0.088 C 
ATOM     13  H   UNL     1      -1.662  -0.160  -1.343  0.00  0.00    +0.155 HD
ENDROOT
BRANCH   1  17
ATOM     14  C   UNL     1       1.359   6.306   0.166  0.00  0.00    +0.000 A 
ATOM     15  C   UNL     1       1.945   5.663  -0.909  0.00  0.00    +0.000 A 
ATOM     16  C   UNL     1       1.963   4.282  -0.963  0.00  0.00    +0.004 A 
ATOM     17  C   UNL     1       1.396   3.543   0.058  0.00  0.00    -0.044 A 
ATOM     18  C   UNL     1       0.807   4.186   1.131  0.00  0.00    +0.004 A 
ATOM     19  C   UNL     1       0.792   5.567   1.187  0.00  0.00    +0.000 A 
ENDBRANCH   1  17
BRANCH   5  20
ATOM     20  C   UNL     1       1.615  -2.687  -0.728  0.00  0.00    -0.039 A 
ATOM     21  C   UNL     1       1.038  -2.342  -1.936  0.00  0.00    +0.006 A 
ATOM     22  C   UNL     1       1.595  -2.789  -3.120  0.00  0.00    +0.033 A 
ATOM     23  C   UNL     1       2.723  -3.587  -3.096  0.00  0.00    +0.126 A 
ATOM     24  C   UNL     1       3.297  -3.936  -1.887  0.00  0.00    +0.033 A 
ATOM     25  C   UNL     1       2.743  -3.486  -0.704  0.00  0.00    +0.006 A 
BRANCH  23  26
ATOM     26  N   UNL     1       3.317  -4.069  -4.363  0.00  0.00    +0.056 N 
ATOM     27  O   UNL     1       4.311  -4.772  -4.342  0.00  0.00    -0.126 OA
ATOM     28  O   UNL     1       2.811  -3.762  -5.428  0.00  0.00    -0.126 OA
ENDBRANCH  23  26
ENDBRANCH   5  20
TORSDOF 3
