REMARK  Name = ZINC20079553
REMARK  12 active torsions:
REMARK  status: ('A' for Active; 'I' for Inactive)
REMARK    1  A    between atoms: C_1  and  C_2
REMARK    2  A    between atoms: C_2  and  C_3
REMARK    3  A    between atoms: C_3  and  C_4
REMARK    4  A    between atoms: C_3  and  C_5
REMARK    5  A    between atoms: C_3  and  N_6
REMARK    6  A    between atoms: C_7  and  C_11
REMARK    7  A    between atoms: C_11  and  C_13
REMARK    8  A    between atoms: C_11  and  N_27
REMARK    9  A    between atoms: C_16  and  C_26
REMARK   10  A    between atoms: C_19  and  C_25
REMARK   11  A    between atoms: N_30  and  C_33
REMARK   12  A    between atoms: C_38  and  C_39
REMARK                            x       y       z     vdW  Elec       q    Type
REMARK                         _______ _______ _______ _____ _____    ______ ____
ROOT
ATOM      1  C   UNL     1       3.676   1.652   3.699  0.00  0.00    +0.162 C 
ENDROOT
BRANCH   1   2
ATOM      2  C   UNL     1       2.235   2.087   3.768  0.00  0.00    +0.042 A 
ATOM      3  C   UNL     1       1.423   1.909   2.697  0.00  0.00    +0.021 A 
ATOM      4  C   UNL     1       0.028   2.343   2.796  0.00  0.00    +0.002 A 
ATOM      5  C   UNL     1      -0.857   2.186   1.725  0.00  0.00    -0.041 A 
ATOM      6  C   UNL     1      -2.151   2.605   1.848  0.00  0.00    +0.004 A 
ATOM      7  C   UNL     1      -2.599   3.177   3.032  0.00  0.00    +0.005 A 
ATOM      8  C   UNL     1      -1.744   3.341   4.100  0.00  0.00    -0.026 A 
ATOM      9  C   UNL     1      -0.421   2.926   3.996  0.00  0.00    +0.052 A 
ATOM     10  N   UNL     1       0.455   3.078   5.050  0.00  0.00    -0.322 N 
ATOM     11  H   UNL     1       0.111   3.533   5.990  0.00  0.00    +0.169 HD
ATOM     12  C   UNL     1       1.735   2.677   4.949  0.00  0.00    +0.254 A 
ATOM     13  O   UNL     1       2.481   2.826   5.901  0.00  0.00    -0.268 OA
ATOM     14  C   UNL     1      -2.242   3.969   5.377  0.00  0.00    +0.046 C 
ATOM     15  C   UNL     1      -0.383   1.563   0.437  0.00  0.00    +0.044 C 
ENDBRANCH   1   2
BRANCH   1  16
ATOM     16  N   UNL     1       4.547   2.787   4.031  0.00  0.00    -0.286 NA
ATOM     17  C   UNL     1       4.281   3.931   3.149  0.00  0.00    +0.104 C 
ATOM     18  C   UNL     1       5.149   5.116   3.578  0.00  0.00    +0.120 C 
ATOM     19  N   UNL     1       6.566   4.728   3.520  0.00  0.00    -0.327 N 
ATOM     20  C   UNL     1       6.832   3.584   4.403  0.00  0.00    +0.120 C 
ATOM     21  C   UNL     1       5.963   2.399   3.974  0.00  0.00    +0.104 C 
BRANCH  19  22
ATOM     22  C   UNL     1       7.394   5.807   3.836  0.00  0.00    +0.034 A 
ATOM     23  C   UNL     1       7.341   6.377   5.102  0.00  0.00    +0.043 A 
ATOM     24  C   UNL     1       8.165   7.443   5.413  0.00  0.00    +0.043 A 
ATOM     25  C   UNL     1       9.034   7.947   4.461  0.00  0.00    +0.020 A 
ATOM     26  C   UNL     1       9.085   7.385   3.200  0.00  0.00    +0.006 A 
ATOM     27  C   UNL     1       8.267   6.317   2.884  0.00  0.00    -0.029 A 
ATOM     28  C   UNL     1       8.324   5.705   1.508  0.00  0.00    +0.045 C 
ATOM     29 CL   UNL     1       8.104   8.153   6.996  0.00  0.00    -0.083 Cl
ENDBRANCH  19  22
ENDBRANCH   1  16
BRANCH   1  31
ATOM     30  N   UNL     1       4.161  -0.756   4.386  0.00  0.00    -0.222 N 
ATOM     31  C   UNL     1       3.911   0.533   4.681  0.00  0.00    +0.174 A 
ATOM     32  N   UNL     1       3.917   0.628   5.988  0.00  0.00    -0.111 NA
ATOM     33  N   UNL     1       4.151  -0.543   6.471  0.00  0.00    -0.023 NA
ATOM     34  N   UNL     1       4.302  -1.381   5.506  0.00  0.00    -0.043 NA
BRANCH  30  35
ATOM     35  C   UNL     1       4.257  -1.339   3.046  0.00  0.00    +0.062 C 
ATOM     36  C   UNL     1       2.956  -1.080   2.283  0.00  0.00    +0.036 C 
ATOM     37  C   UNL     1       5.425  -0.700   2.293  0.00  0.00    +0.036 C 
BRANCH  35  39
ATOM     38  C   UNL     1       4.588  -3.457   1.761  0.00  0.00    +0.006 C 
ATOM     39  C   UNL     1       4.488  -2.847   3.161  0.00  0.00    +0.026 C 
ENDBRANCH  35  39
ENDBRANCH  30  35
ENDBRANCH   1  31
TORSDOF 6
