REMARK  Name = ZINC39634860
REMARK  11 active torsions:
REMARK  status: ('A' for Active; 'I' for Inactive)
REMARK    1  A    between atoms: C_1  and  C_2
REMARK    2  A    between atoms: C_2  and  C_3
REMARK    3  A    between atoms: C_2  and  N_4
REMARK    4  A    between atoms: N_4  and  C_5
REMARK    5  A    between atoms: N_4  and  C_30
REMARK    6  A    between atoms: C_5  and  C_6
REMARK    7  A    between atoms: C_6  and  N_7
REMARK    8  A    between atoms: C_8  and  C_10
REMARK    9  A    between atoms: C_21  and  C_23
REMARK   10  A    between atoms: C_30  and  C_31
REMARK   11  A    between atoms: C_30  and  C_32
REMARK                            x       y       z     vdW  Elec       q    Type
REMARK                         _______ _______ _______ _____ _____    ______ ____
ROOT
ATOM      1  C   UNL     1      -8.005  -0.791  -1.917  0.00  0.00    +0.100 C 
ATOM      2  C   UNL     1      -8.592  -2.094  -2.502  0.00  0.00    +0.121 C 
ATOM      3  N   UNL     1      -9.775  -2.384  -1.657  0.00  0.00    -0.300 N 
ATOM      4  C   UNL     1     -10.385  -1.055  -1.410  0.00  0.00    +0.115 C 
ATOM      5  C   UNL     1      -9.185  -0.110  -1.204  0.00  0.00    -0.004 C 
ATOM      6  C   UNL     1      -9.470   1.250  -1.835  0.00  0.00    -0.010 C 
ATOM      7  C   UNL     1     -10.609   1.933  -1.073  0.00  0.00    -0.082 C 
ATOM      8  N   UNL     1     -10.230   2.094   0.336  0.00  0.00    +0.379 N 
ATOM      9  C   UNL     1     -10.049   0.777   0.960  0.00  0.00    -0.082 C 
ATOM     10  C   UNL     1      -8.886   0.046   0.283  0.00  0.00    -0.010 C 
ATOM     11  C   UNL     1     -10.200  -3.583  -1.214  0.00  0.00    +0.219 C 
ATOM     12  O   UNL     1      -9.536  -4.577  -1.422  0.00  0.00    -0.275 OA
ATOM     13  H   UNL     1      -9.367   2.614   0.394  0.00  0.00    -0.086 HD
ATOM     14  H   UNL     1     -10.956   2.598   0.823  0.00  0.00    -0.086 HD
ENDROOT
BRANCH  11  15
ATOM     15  C   UNL     1     -11.501  -3.691  -0.461  0.00  0.00    +0.079 C 
ATOM     16  C   UNL     1     -11.619  -5.084   0.169  0.00  0.00    +0.017 C 
ATOM     17  C   UNL     1     -12.855  -5.105   1.070  0.00  0.00    +0.027 C 
ATOM     18  C   UNL     1     -14.043  -4.562   0.331  0.00  0.00    -0.031 C 
ATOM     19  C   UNL     1     -13.963  -3.858  -0.752  0.00  0.00    -0.030 C 
ATOM     20  C   UNL     1     -12.672  -3.489  -1.425  0.00  0.00    +0.039 C 
ENDBRANCH  11  15
BRANCH   1  22
ATOM     21  N   UNL     1      -5.956  -0.188  -0.669  0.00  0.00    -0.317 N 
ATOM     22  C   UNL     1      -6.908  -1.105  -0.932  0.00  0.00    +0.218 C 
ATOM     23  O   UNL     1      -6.883  -2.183  -0.377  0.00  0.00    -0.275 OA
ATOM     24  H   UNL     1      -5.976   0.674  -1.113  0.00  0.00    +0.149 HD
BRANCH  21  25
ATOM     25  C   UNL     1      -4.890  -0.494   0.289  0.00  0.00    +0.085 C 
BRANCH  25  26
ATOM     26  C   UNL     1      -3.948   0.706   0.403  0.00  0.00    -0.059 C 
BRANCH  26  27
ATOM     27  N   UNL     1      -2.857   0.386   1.334  0.00  0.00    +0.384 N 
ATOM     28  H   UNL     1      -3.245   0.092   2.218  0.00  0.00    -0.081 HD
BRANCH  27  30
ATOM     29  C   UNL     1      -2.881   2.715   2.092  0.00  0.00    -0.014 C 
ATOM     30  C   UNL     1      -2.022   1.577   1.538  0.00  0.00    -0.074 C 
ATOM     31  C   UNL     1      -0.904   1.252   2.531  0.00  0.00    -0.014 C 
ENDBRANCH  27  30
BRANCH  27  32
ATOM     32  C   UNL     1      -2.038  -0.698   0.775  0.00  0.00    -0.074 C 
ATOM     33  C   UNL     1      -1.010  -0.111  -0.195  0.00  0.00    -0.014 C 
ATOM     34  C   UNL     1      -1.313  -1.426   1.908  0.00  0.00    -0.014 C 
ENDBRANCH  27  32
ENDBRANCH  26  27
ENDBRANCH  25  26
ENDBRANCH  21  25
ENDBRANCH   1  22
TORSDOF 7
