REMARK  Name = ZINC13570335
REMARK  7 active torsions:
REMARK  status: ('A' for Active; 'I' for Inactive)
REMARK    1  A    between atoms: C_1  and  C_2
REMARK    2  A    between atoms: C_8  and  C_25
REMARK    3  A    between atoms: C_10  and  C_11
REMARK    4  A    between atoms: C_11  and  C_12
REMARK    5  A    between atoms: C_13  and  C_19
REMARK    6  A    between atoms: C_17  and  C_18
REMARK    7  A    between atoms: C_29  and  N_31
REMARK                            x       y       z     vdW  Elec       q    Type
REMARK                         _______ _______ _______ _____ _____    ______ ____
ROOT
ATOM      1  C   UNL     1      -0.798   1.736  -0.083  0.00  0.00    +0.089 C 
ATOM      2  C   UNL     1      -0.654   0.243   0.060  0.00  0.00    +0.136 A 
ATOM      3  C   UNL     1      -1.621  -0.666  -0.155  0.00  0.00    +0.091 A 
ATOM      4  C   UNL     1      -1.079  -1.949   0.088  0.00  0.00    +0.172 A 
ATOM      5  N   UNL     1       0.173  -1.796   0.436  0.00  0.00    -0.063 NA
ATOM      6  O   UNL     1       0.463  -0.409   0.418  0.00  0.00    -0.358 OA
ATOM      7  N   UNL     1      -1.757  -3.161  -0.023  0.00  0.00    -0.235 N 
ATOM      8  C   UNL     1      -1.228  -4.483   0.333  0.00  0.00    +0.151 C 
ATOM      9  C   UNL     1      -2.331  -5.471   0.037  0.00  0.00    +0.077 C 
ATOM     10  C   UNL     1      -3.377  -4.758  -0.440  0.00  0.00    +0.250 C 
ATOM     11  O   UNL     1      -4.568  -5.274  -0.825  0.00  0.00    -0.282 OA
ATOM     12  C   UNL     1      -3.015  -3.326  -0.469  0.00  0.00    +0.293 C 
ATOM     13  O   UNL     1      -3.746  -2.430  -0.844  0.00  0.00    -0.266 OA
ENDROOT
BRANCH   8  14
ATOM     14  C   UNL     1      -0.013  -4.796  -0.502  0.00  0.00    -0.020 A 
ATOM     15  C   UNL     1      -0.036  -4.573  -1.866  0.00  0.00    +0.006 A 
ATOM     16  C   UNL     1       1.078  -4.861  -2.632  0.00  0.00    +0.003 A 
ATOM     17  C   UNL     1       2.215  -5.372  -2.034  0.00  0.00    +0.033 A 
ATOM     18  C   UNL     1       2.238  -5.594  -0.670  0.00  0.00    +0.127 A 
ATOM     19  C   UNL     1       1.125  -5.302   0.097  0.00  0.00    +0.038 A 
BRANCH  18  20
ATOM     20  N   UNL     1       3.455  -6.141  -0.029  0.00  0.00    +0.056 N 
ATOM     21  O   UNL     1       4.462  -6.300  -0.680  0.00  0.00    -0.126 OA
ATOM     22  O   UNL     1       3.443  -6.429   1.145  0.00  0.00    -0.126 OA
ENDBRANCH  18  20
ENDBRANCH   8  14
BRANCH   9  23
ATOM     23  C   UNL     1      -2.279  -6.925   0.230  0.00  0.00    +0.197 C 
ATOM     24  O   UNL     1      -1.681  -7.623  -0.568  0.00  0.00    -0.287 OA
BRANCH  23  25
ATOM     25  C   UNL     1      -2.950  -7.539   1.389  0.00  0.00    +0.045 A 
ATOM     26  C   UNL     1      -3.620  -6.843   2.492  0.00  0.00    -0.022 A 
ATOM     27  C   UNL     1      -4.084  -7.797   3.317  0.00  0.00    +0.086 A 
ATOM     28  N   UNL     1      -3.755  -9.022   2.812  0.00  0.00    -0.364 N 
ATOM     29  H   UNL     1      -3.980  -9.870   3.226  0.00  0.00    +0.165 HD
ATOM     30  C   UNL     1      -3.081  -8.886   1.655  0.00  0.00    +0.024 A 
ATOM     31  C   UNL     1      -2.557 -10.011   0.800  0.00  0.00    +0.064 C 
ATOM     32  C   UNL     1      -3.760  -5.352   2.667  0.00  0.00    +0.046 C 
ENDBRANCH  23  25
ENDBRANCH   9  23
TORSDOF 4
