REMARK  Name = ZINC21251373
REMARK  8 active torsions:
REMARK  status: ('A' for Active; 'I' for Inactive)
REMARK    1  A    between atoms: C_1  and  C_2
REMARK    2  A    between atoms: C_10  and  C_13
REMARK    3  A    between atoms: C_18  and  C_23
REMARK    4  A    between atoms: C_26  and  O_29
REMARK    5  A    between atoms: O_29  and  C_30
REMARK    6  A    between atoms: C_30  and  C_31
REMARK    7  A    between atoms: C_31  and  C_32
REMARK    8  A    between atoms: C_31  and  C_33
REMARK                            x       y       z     vdW  Elec       q    Type
REMARK                         _______ _______ _______ _____ _____    ______ ____
ROOT
ATOM      1  C   UNL     1      -3.309   3.629  -1.272  0.00  0.00    +0.143 C 
ATOM      2  C   UNL     1      -3.760   2.201  -1.462  0.00  0.00    +0.037 C 
ATOM      3  C   UNL     1      -3.301   1.132  -0.789  0.00  0.00    +0.017 C 
ATOM      4  C   UNL     1      -3.825  -0.259  -1.104  0.00  0.00    +0.059 C 
ATOM      5  C   UNL     1      -5.291  -0.178  -1.526  0.00  0.00    +0.032 C 
ATOM      6  C   UNL     1      -5.370   0.712  -2.772  0.00  0.00    +0.088 C 
ATOM      7  C   UNL     1      -4.763   2.044  -2.448  0.00  0.00    +0.163 C 
ATOM      8  O   UNL     1      -5.145   3.025  -3.056  0.00  0.00    -0.292 OA
ATOM      9  N   UNL     1      -2.357   1.179   0.185  0.00  0.00    -0.316 N 
ATOM     10  C   UNL     1      -1.161   1.881   0.096  0.00  0.00    +0.052 A 
ATOM     11  C   UNL     1       0.070   1.249   0.121  0.00  0.00    +0.025 A 
ATOM     12  C   UNL     1       1.225   2.012   0.111  0.00  0.00    +0.002 A 
ATOM     13  C   UNL     1       1.150   3.393   0.080  0.00  0.00    +0.002 A 
ATOM     14  C   UNL     1      -0.080   4.026   0.043  0.00  0.00    +0.025 A 
ATOM     15  C   UNL     1      -1.237   3.265   0.037  0.00  0.00    +0.049 A 
ATOM     16  N   UNL     1      -2.496   3.851  -0.085  0.00  0.00    -0.331 N 
ATOM     17  H   UNL     1      -2.513   0.635   1.128  0.00  0.00    +0.152 HD
ATOM     18  H   UNL     1      -2.873   4.488   0.729  0.00  0.00    +0.147 HD
ENDROOT
BRANCH   1  28
ATOM     19  C   UNL     1      -0.172   8.765  -5.808  0.00  0.00    +0.044 C 
ATOM     20  C   UNL     1      -0.484   7.340  -5.431  0.00  0.00    -0.050 A 
ATOM     21  C   UNL     1      -0.031   6.300  -6.230  0.00  0.00    +0.007 A 
ATOM     22  C   UNL     1      -0.305   4.989  -5.902  0.00  0.00    +0.047 A 
ATOM     23  C   UNL     1      -1.043   4.700  -4.761  0.00  0.00    +0.138 A 
ATOM     24  C   UNL     1      -1.501   5.754  -3.953  0.00  0.00    +0.065 A 
ATOM     25  C   UNL     1      -1.217   7.075  -4.295  0.00  0.00    +0.018 A 
ATOM     26  C   UNL     1      -2.287   5.422  -2.750  0.00  0.00    +0.198 A 
ATOM     27  O   UNL     1      -2.717   6.291  -2.011  0.00  0.00    -0.287 OA
ATOM     28  C   UNL     1      -2.518   4.046  -2.485  0.00  0.00    +0.059 A 
ATOM     29  C   UNL     1      -2.032   3.116  -3.328  0.00  0.00    +0.205 A 
ATOM     30  O   UNL     1      -1.324   3.426  -4.419  0.00  0.00    -0.462 OA
ENDBRANCH   1  28
BRANCH   5  31
ATOM     31  C   UNL     1      -5.807  -1.557  -1.848  0.00  0.00    -0.043 A 
ATOM     32  C   UNL     1      -5.218  -2.295  -2.858  0.00  0.00    +0.007 A 
ATOM     33  C   UNL     1      -5.685  -3.562  -3.152  0.00  0.00    +0.046 A 
ATOM     34  C   UNL     1      -6.753  -4.088  -2.440  0.00  0.00    +0.121 A 
ATOM     35  C   UNL     1      -7.345  -3.344  -1.431  0.00  0.00    +0.046 A 
ATOM     36  C   UNL     1      -6.871  -2.080  -1.137  0.00  0.00    +0.007 A 
BRANCH  34  37
ATOM     37  O   UNL     1      -7.217  -5.332  -2.730  0.00  0.00    -0.492 OA
BRANCH  37  38
ATOM     38  C   UNL     1      -6.559  -6.041  -3.782  0.00  0.00    +0.232 C 
BRANCH  38  39
ATOM     39  C   UNL     1      -7.216  -7.411  -3.962  0.00  0.00    +0.020 C 
ATOM     40  C   UNL     1      -8.658  -7.226  -4.440  0.00  0.00    +0.010 C 
ATOM     41  C   UNL     1      -6.434  -8.219  -5.001  0.00  0.00    +0.010 C 
ENDBRANCH  38  39
ENDBRANCH  37  38
ENDBRANCH  34  37
ENDBRANCH   5  31
TORSDOF 5
