REMARK  Name = ZINC04854608
REMARK  6 active torsions:
REMARK  status: ('A' for Active; 'I' for Inactive)
REMARK    1  A    between atoms: C_1  and  C_2
REMARK    2  A    between atoms: C_2  and  C_3
REMARK    3  A    between atoms: C_2  and  C_4
REMARK    4  A    between atoms: C_2  and  C_5
REMARK    5  A    between atoms: C_8  and  N_11
REMARK    6  A    between atoms: C_22  and  C_24
REMARK                            x       y       z     vdW  Elec       q    Type
REMARK                         _______ _______ _______ _____ _____    ______ ____
ROOT
ATOM      1  N   UNL     1      -5.647   4.223  -0.624  0.00  0.00    -0.269 N 
ATOM      2  C   UNL     1      -4.592   4.880  -0.103  0.00  0.00    +0.307 C 
ATOM      3  O   UNL     1      -4.523   6.090  -0.195  0.00  0.00    -0.252 OA
ATOM      4  N   UNL     1      -3.612   4.194   0.519  0.00  0.00    -0.271 N 
ATOM      5  C   UNL     1      -3.736   2.749   0.760  0.00  0.00    +0.132 C 
ATOM      6  C   UNL     1      -2.648   2.009  -0.026  0.00  0.00    +0.140 C 
ATOM      7  N   UNL     1      -1.363   2.689   0.170  0.00  0.00    -0.347 N 
ATOM      8  C   UNL     1      -0.123   2.173  -0.052  0.00  0.00    +0.086 A 
ATOM      9  C   UNL     1       0.789   3.127   0.233  0.00  0.00    +0.019 A 
ATOM     10  C   UNL     1       0.084   4.273   0.657  0.00  0.00    +0.025 A 
ATOM     11  C   UNL     1      -1.224   3.975   0.616  0.00  0.00    +0.044 A 
ATOM     12  C   UNL     1      -2.385   4.868   0.987  0.00  0.00    +0.161 C 
ATOM     13  H   UNL     1      -5.742   3.268  -0.483  0.00  0.00    +0.156 HD
ENDROOT
BRANCH   1  17
ATOM     14  C   UNL     1      -8.503   6.297  -2.838  0.00  0.00    -0.042 A 
ATOM     15  C   UNL     1      -8.883   5.221  -2.058  0.00  0.00    +0.006 A 
ATOM     16  C   UNL     1      -7.939   4.531  -1.323  0.00  0.00    +0.023 A 
ATOM     17  C   UNL     1      -6.607   4.920  -1.368  0.00  0.00    +0.035 A 
ATOM     18  C   UNL     1      -6.229   6.005  -2.148  0.00  0.00    +0.023 A 
ATOM     19  C   UNL     1      -7.177   6.687  -2.885  0.00  0.00    +0.006 A 
BRANCH  14  21
ATOM     20  C   UNL     1     -10.590   7.628  -2.694  0.00  0.00    +0.015 C 
ATOM     21  C   UNL     1      -9.536   7.048  -3.638  0.00  0.00    -0.013 C 
ATOM     22  C   UNL     1      -8.859   8.185  -4.407  0.00  0.00    +0.015 C 
ATOM     23  C   UNL     1     -10.208   6.093  -4.627  0.00  0.00    +0.015 C 
ENDBRANCH  14  21
ENDBRANCH   1  17
BRANCH  12  24
ATOM     24  C   UNL     1      -2.250   6.201   0.295  0.00  0.00    +0.016 A 
ATOM     25  C   UNL     1      -2.094   7.432   0.839  0.00  0.00    +0.013 A 
ATOM     26  C   UNL     1      -1.989   8.527   0.000  0.00  0.00    +0.008 A 
ATOM     27  C   UNL     1      -2.046   8.335  -1.340  0.00  0.00    +0.045 A 
ATOM     28  S   UNL     1      -2.247   6.565  -1.453  0.00  0.00    -0.099 S 
ENDBRANCH  12  24
TORSDOF 3
