REMARK  Name = ZINC12144568
REMARK  3 active torsions:
REMARK  status: ('A' for Active; 'I' for Inactive)
REMARK    1  A    between atoms: C_1  and  C_2
REMARK    2  A    between atoms: C_9  and  C_11
REMARK    3  A    between atoms: C_11  and  N_55
REMARK                            x       y       z     vdW  Elec       q    Type
REMARK                         _______ _______ _______ _____ _____    ______ ____
ROOT
ATOM      1  C   UNL     1       3.474  -4.653  -1.799  0.00  0.00    -0.072 C 
ATOM      2  C   UNL     1       4.721  -5.348  -2.346  0.00  0.00    +0.037 C 
ATOM      3  C   UNL     1       5.924  -4.972  -1.521  0.00  0.00    +0.050 A 
ATOM      4  C   UNL     1       5.915  -3.894  -0.693  0.00  0.00    +0.022 A 
ATOM      5  C   UNL     1       7.078  -3.588   0.041  0.00  0.00    +0.254 A 
ATOM      6  O   UNL     1       7.104  -2.624   0.788  0.00  0.00    -0.268 OA
ATOM      7  N   UNL     1       8.163  -4.377  -0.095  0.00  0.00    -0.295 N 
ATOM      8  H   UNL     1       8.973  -4.184   0.402  0.00  0.00    +0.172 HD
ATOM      9  C   UNL     1       8.114  -5.447  -0.934  0.00  0.00    +0.198 A 
ATOM     10  N   UNL     1       7.025  -5.724  -1.619  0.00  0.00    -0.221 NA
ATOM     11  N   UNL     1       9.216  -6.248  -1.069  0.00  0.00    -0.301 N 
ATOM     12  C   UNL     1       9.489  -6.994   0.186  0.00  0.00    +0.108 C 
ATOM     13  C   UNL     1      10.369  -8.177  -0.288  0.00  0.00    +0.020 C 
ATOM     14  C   UNL     1       9.748  -8.544  -1.655  0.00  0.00    +0.020 C 
ATOM     15  C   UNL     1       8.999  -7.277  -2.110  0.00  0.00    +0.108 C 
ATOM     16  C   UNL     1       4.705  -3.014  -0.532  0.00  0.00    -0.035 C 
ATOM     17  N   UNL     1       3.781  -3.216  -1.661  0.00  0.00    +0.389 N 
ATOM     18  H   UNL     1       4.229  -2.885  -2.524  0.00  0.00    -0.081 HD
ENDROOT
BRANCH  17  19
ATOM     19  C   UNL     1       2.535  -2.448  -1.440  0.00  0.00    +0.019 C 
BRANCH  19  27
ATOM     20  C   UNL     1       3.687   1.565  -1.246  0.00  0.00    +0.028 C 
ATOM     21  C   UNL     1       2.170   1.366  -1.276  0.00  0.00    +0.073 C 
ATOM     22  C   UNL     1       1.551   1.943   0.001  0.00  0.00    +0.022 C 
ATOM     23  C   UNL     1       0.056   1.618   0.029  0.00  0.00    +0.003 C 
ATOM     24  C   UNL     1      -0.138   0.100   0.042  0.00  0.00    +0.019 C 
ATOM     25  C   UNL     1       0.463  -0.498  -1.235  0.00  0.00    +0.108 C 
ATOM     26  N   UNL     1       1.863  -0.069  -1.344  0.00  0.00    -0.300 N 
ATOM     27  C   UNL     1       2.849  -0.975  -1.503  0.00  0.00    +0.199 C 
ATOM     28  O   UNL     1       3.987  -0.605  -1.697  0.00  0.00    -0.278 OA
ENDBRANCH  19  27
ENDBRANCH  17  19
TORSDOF 2
