REMARK  Name = ZINC06742906
REMARK  5 active torsions:
REMARK  status: ('A' for Active; 'I' for Inactive)
REMARK    1  A    between atoms: C_1  and  C_2
REMARK    2  A    between atoms: C_5  and  C_8
REMARK    3  A    between atoms: C_8  and  N_9
REMARK    4  A    between atoms: N_9  and  C_10
REMARK    5  A    between atoms: C_12  and  C_19
REMARK                            x       y       z     vdW  Elec       q    Type
REMARK                         _______ _______ _______ _____ _____    ______ ____
ROOT
ATOM      1  N   UNL     1       1.447  -4.746  -0.032  0.00  0.00    -0.326 N 
ATOM      2  H   UNL     1       2.176  -4.106  -0.032  0.00  0.00    +0.148 HD
ENDROOT
BRANCH   1   3
ATOM      3  C   UNL     1       1.716  -6.095  -0.041  0.00  0.00    +0.109 A 
ATOM      4  C   UNL     1       0.696  -7.010  -0.046  0.00  0.00    +0.065 A 
ATOM      5  C   UNL     1       0.999  -8.371  -0.054  0.00  0.00    +0.045 A 
ATOM      6  N   UNL     1       2.251  -8.777  -0.058  0.00  0.00    -0.216 NA
ATOM      7  C   UNL     1       3.262  -7.898  -0.053  0.00  0.00    +0.257 A 
ATOM      8  N   UNL     1       3.006  -6.548  -0.050  0.00  0.00    -0.254 N 
ATOM      9  C   UNL     1       4.224  -5.935  -0.053  0.00  0.00    +0.232 A 
ATOM     10  N   UNL     1       5.133  -6.873  -0.063  0.00  0.00    -0.136 NA
ATOM     11  N   UNL     1       4.578  -8.034  -0.054  0.00  0.00    -0.109 NA
ATOM     12  C   UNL     1      -0.115  -9.385  -0.060  0.00  0.00    +0.066 C 
ENDBRANCH   1   3
BRANCH   1  13
ATOM     13  C   UNL     1       0.059  -4.275  -0.021  0.00  0.00    +0.138 C 
BRANCH  13  18
ATOM     14  C   UNL     1      -0.018   1.503   0.010  0.00  0.00    +0.044 C 
ATOM     15  C   UNL     1       0.002  -0.004   0.002  0.00  0.00    -0.050 A 
ATOM     16  C   UNL     1       0.006  -0.689  -1.199  0.00  0.00    +0.003 A 
ATOM     17  C   UNL     1       0.025  -2.071  -1.206  0.00  0.00    +0.005 A 
ATOM     18  C   UNL     1       0.040  -2.768  -0.013  0.00  0.00    -0.030 A 
ATOM     19  C   UNL     1       0.037  -2.084   1.188  0.00  0.00    +0.005 A 
ATOM     20  C   UNL     1       0.023  -0.702   1.195  0.00  0.00    +0.003 A 
ENDBRANCH  13  18
ENDBRANCH   1  13
TORSDOF 3
