REMARK  Name = ZINC64066723
REMARK  13 active torsions:
REMARK  status: ('A' for Active; 'I' for Inactive)
REMARK    1  A    between atoms: C_1  and  C_2
REMARK    2  A    between atoms: C_3  and  C_7
REMARK    3  A    between atoms: C_7  and  N_8
REMARK    4  A    between atoms: N_8  and  C_9
REMARK    5  A    between atoms: N_8  and  C_10
REMARK    6  A    between atoms: C_10  and  C_11
REMARK    7  A    between atoms: C_15  and  O_17
REMARK    8  A    between atoms: O_17  and  C_18
REMARK    9  A    between atoms: C_18  and  C_20
REMARK   10  A    between atoms: C_18  and  C_21
REMARK   11  A    between atoms: C_21  and  N_22
REMARK   12  A    between atoms: C_23  and  C_25
REMARK   13  A    between atoms: C_27  and  C_36
REMARK                            x       y       z     vdW  Elec       q    Type
REMARK                         _______ _______ _______ _____ _____    ______ ____
ROOT
ATOM      1  C   UNL     1       6.808  -0.410  -7.051  0.00  0.00    +0.187 C 
ATOM      2  C   UNL     1       7.873  -0.837  -6.038  0.00  0.00    +0.053 C 
ENDROOT
BRANCH   1   3
ATOM      3  O   UNL     1       5.518  -0.804  -6.581  0.00  0.00    -0.488 OA
BRANCH   3   8
ATOM      4  C   UNL     1       4.911   2.018  -4.367  0.00  0.00    -0.060 A 
ATOM      5  C   UNL     1       3.616   1.753  -3.961  0.00  0.00    +0.002 A 
ATOM      6  C   UNL     1       2.958   0.632  -4.431  0.00  0.00    +0.004 A 
ATOM      7  C   UNL     1       3.593  -0.226  -5.309  0.00  0.00    +0.045 A 
ATOM      8  C   UNL     1       4.891   0.038  -5.718  0.00  0.00    +0.121 A 
ATOM      9  C   UNL     1       5.548   1.167  -5.249  0.00  0.00    +0.047 A 
BRANCH   4  10
ATOM     10  C   UNL     1       5.626   3.241  -3.853  0.00  0.00    -0.043 C 
BRANCH  10  11
ATOM     11  N   UNL     1       5.366   4.374  -4.751  0.00  0.00    +0.384 N 
ATOM     12  C   UNL     1       5.960   4.102  -6.067  0.00  0.00    -0.095 C 
ATOM     13  H   UNL     1       4.371   4.503  -4.851  0.00  0.00    -0.081 HD
BRANCH  11  14
ATOM     14  C   UNL     1       5.963   5.593  -4.187  0.00  0.00    -0.017 C 
BRANCH  14  17
ATOM     15  C   UNL     1       3.407   7.394  -3.799  0.00  0.00    +0.071 C 
ATOM     16  C   UNL     1       4.450   7.582  -4.870  0.00  0.00    +0.103 A 
ATOM     17  C   UNL     1       5.593   6.776  -5.044  0.00  0.00    +0.091 A 
ATOM     18  N   UNL     1       6.278   7.212  -6.058  0.00  0.00    -0.056 NA
ATOM     19  O   UNL     1       5.590   8.336  -6.584  0.00  0.00    -0.242 OA
ATOM     20  N   UNL     1       4.434   8.509  -5.781  0.00  0.00    -0.054 NA
ENDBRANCH  14  17
ENDBRANCH  11  14
ENDBRANCH  10  11
ENDBRANCH   4  10
ENDBRANCH   3   8
ENDBRANCH   1   3
BRANCH   1  21
ATOM     21  C   UNL     1       7.088  -1.081  -8.397  0.00  0.00    +0.148 C 
BRANCH  21  22
ATOM     22  N   UNL     1       6.141  -0.581  -9.398  0.00  0.00    -0.310 N 
ATOM     23  C   UNL     1       6.199  -1.034 -10.665  0.00  0.00    +0.240 C 
ATOM     24  O   UNL     1       7.034  -1.856 -10.978  0.00  0.00    -0.273 OA
ATOM     25  H   UNL     1       5.473   0.077  -9.148  0.00  0.00    +0.149 HD
BRANCH  23  26
ATOM     26  C   UNL     1       5.225  -0.520 -11.694  0.00  0.00    +0.193 C 
ATOM     27  C   UNL     1       3.903  -1.243 -11.569  0.00  0.00    -0.033 C 
ATOM     28  C   UNL     1       3.704  -1.868 -12.751  0.00  0.00    +0.001 A 
ATOM     29  C   UNL     1       2.621  -2.721 -13.254  0.00  0.00    +0.030 A 
ATOM     30  C   UNL     1       2.703  -3.213 -14.512  0.00  0.00    +0.042 A 
ATOM     31  C   UNL     1       3.796  -2.929 -15.345  0.00  0.00    +0.022 A 
ATOM     32  C   UNL     1       4.829  -2.153 -14.953  0.00  0.00    +0.027 A 
ATOM     33  C   UNL     1       4.845  -1.583 -13.649  0.00  0.00    +0.043 A 
ATOM     34  N   UNL     1       5.717  -0.810 -13.046  0.00  0.00    -0.370 N 
ATOM     35 CL   UNL     1       1.425  -4.223 -15.111  0.00  0.00    -0.084 Cl
ATOM     36  C   UNL     1       2.992  -1.263 -10.368  0.00  0.00    +0.042 C 
ATOM     37  H   UNL     1       6.548  -0.485 -13.428  0.00  0.00    +0.161 HD
ENDBRANCH  23  26
ENDBRANCH  21  22
ENDBRANCH   1  21
TORSDOF 9
