REMARK  Name = ZINC28566691
REMARK  8 active torsions:
REMARK  status: ('A' for Active; 'I' for Inactive)
REMARK    1  A    between atoms: C_3  and  O_26
REMARK    2  A    between atoms: C_6  and  C_7
REMARK    3  A    between atoms: C_8  and  C_24
REMARK    4  A    between atoms: C_9  and  N_23
REMARK    5  A    between atoms: C_11  and  S_15
REMARK    6  A    between atoms: C_12  and  C_13
REMARK    7  A    between atoms: S_15  and  C_16
REMARK    8  A    between atoms: C_19  and  O_22
REMARK                            x       y       z     vdW  Elec       q    Type
REMARK                         _______ _______ _______ _____ _____    ______ ____
ROOT
ATOM      1  C   UNL     1       2.477   1.069  -0.016  0.00  0.00    +0.023 A 
ATOM      2  C   UNL     1       2.873   0.265   1.072  0.00  0.00    +0.100 A 
ATOM      3  C   UNL     1       4.108  -0.407   1.010  0.00  0.00    +0.136 A 
ATOM      4  N   UNL     1       4.897  -0.283  -0.046  0.00  0.00    -0.223 NA
ATOM      5  C   UNL     1       4.568   0.466  -1.088  0.00  0.00    +0.122 A 
ATOM      6  C   UNL     1       3.350   1.170  -1.117  0.00  0.00    +0.093 A 
ENDROOT
BRANCH   1  12
ATOM      7  C   UNL     1      -0.014   1.076   0.005  0.00  0.00    +0.012 A 
ATOM      8  C   UNL     1      -1.215   1.752   0.015  0.00  0.00    +0.046 A 
ATOM      9  C   UNL     1      -1.233   3.141   0.032  0.00  0.00    +0.117 A 
ATOM     10  C   UNL     1      -0.041   3.854   0.028  0.00  0.00    +0.046 A 
ATOM     11  C   UNL     1       1.164   3.186   0.013  0.00  0.00    +0.012 A 
ATOM     12  C   UNL     1       1.186   1.790   0.001  0.00  0.00    -0.015 A 
BRANCH   9  13
ATOM     13  O   UNL     1      -2.418   3.803   0.048  0.00  0.00    -0.507 OA
ATOM     14  H   UNL     1      -2.434   4.902   0.061  0.00  0.00    +0.292 HD
ENDBRANCH   9  13
ENDBRANCH   1  12
BRANCH   3  15
ATOM     15  N   UNL     1       4.505  -1.201   2.066  0.00  0.00    -0.342 N 
ATOM     16  H   UNL     1       5.469  -1.730   2.025  0.00  0.00    +0.144 HD
ATOM     17  H   UNL     1       3.857  -1.306   2.950  0.00  0.00    +0.144 HD
ENDBRANCH   3  15
BRANCH   6  18
ATOM     18  C   UNL     1       3.003   1.977  -2.249  0.00  0.00    +0.102 C 
ATOM     19  N   UNL     1       2.728   2.616  -3.146  0.00  0.00    -0.191 NA
ENDBRANCH   6  18
BRANCH   2  20
ATOM     20  C   UNL     1       2.029   0.130   2.222  0.00  0.00    +0.103 C 
ATOM     21  N   UNL     1       1.360   0.023   3.133  0.00  0.00    -0.191 NA
ENDBRANCH   2  20
BRANCH   5  22
ATOM     22  S   UNL     1       5.671   0.581  -2.457  0.00  0.00    -0.069 S 
BRANCH  22  23
ATOM     23  C   UNL     1       7.039  -0.335  -1.826  0.00  0.00    +0.014 A 
ATOM     24  C   UNL     1       7.992   0.296  -1.038  0.00  0.00    +0.018 A 
ATOM     25  C   UNL     1       9.061  -0.423  -0.540  0.00  0.00    +0.046 A 
ATOM     26  C   UNL     1       9.188  -1.772  -0.835  0.00  0.00    +0.117 A 
ATOM     27  C   UNL     1       8.238  -2.402  -1.627  0.00  0.00    +0.046 A 
ATOM     28  C   UNL     1       7.166  -1.686  -2.122  0.00  0.00    +0.018 A 
BRANCH  26  29
ATOM     29  O   UNL     1      10.243  -2.478  -0.349  0.00  0.00    -0.507 OA
ATOM     30  H   UNL     1      10.343  -3.549  -0.583  0.00  0.00    +0.292 HD
ENDBRANCH  26  29
ENDBRANCH  22  23
ENDBRANCH   5  22
TORSDOF 8
