REMARK  Name = ZINC31818135
REMARK  3 active torsions:
REMARK  status: ('A' for Active; 'I' for Inactive)
REMARK    1  A    between atoms: C_10  and  C_11
REMARK    2  A    between atoms: C_13  and  C_31
REMARK    3  A    between atoms: C_14  and  N_30
REMARK                            x       y       z     vdW  Elec       q    Type
REMARK                         _______ _______ _______ _____ _____    ______ ____
ROOT
ATOM      1  C   UNL     1       6.019  -1.746  -0.922  0.00  0.00    +0.097 C 
ATOM      2  C   UNL     1       4.822  -2.526  -0.466  0.00  0.00    +0.077 C 
ATOM      3  C   UNL     1       3.695  -1.899  -0.043  0.00  0.00    +0.108 C 
ATOM      4  N   UNL     1       3.639  -0.523  -0.018  0.00  0.00    -0.245 N 
ATOM      5  C   UNL     1       4.790   0.222  -0.031  0.00  0.00    +0.026 C 
ATOM      6  C   UNL     1       5.955  -0.318  -0.442  0.00  0.00    +0.025 C 
ATOM      7  C   UNL     1       7.144   0.433  -0.438  0.00  0.00    +0.162 C 
ATOM      8  O   UNL     1       8.175  -0.081  -0.825  0.00  0.00    -0.292 OA
ATOM      9  C   UNL     1       7.164   1.860   0.038  0.00  0.00    +0.080 C 
ATOM     10  C   UNL     1       6.052   2.056   1.073  0.00  0.00    +0.014 C 
ATOM     11  C   UNL     1       4.720   1.656   0.436  0.00  0.00    +0.052 C 
ATOM     12  C   UNL     1       2.400   0.119   0.014  0.00  0.00    +0.131 A 
ATOM     13  C   UNL     1       1.798   0.513  -1.175  0.00  0.00    +0.045 A 
ATOM     14  C   UNL     1       0.569   1.148  -1.130  0.00  0.00    +0.020 A 
ATOM     15  C   UNL     1      -0.018   1.367   0.110  0.00  0.00    +0.036 A 
ATOM     16  C   UNL     1       0.638   0.948   1.252  0.00  0.00    +0.128 A 
ATOM     17  N   UNL     1       1.809   0.345   1.176  0.00  0.00    -0.239 NA
ATOM     18 BR   UNL     1      -1.692   2.237   0.235  0.00  0.00    -0.049 Br
ENDROOT
BRANCH   1  28
ATOM     19  C   UNL     1       5.017  -1.226  -3.158  0.00  0.00    +0.006 A 
ATOM     20  C   UNL     1       5.045  -1.226  -4.535  0.00  0.00    +0.026 A 
ATOM     21  C   UNL     1       6.140  -1.763  -5.204  0.00  0.00    +0.046 A 
ATOM     22  C   UNL     1       7.206  -2.301  -4.460  0.00  0.00    -0.000 A 
ATOM     23  C   UNL     1       8.184  -2.777  -5.441  0.00  0.00    +0.027 A 
ATOM     24  C   UNL     1       7.681  -2.515  -6.657  0.00  0.00    +0.083 A 
ATOM     25  N   UNL     1       6.460  -1.909  -6.535  0.00  0.00    -0.361 N 
ATOM     26  H   UNL     1       5.763  -1.556  -7.310  0.00  0.00    +0.165 HD
ATOM     27  C   UNL     1       7.160  -2.285  -3.065  0.00  0.00    +0.014 A 
ATOM     28  C   UNL     1       6.072  -1.757  -2.428  0.00  0.00    -0.034 A 
ENDBRANCH   1  28
BRANCH   3  29
ATOM     29  N   UNL     1       2.610  -2.637   0.363  0.00  0.00    -0.345 N 
ATOM     30  H   UNL     1       1.696  -2.130   0.706  0.00  0.00    +0.144 HD
ATOM     31  H   UNL     1       2.654  -3.736   0.344  0.00  0.00    +0.144 HD
ENDBRANCH   3  29
BRANCH   2  32
ATOM     32  C   UNL     1       4.869  -3.958  -0.478  0.00  0.00    +0.099 C 
ATOM     33  N   UNL     1       4.906  -5.093  -0.487  0.00  0.00    -0.191 NA
ENDBRANCH   2  32
TORSDOF 3
