REMARK  Name = ZINC39685106
REMARK  6 active torsions:
REMARK  status: ('A' for Active; 'I' for Inactive)
REMARK    1  A    between atoms: C_5  and  O_7
REMARK    2  A    between atoms: O_7  and  C_8
REMARK    3  A    between atoms: C_8  and  C_9
REMARK    4  A    between atoms: C_9  and  N_10
REMARK    5  A    between atoms: C_11  and  C_13
REMARK    6  A    between atoms: C_24  and  C_26
REMARK                            x       y       z     vdW  Elec       q    Type
REMARK                         _______ _______ _______ _____ _____    ______ ____
ROOT
ATOM      1  C   UNL     1       1.828  -6.331   2.706  0.00  0.00    +0.100 C 
ATOM      2  C   UNL     1       0.987  -5.923   3.936  0.00  0.00    +0.121 C 
ATOM      3  N   UNL     1       0.182  -7.127   4.254  0.00  0.00    -0.295 N 
ATOM      4  C   UNL     1       1.111  -8.261   4.031  0.00  0.00    +0.115 C 
ATOM      5  C   UNL     1       1.911  -7.865   2.774  0.00  0.00    -0.004 C 
ATOM      6  C   UNL     1       3.364  -8.311   2.910  0.00  0.00    -0.010 C 
ATOM      7  C   UNL     1       3.425  -9.841   2.917  0.00  0.00    -0.082 C 
ATOM      8  N   UNL     1       2.847 -10.361   1.672  0.00  0.00    +0.379 N 
ATOM      9  C   UNL     1       1.425 -10.007   1.594  0.00  0.00    -0.082 C 
ATOM     10  C   UNL     1       1.279  -8.484   1.531  0.00  0.00    -0.010 C 
ATOM     11  C   UNL     1      -1.103  -7.178   4.656  0.00  0.00    +0.265 C 
ATOM     12  O   UNL     1      -1.768  -6.162   4.698  0.00  0.00    -0.268 OA
ATOM     13  H   UNL     1       3.335  -9.963   0.884  0.00  0.00    -0.086 HD
ATOM     14  H   UNL     1       2.944 -11.365   1.652  0.00  0.00    -0.086 HD
ENDROOT
BRANCH  11  15
ATOM     15  C   UNL     1      -1.706  -8.474   5.046  0.00  0.00    +0.126 A 
ATOM     16  C   UNL     1      -3.064  -8.541   5.349  0.00  0.00    +0.033 A 
ATOM     17  C   UNL     1      -3.613  -9.761   5.712  0.00  0.00    +0.004 A 
ATOM     18  C   UNL     1      -2.785 -10.871   5.760  0.00  0.00    +0.020 A 
ATOM     19  C   UNL     1      -1.443 -10.731   5.446  0.00  0.00    +0.111 A 
ATOM     20  N   UNL     1      -0.948  -9.563   5.099  0.00  0.00    -0.250 NA
ENDBRANCH  11  15
BRANCH   1  22
ATOM     21  N   UNL     1       1.877  -5.578   0.350  0.00  0.00    -0.312 N 
ATOM     22  C   UNL     1       1.144  -5.898   1.435  0.00  0.00    +0.218 C 
ATOM     23  O   UNL     1      -0.067  -5.838   1.388  0.00  0.00    -0.275 OA
ATOM     24  H   UNL     1       2.845  -5.625   0.387  0.00  0.00    +0.149 HD
BRANCH  21  25
ATOM     25  C   UNL     1       1.211  -5.157  -0.885  0.00  0.00    +0.145 C 
BRANCH  25  26
ATOM     26  C   UNL     1       2.263  -4.854  -1.954  0.00  0.00    +0.248 C 
BRANCH  26  27
ATOM     27  O   UNL     1       2.961  -6.055  -2.290  0.00  0.00    -0.488 OA
BRANCH  27  32
ATOM     28  C   UNL     1       5.208  -4.640  -4.777  0.00  0.00    +0.004 A 
ATOM     29  C   UNL     1       5.923  -5.763  -5.149  0.00  0.00    +0.003 A 
ATOM     30  C   UNL     1       5.647  -6.986  -4.566  0.00  0.00    +0.042 A 
ATOM     31  C   UNL     1       4.655  -7.087  -3.607  0.00  0.00    +0.165 A 
ATOM     32  C   UNL     1       3.936  -5.959  -3.232  0.00  0.00    +0.156 A 
ATOM     33  C   UNL     1       4.216  -4.735  -3.820  0.00  0.00    +0.048 A 
ATOM     34  F   UNL     1       4.384  -8.282  -3.037  0.00  0.00    -0.202 F 
ENDBRANCH  27  32
ENDBRANCH  26  27
ENDBRANCH  25  26
ENDBRANCH  21  25
ENDBRANCH   1  22
TORSDOF 6
