REMARK  Name = ZINC39519204
REMARK  8 active torsions:
REMARK  status: ('A' for Active; 'I' for Inactive)
REMARK    1  A    between atoms: C_1  and  O_2
REMARK    2  A    between atoms: O_2  and  C_3
REMARK    3  A    between atoms: C_8  and  C_9
REMARK    4  A    between atoms: C_9  and  N_10
REMARK    5  A    between atoms: C_16  and  C_18
REMARK    6  A    between atoms: C_18  and  C_19
REMARK    7  A    between atoms: N_21  and  C_22
REMARK    8  A    between atoms: C_22  and  C_23
REMARK                            x       y       z     vdW  Elec       q    Type
REMARK                         _______ _______ _______ _____ _____    ______ ____
ROOT
ATOM      1  N   UNL     1      -1.554  -2.817  -0.255  0.00  0.00    +0.391 N 
ATOM      2  C   UNL     1      -1.832  -3.459  -1.548  0.00  0.00    -0.058 C 
ATOM      3  C   UNL     1      -3.346  -3.494  -1.767  0.00  0.00    +0.085 C 
ATOM      4  N   UNL     1      -4.004  -4.062  -0.593  0.00  0.00    -0.318 N 
ATOM      5  C   UNL     1      -3.400  -4.158   0.597  0.00  0.00    +0.200 C 
ATOM      6  O   UNL     1      -4.022  -4.621   1.529  0.00  0.00    -0.278 OA
ATOM      7  C   UNL     1      -1.983  -3.716   0.824  0.00  0.00    +0.028 C 
ATOM      8  H   UNL     1      -4.916  -4.383  -0.680  0.00  0.00    +0.149 HD
ATOM      9  H   UNL     1      -2.062  -1.947  -0.192  0.00  0.00    -0.080 HD
ENDROOT
BRANCH   1  10
ATOM     10  C   UNL     1      -0.114  -2.555  -0.134  0.00  0.00    -0.038 C 
BRANCH  10  16
ATOM     11  C   UNL     1       0.067  -0.178  -0.912  0.00  0.00    +0.121 A 
ATOM     12  C   UNL     1       0.451   0.768  -1.851  0.00  0.00    +0.046 A 
ATOM     13  C   UNL     1       1.056   0.367  -3.027  0.00  0.00    +0.004 A 
ATOM     14  C   UNL     1       1.279  -0.976  -3.268  0.00  0.00    +0.000 A 
ATOM     15  C   UNL     1       0.897  -1.921  -2.334  0.00  0.00    +0.005 A 
ATOM     16  C   UNL     1       0.297  -1.525  -1.154  0.00  0.00    -0.022 A 
BRANCH  11  18
ATOM     17  C   UNL     1      -0.732   1.616   0.427  0.00  0.00    +0.277 C 
ATOM     18  O   UNL     1      -0.527   0.214   0.245  0.00  0.00    -0.495 OA
ENDBRANCH  11  18
ENDBRANCH  10  16
ENDBRANCH   1  10
BRANCH   7  19
ATOM     19  C   UNL     1      -1.890  -2.981   2.163  0.00  0.00    +0.089 C 
BRANCH  19  20
ATOM     20  C   UNL     1      -2.817  -1.793   2.151  0.00  0.00    +0.212 C 
ATOM     21  O   UNL     1      -3.564  -1.617   1.211  0.00  0.00    -0.276 OA
ATOM     22  N   UNL     1      -2.816  -0.927   3.183  0.00  0.00    -0.311 N 
ATOM     23  H   UNL     1      -2.219  -1.068   3.934  0.00  0.00    +0.149 HD
BRANCH  22  24
ATOM     24  C   UNL     1      -3.718   0.228   3.170  0.00  0.00    +0.139 C 
BRANCH  24  25
ATOM     25  C   UNL     1      -3.522   1.032   4.429  0.00  0.00    -0.025 C 
ATOM     26  C   UNL     1      -2.692   2.118   4.484  0.00  0.00    +0.005 C 
ATOM     27  C   UNL     1      -2.585   2.895   5.715  0.00  0.00    -0.002 C 
ATOM     28  C   UNL     1      -3.010   2.442   6.900  0.00  0.00    +0.004 C 
ATOM     29  C   UNL     1      -3.576   1.056   6.988  0.00  0.00    +0.158 C 
ATOM     30  C   UNL     1      -4.183   0.724   5.632  0.00  0.00    -0.013 C 
ATOM     31  C   UNL     1      -5.375   0.170   5.904  0.00  0.00    +0.025 C 
ATOM     32  C   UNL     1      -5.678   0.361   7.271  0.00  0.00    +0.106 C 
ATOM     33  N   UNL     1      -4.676   0.894   7.927  0.00  0.00    -0.279 NA
ENDBRANCH  24  25
ENDBRANCH  22  24
ENDBRANCH  19  20
ENDBRANCH   7  19
TORSDOF 7
