REMARK  Name = ZINC04281104
REMARK  5 active torsions:
REMARK  status: ('A' for Active; 'I' for Inactive)
REMARK    1  A    between atoms: C_8  and  C_10
REMARK    2  A    between atoms: C_10  and  C_22
REMARK    3  A    between atoms: N_11  and  N_12
REMARK    4  A    between atoms: N_12  and  C_13
REMARK    5  A    between atoms: C_16  and  S_19
REMARK                            x       y       z     vdW  Elec       q    Type
REMARK                         _______ _______ _______ _____ _____    ______ ____
ROOT
ATOM      1  C   UNL     1      -2.396   4.113   0.036  0.00  0.00    +0.190 C 
ATOM      2  N   UNL     1      -1.250   3.469   0.027  0.00  0.00    -0.169 NA
ENDROOT
BRANCH   1  10
ATOM      3  C   UNL     1      -0.905  10.084   0.060  0.00  0.00    +0.002 A 
ATOM      4  C   UNL     1      -2.230  10.497   0.069  0.00  0.00    +0.001 A 
ATOM      5  C   UNL     1      -3.236   9.548   0.069  0.00  0.00    +0.017 A 
ATOM      6  C   UNL     1      -2.905   8.215   0.060  0.00  0.00    +0.040 A 
ATOM      7  C   UNL     1      -1.565   7.763   0.052  0.00  0.00    +0.079 A 
ATOM      8  C   UNL     1      -0.567   8.767   0.052  0.00  0.00    +0.029 A 
ATOM      9  N   UNL     1      -1.399   6.426   0.049  0.00  0.00    -0.237 NA
ATOM     10  C   UNL     1      -2.414   5.587   0.044  0.00  0.00    +0.140 A 
ATOM     11  S   UNL     1      -3.819   6.691   0.057  0.00  0.00    -0.065 S 
ENDBRANCH   1  10
BRANCH   2  12
ATOM     12  N   UNL     1      -1.233   2.069   0.019  0.00  0.00    -0.237 N 
ATOM     13  H   UNL     1      -2.067   1.573   0.020  0.00  0.00    +0.174 HD
BRANCH  12  14
ATOM     14  C   UNL     1      -0.017   1.386   0.010  0.00  0.00    +0.048 A 
ATOM     15  C   UNL     1       1.179   2.094   0.002  0.00  0.00    +0.026 A 
ATOM     16  C   UNL     1       2.381   1.414  -0.012  0.00  0.00    +0.031 A 
ATOM     17  C   UNL     1       2.396   0.031  -0.020  0.00  0.00    +0.120 A 
ATOM     18  C   UNL     1       1.208  -0.676  -0.013  0.00  0.00    +0.031 A 
ATOM     19  C   UNL     1       0.002  -0.004   0.002  0.00  0.00    +0.026 A 
BRANCH  17  20
ATOM     20  S   UNL     1       3.933  -0.831  -0.039  0.00  0.00    +0.140 S 
ATOM     21  O   UNL     1       4.901   0.053   0.508  0.00  0.00    -0.140 OA
ATOM     22  O   UNL     1       3.682  -2.119   0.507  0.00  0.00    -0.140 OA
ATOM     23  O   UNL     1       4.312  -1.043  -1.498  0.00  0.00    -0.043 OA
ENDBRANCH  17  20
ENDBRANCH  12  14
ENDBRANCH   2  12
BRANCH   1  24
ATOM     24  C   UNL     1      -3.628   3.382   0.038  0.00  0.00    +0.123 C 
ATOM     25  N   UNL     1      -4.604   2.802   0.039  0.00  0.00    -0.189 NA
ENDBRANCH   1  24
TORSDOF 5
