REMARK  Name = ZINC04222256
REMARK  13 active torsions:
REMARK  status: ('A' for Active; 'I' for Inactive)
REMARK    1  A    between atoms: C_1  and  C_2
REMARK    2  A    between atoms: C_13  and  C_33
REMARK    3  A    between atoms: C_14  and  C_16
REMARK    4  A    between atoms: C_16  and  C_17
REMARK    5  A    between atoms: N_19  and  C_20
REMARK    6  A    between atoms: C_20  and  C_21
REMARK    7  A    between atoms: C_21  and  N_67
REMARK    8  A    between atoms: C_22  and  N_67
REMARK    9  A    between atoms: C_23  and  N_67
REMARK   10  A    between atoms: C_26  and  O_32
REMARK   11  A    between atoms: C_28  and  C_29
REMARK   12  A    between atoms: C_28  and  C_30
REMARK   13  A    between atoms: C_30  and  O_31
REMARK                            x       y       z     vdW  Elec       q    Type
REMARK                         _______ _______ _______ _____ _____    ______ ____
ROOT
ATOM      1  C   UNL     1       3.531   5.516  -0.387  0.00  0.00    +0.109 C 
ATOM      2  C   UNL     1       3.243   4.040  -0.296  0.00  0.00    +0.216 C 
ATOM      3  O   UNL     1       4.156   3.241  -0.317  0.00  0.00    -0.276 OA
ATOM      4  N   UNL     1       1.971   3.607  -0.190  0.00  0.00    -0.265 N 
ATOM      5  C   UNL     1       1.706   2.245  -0.106  0.00  0.00    +0.165 A 
ATOM      6  N   UNL     1       0.545   1.633   0.001  0.00  0.00    -0.229 NA
ATOM      7  C   UNL     1       0.445   0.307   0.072  0.00  0.00    +0.058 A 
ATOM      8  C   UNL     1       1.615  -0.381   0.026  0.00  0.00    +0.015 A 
ATOM      9  S   UNL     1       2.821   0.911  -0.116  0.00  0.00    -0.057 S 
ATOM     10  C   UNL     1       1.805  -1.855   0.083  0.00  0.00    +0.049 C 
ATOM     11  C   UNL     1       0.498  -2.512   0.568  0.00  0.00    +0.011 C 
ATOM     12  C   UNL     1      -0.680  -1.895  -0.189  0.00  0.00    -0.019 C 
ATOM     13  C   UNL     1      -0.874  -0.438   0.203  0.00  0.00    +0.054 C 
ATOM     14  C   UNL     1      -1.974  -2.640   0.153  0.00  0.00    +0.010 C 
ATOM     15  C   UNL     1      -1.842  -4.122  -0.190  0.00  0.00    +0.032 C 
ATOM     16  C   UNL     1      -0.697  -4.719   0.634  0.00  0.00    +0.123 C 
ATOM     17  C   UNL     1       0.608  -4.011   0.272  0.00  0.00    +0.021 C 
ATOM     18  C   UNL     1       1.764  -4.604   1.081  0.00  0.00    +0.016 C 
ATOM     19  C   UNL     1      -0.422  -1.979  -1.694  0.00  0.00    +0.012 C 
ATOM     20  H   UNL     1       1.241   4.245  -0.173  0.00  0.00    +0.157 HD
ENDROOT
BRANCH  16  21
ATOM     21  O   UNL     1      -0.579  -6.115   0.350  0.00  0.00    -0.391 OA
ATOM     22  H   UNL     1      -1.374  -6.626   0.555  0.00  0.00    +0.210 HD
ENDBRANCH  16  21
BRANCH  13  23
ATOM     23  C   UNL     1      -1.917   0.207  -0.712  0.00  0.00    +0.106 C 
BRANCH  23  24
ATOM     24  C   UNL     1      -2.259   1.580  -0.195  0.00  0.00    +0.214 C 
ATOM     25  O   UNL     1      -1.723   2.001   0.808  0.00  0.00    -0.276 OA
ATOM     26  N   UNL     1      -3.162   2.340  -0.846  0.00  0.00    -0.317 N 
ATOM     27  H   UNL     1      -3.592   2.002  -1.647  0.00  0.00    +0.149 HD
BRANCH  26  28
ATOM     28  C   UNL     1      -3.495   3.675  -0.343  0.00  0.00    +0.085 C 
BRANCH  28  29
ATOM     29  C   UNL     1      -4.538   4.319  -1.258  0.00  0.00    -0.061 C 
BRANCH  29  32
ATOM     30  C   UNL     1      -3.717   6.560  -0.850  0.00  0.00    -0.097 C 
ATOM     31  C   UNL     1      -6.034   6.213  -1.461  0.00  0.00    -0.097 C 
ATOM     32  N   UNL     1      -4.879   5.655  -0.726  0.00  0.00    +0.377 N 
ATOM     33  H   UNL     1      -5.127   5.566   0.266  0.00  0.00    -0.083 HD
ENDBRANCH  29  32
ENDBRANCH  28  29
ENDBRANCH  26  28
ENDBRANCH  23  24
ENDBRANCH  13  23
BRANCH  17  34
ATOM     34  C   UNL     1       0.882  -4.213  -1.219  0.00  0.00    +0.165 C 
BRANCH  34  35
ATOM     35  O   UNL     1       1.147  -5.595  -1.472  0.00  0.00    -0.394 OA
ATOM     36  H   UNL     1       1.330  -5.797  -2.399  0.00  0.00    +0.209 HD
ENDBRANCH  34  35
ENDBRANCH  17  34
TORSDOF 8
