REMARK  Name = ZINC39673267
REMARK  7 active torsions:
REMARK  status: ('A' for Active; 'I' for Inactive)
REMARK    1  A    between atoms: C_3  and  O_34
REMARK    2  A    between atoms: C_6  and  C_7
REMARK    3  A    between atoms: C_7  and  N_8
REMARK    4  A    between atoms: C_9  and  C_11
REMARK    5  A    between atoms: C_22  and  C_24
REMARK    6  A    between atoms: C_27  and  C_30
REMARK    7  A    between atoms: O_34  and  C_35
REMARK                            x       y       z     vdW  Elec       q    Type
REMARK                         _______ _______ _______ _____ _____    ______ ____
ROOT
ATOM      1  C   UNL     1      -3.302  -1.906  -3.717  0.00  0.00    +0.100 C 
ATOM      2  C   UNL     1      -2.098  -2.765  -4.163  0.00  0.00    +0.121 C 
ATOM      3  N   UNL     1      -2.546  -4.165  -3.972  0.00  0.00    -0.296 N 
ATOM      4  C   UNL     1      -3.963  -4.161  -4.405  0.00  0.00    +0.115 C 
ATOM      5  C   UNL     1      -4.525  -2.824  -3.881  0.00  0.00    -0.004 C 
ATOM      6  C   UNL     1      -5.501  -2.229  -4.891  0.00  0.00    -0.010 C 
ATOM      7  C   UNL     1      -6.735  -3.130  -4.994  0.00  0.00    -0.082 C 
ATOM      8  N   UNL     1      -7.372  -3.243  -3.676  0.00  0.00    +0.379 N 
ATOM      9  C   UNL     1      -6.459  -3.901  -2.734  0.00  0.00    -0.082 C 
ATOM     10  C   UNL     1      -5.213  -3.033  -2.536  0.00  0.00    -0.010 C 
ATOM     11  C   UNL     1      -1.826  -5.207  -3.509  0.00  0.00    +0.247 C 
ATOM     12  O   UNL     1      -0.706  -5.026  -3.073  0.00  0.00    -0.270 OA
ATOM     13  H   UNL     1      -7.599  -2.321  -3.334  0.00  0.00    -0.086 HD
ATOM     14  H   UNL     1      -8.218  -3.787  -3.758  0.00  0.00    -0.086 HD
ENDROOT
BRANCH  11  15
ATOM     15  C   UNL     1      -2.400  -6.569  -3.532  0.00  0.00    +0.037 A 
ATOM     16  C   UNL     1      -3.456  -6.871  -4.393  0.00  0.00    +0.013 A 
ATOM     17  C   UNL     1      -3.986  -8.144  -4.409  0.00  0.00    +0.013 A 
ATOM     18  C   UNL     1      -3.473  -9.122  -3.575  0.00  0.00    +0.055 A 
ATOM     19  C   UNL     1      -2.426  -8.829  -2.720  0.00  0.00    +0.013 A 
ATOM     20  C   UNL     1      -1.883  -7.561  -2.697  0.00  0.00    +0.013 A 
BRANCH  18  21
ATOM     21  C   UNL     1      -4.057 -10.511  -3.599  0.00  0.00    +0.417 C 
ATOM     22  F   UNL     1      -3.377 -11.287  -4.543  0.00  0.00    -0.166 F 
ATOM     23  F   UNL     1      -3.926 -11.093  -2.333  0.00  0.00    -0.166 F 
ATOM     24  F   UNL     1      -5.412 -10.441  -3.942  0.00  0.00    -0.166 F 
ENDBRANCH  18  21
ENDBRANCH  11  15
BRANCH   1  26
ATOM     25  N   UNL     1      -3.781  -0.395  -1.818  0.00  0.00    -0.311 N 
ATOM     26  C   UNL     1      -3.147  -1.492  -2.276  0.00  0.00    +0.218 C 
ATOM     27  O   UNL     1      -2.450  -2.146  -1.529  0.00  0.00    -0.275 OA
ATOM     28  H   UNL     1      -4.338   0.128  -2.416  0.00  0.00    +0.149 HD
BRANCH  25  29
ATOM     29  C   UNL     1      -3.630   0.008  -0.418  0.00  0.00    +0.139 C 
BRANCH  29  35
ATOM     30  C   UNL     1      -5.752   1.156   0.247  0.00  0.00    +0.009 A 
ATOM     31  C   UNL     1      -6.492   2.299   0.481  0.00  0.00    +0.046 A 
ATOM     32  C   UNL     1      -5.914   3.547   0.302  0.00  0.00    +0.127 A 
ATOM     33  C   UNL     1      -4.593   3.645  -0.111  0.00  0.00    +0.046 A 
ATOM     34  C   UNL     1      -3.857   2.499  -0.343  0.00  0.00    +0.009 A 
ATOM     35  C   UNL     1      -4.436   1.256  -0.164  0.00  0.00    -0.030 A 
BRANCH  32  36
ATOM     36  O   UNL     1      -6.640   4.673   0.531  0.00  0.00    -0.434 OA
BRANCH  36  37
ATOM     37  C   UNL     1      -5.980   5.924   0.327  0.00  0.00    +0.541 C 
ATOM     38  F   UNL     1      -4.873   6.011   1.178  0.00  0.00    -0.166 F 
ATOM     39  F   UNL     1      -5.554   6.015  -1.002  0.00  0.00    -0.166 F 
ENDBRANCH  36  37
ENDBRANCH  32  36
ENDBRANCH  29  35
ENDBRANCH  25  29
ENDBRANCH   1  26
TORSDOF 7
