REMARK  Name = ZINC39874922
REMARK  1 active torsions:
REMARK  status: ('A' for Active; 'I' for Inactive)
REMARK    1  A    between atoms: C_8  and  C_12
REMARK                            x       y       z     vdW  Elec       q    Type
REMARK                         _______ _______ _______ _____ _____    ______ ____
ROOT
ATOM      1  C   UNL     1       2.620  -4.182   0.289  0.00  0.00    +0.257 C 
ATOM      2  O   UNL     1       1.637  -4.881   0.132  0.00  0.00    -0.270 OA
ATOM      3  N   UNL     1       3.825  -4.750   0.493  0.00  0.00    -0.260 N 
ATOM      4  C   UNL     1       3.944  -6.129   0.524  0.00  0.00    +0.166 A 
ATOM      5  N   UNL     1       3.011  -7.039   0.372  0.00  0.00    -0.225 NA
ATOM      6  C   UNL     1       3.273  -8.364   0.427  0.00  0.00    +0.080 A 
ATOM      7  C   UNL     1       2.366  -9.439   0.281  0.00  0.00    +0.032 A 
ATOM      8  C   UNL     1       2.799 -10.737   0.365  0.00  0.00    +0.040 A 
ATOM      9  C   UNL     1       4.134 -11.043   0.597  0.00  0.00    +0.125 A 
ATOM     10  C   UNL     1       5.049 -10.014   0.745  0.00  0.00    +0.055 A 
ATOM     11  C   UNL     1       4.623  -8.712   0.661  0.00  0.00    +0.043 A 
ATOM     12  S   UNL     1       5.409  -7.122   0.775  0.00  0.00    -0.052 S 
ATOM     13  F   UNL     1       4.536 -12.330   0.677  0.00  0.00    -0.205 F 
ATOM     14  H   UNL     1       4.609  -4.192   0.619  0.00  0.00    +0.157 HD
ENDROOT
BRANCH   1  22
ATOM     15  C   UNL     1      -0.016   1.361   0.009  0.00  0.00    +0.001 A 
ATOM     16  C   UNL     1       1.169   2.083   0.002  0.00  0.00    +0.004 A 
ATOM     17  C   UNL     1       2.386   1.435  -0.025  0.00  0.00    +0.047 A 
ATOM     18  C   UNL     1       2.430   0.048  -0.039  0.00  0.00    +0.139 A 
ATOM     19  C   UNL     1       1.229  -0.684  -0.003  0.00  0.00    +0.018 A 
ATOM     20  C   UNL     1       0.002  -0.004   0.002  0.00  0.00    +0.011 A 
ATOM     21  C   UNL     1       1.266  -2.101   0.048  0.00  0.00    +0.031 A 
ATOM     22  C   UNL     1       2.494  -2.716   0.256  0.00  0.00    +0.122 A 
ATOM     23  C   UNL     1       3.666  -1.841   0.443  0.00  0.00    +0.350 A 
ATOM     24  O   UNL     1       4.643  -2.222   1.061  0.00  0.00    -0.244 OA
ATOM     25  O   UNL     1       3.619  -0.600  -0.095  0.00  0.00    -0.422 OA
ENDBRANCH   1  22
TORSDOF 1
