REMARK  Name = ZINC38573405
REMARK  8 active torsions:
REMARK  status: ('A' for Active; 'I' for Inactive)
REMARK    1  A    between atoms: C_1  and  C_2
REMARK    2  A    between atoms: C_5  and  O_37
REMARK    3  A    between atoms: C_6  and  C_8
REMARK    4  A    between atoms: C_11  and  C_13
REMARK    5  A    between atoms: N_15  and  C_16
REMARK    6  A    between atoms: C_18  and  C_28
REMARK    7  A    between atoms: N_30  and  C_31
REMARK    8  A    between atoms: C_31  and  C_32
REMARK                            x       y       z     vdW  Elec       q    Type
REMARK                         _______ _______ _______ _____ _____    ______ ____
ROOT
ATOM      1  C   UNL     1       1.189  -4.543   6.148  0.00  0.00    +0.261 C 
ATOM      2  O   UNL     1       2.241  -4.522   6.758  0.00  0.00    -0.269 OA
ATOM      3  N   UNL     1       0.029  -4.725   6.810  0.00  0.00    -0.298 N 
ATOM      4  H   UNL     1      -0.815  -4.669   6.335  0.00  0.00    +0.150 HD
ENDROOT
BRANCH   3   5
ATOM      5  C   UNL     1       0.043  -5.007   8.248  0.00  0.00    +0.144 C 
ATOM      6  C   UNL     1      -0.913  -6.165   8.591  0.00  0.00    +0.109 C 
ATOM      7  C   UNL     1      -1.574  -6.016   9.954  0.00  0.00    +0.016 C 
ATOM      8  C   UNL     1      -3.063  -6.414   9.833  0.00  0.00    +0.005 C 
ATOM      9  C   UNL     1      -3.810  -5.438  10.772  0.00  0.00    +0.001 C 
ATOM     10  C   UNL     1      -3.023  -4.116  10.587  0.00  0.00    +0.014 C 
ATOM     11  C   UNL     1      -1.575  -4.570  10.494  0.00  0.00    +0.052 C 
ATOM     12  S   UNL     1      -0.694  -3.616   9.199  0.00  0.00    -0.134 S 
BRANCH   6  13
ATOM     13  C   UNL     1      -1.990  -6.231   7.539  0.00  0.00    +0.219 C 
ATOM     14  O   UNL     1      -2.613  -5.233   7.245  0.00  0.00    -0.275 OA
ATOM     15  N   UNL     1      -2.261  -7.400   6.925  0.00  0.00    -0.308 N 
ATOM     16  H   UNL     1      -1.715  -8.181   7.107  0.00  0.00    +0.149 HD
BRANCH  15  17
ATOM     17  C   UNL     1      -3.380  -7.491   5.983  0.00  0.00    +0.178 C 
BRANCH  17  18
ATOM     18  C   UNL     1      -3.466  -8.894   5.440  0.00  0.00    +0.122 A 
ATOM     19  C   UNL     1      -4.183  -9.900   5.972  0.00  0.00    +0.046 A 
ATOM     20  C   UNL     1      -3.978 -11.030   5.147  0.00  0.00    +0.041 A 
ATOM     21  C   UNL     1      -3.148 -10.646   4.160  0.00  0.00    +0.195 A 
ATOM     22  O   UNL     1      -2.846  -9.350   4.340  0.00  0.00    -0.466 OA
ENDBRANCH  17  18
ENDBRANCH  15  17
ENDBRANCH   6  13
ENDBRANCH   3   5
BRANCH   1  26
ATOM     23  C   UNL     1       1.710  -4.055   2.419  0.00  0.00    +0.080 C 
ATOM     24  N   UNL     1       0.427  -4.197   2.663  0.00  0.00    -0.153 NA
ATOM     25  N   UNL     1       0.145  -4.368   3.895  0.00  0.00    -0.148 NA
ATOM     26  C   UNL     1       1.182  -4.371   4.692  0.00  0.00    +0.131 C 
ATOM     27  C   UNL     1       2.380  -4.163   3.779  0.00  0.00    +0.120 C 
BRANCH  23  33
ATOM     28  C   UNL     1       5.843  -3.382  -0.278  0.00  0.00    +0.044 C 
ATOM     29  C   UNL     1       4.345  -3.518  -0.188  0.00  0.00    -0.050 A 
ATOM     30  C   UNL     1       3.575  -3.443  -1.339  0.00  0.00    +0.007 A 
ATOM     31  C   UNL     1       2.201  -3.567  -1.273  0.00  0.00    +0.046 A 
ATOM     32  C   UNL     1       1.579  -3.766  -0.050  0.00  0.00    +0.126 A 
ATOM     33  C   UNL     1       2.354  -3.844   1.121  0.00  0.00    +0.040 A 
ATOM     34  C   UNL     1       3.748  -3.722   1.036  0.00  0.00    +0.016 A 
BRANCH  32  35
ATOM     35  O   UNL     1       0.230  -3.887   0.016  0.00  0.00    -0.506 OA
ATOM     36  H   UNL     1      -0.089  -4.795  -0.071  0.00  0.00    +0.292 HD
ENDBRANCH  32  35
ENDBRANCH  23  33
ENDBRANCH   1  26
TORSDOF 7
