REMARK  Name = ZINC19819796
REMARK  6 active torsions:
REMARK  status: ('A' for Active; 'I' for Inactive)
REMARK    1  A    between atoms: C_1  and  C_2
REMARK    2  A    between atoms: C_5  and  C_8
REMARK    3  A    between atoms: C_8  and  C_9
REMARK    4  A    between atoms: C_10  and  C_32
REMARK    5  A    between atoms: C_22  and  C_25
REMARK    6  A    between atoms: C_25  and  C_26
REMARK                            x       y       z     vdW  Elec       q    Type
REMARK                         _______ _______ _______ _____ _____    ______ ____
ROOT
ATOM      1  C   UNL     1       2.002  -4.169  -0.883  0.00  0.00    +0.042 A 
ATOM      2  C   UNL     1       2.215  -4.445   0.436  0.00  0.00    +0.050 A 
ATOM      3  N   UNL     1       3.372  -4.972   0.830  0.00  0.00    -0.221 NA
ATOM      4  C   UNL     1       4.332  -5.239  -0.032  0.00  0.00    +0.202 A 
ATOM      5  N   UNL     1       4.177  -4.986  -1.359  0.00  0.00    -0.295 N 
ATOM      6  C   UNL     1       3.019  -4.457  -1.810  0.00  0.00    +0.256 A 
ATOM      7  O   UNL     1       2.861  -4.229  -2.998  0.00  0.00    -0.267 OA
ATOM      8  N   UNL     1       5.511  -5.783   0.418  0.00  0.00    -0.259 N 
ATOM      9  C   UNL     1       5.631  -6.173   1.736  0.00  0.00    +0.160 C 
ATOM     10  N   UNL     1       4.589  -6.162   2.517  0.00  0.00    -0.375 N 
ATOM     11  N   UNL     1       6.852  -6.574   2.225  0.00  0.00    -0.305 N 
ATOM     12  C   UNL     1       7.760  -7.383   1.401  0.00  0.00    +0.108 C 
ATOM     13  C   UNL     1       9.126  -6.691   1.347  0.00  0.00    +0.023 C 
ATOM     14  C   UNL     1       9.624  -6.443   2.772  0.00  0.00    -0.004 C 
ATOM     15  C   UNL     1       8.645  -5.522   3.504  0.00  0.00    +0.023 C 
ATOM     16  C   UNL     1       7.277  -6.196   3.580  0.00  0.00    +0.108 C 
ATOM     17  C   UNL     1       1.138  -4.152   1.450  0.00  0.00    +0.066 C 
ATOM     18  H   UNL     1       4.695  -6.309   3.470  0.00  0.00    +0.158 HD
ATOM     19  H   UNL     1       3.707  -6.005   2.146  0.00  0.00    +0.158 HD
ATOM     20  H   UNL     1       6.258  -5.893  -0.190  0.00  0.00    +0.158 HD
ATOM     21  H   UNL     1       4.894  -5.189  -1.980  0.00  0.00    +0.172 HD
ENDROOT
BRANCH   1  22
ATOM     22  C   UNL     1       0.696  -3.572  -1.339  0.00  0.00    +0.077 C 
BRANCH  22  27
ATOM     23  C   UNL     1      -2.797  -7.776  -3.217  0.00  0.00    +0.044 C 
ATOM     24  C   UNL     1      -1.886  -6.680  -2.727  0.00  0.00    -0.050 A 
ATOM     25  C   UNL     1      -1.855  -6.355  -1.384  0.00  0.00    +0.003 A 
ATOM     26  C   UNL     1      -1.020  -5.349  -0.935  0.00  0.00    +0.004 A 
ATOM     27  C   UNL     1      -0.215  -4.669  -1.829  0.00  0.00    -0.043 A 
ATOM     28  C   UNL     1      -0.244  -4.995  -3.172  0.00  0.00    +0.004 A 
ATOM     29  C   UNL     1      -1.077  -6.003  -3.620  0.00  0.00    +0.003 A 
ENDBRANCH  22  27
ENDBRANCH   1  22
BRANCH  14  30
ATOM     30  C   UNL     1      11.004  -5.783   2.722  0.00  0.00    +0.038 C 
BRANCH  30  31
ATOM     31  C   UNL     1      11.548  -5.651   4.121  0.00  0.00    -0.047 A 
ATOM     32  C   UNL     1      11.281  -4.514   4.861  0.00  0.00    +0.003 A 
ATOM     33  C   UNL     1      11.781  -4.393   6.145  0.00  0.00    +0.000 A 
ATOM     34  C   UNL     1      12.547  -5.407   6.687  0.00  0.00    +0.000 A 
ATOM     35  C   UNL     1      12.813  -6.544   5.947  0.00  0.00    +0.000 A 
ATOM     36  C   UNL     1      12.310  -6.667   4.665  0.00  0.00    +0.003 A 
ENDBRANCH  30  31
ENDBRANCH  14  30
TORSDOF 4
