REMARK  Name = ZINC12541342
REMARK  8 active torsions:
REMARK  status: ('A' for Active; 'I' for Inactive)
REMARK    1  A    between atoms: C_1  and  C_2
REMARK    2  A    between atoms: C_2  and  O_3
REMARK    3  A    between atoms: O_3  and  C_4
REMARK    4  A    between atoms: C_4  and  C_5
REMARK    5  A    between atoms: C_13  and  C_14
REMARK    6  A    between atoms: N_16  and  N_17
REMARK    7  A    between atoms: C_18  and  C_20
REMARK    8  A    between atoms: N_24  and  C_25
REMARK                            x       y       z     vdW  Elec       q    Type
REMARK                         _______ _______ _______ _____ _____    ______ ____
ROOT
ATOM      1  C   UNL     1      -1.333   4.829   1.017  0.00  0.00    +0.296 C 
ATOM      2  O   UNL     1      -0.783   5.908   0.903  0.00  0.00    -0.265 OA
ATOM      3  N   UNL     1      -2.674   4.741   0.914  0.00  0.00    -0.228 N 
ATOM      4  H   UNL     1      -3.111   3.880   1.006  0.00  0.00    +0.173 HD
ENDROOT
BRANCH   1  13
ATOM      5  C   UNL     1       0.819   3.589   1.388  0.00  0.00    +0.036 A 
ATOM      6  C   UNL     1       1.171   2.190   1.628  0.00  0.00    +0.026 A 
ATOM      7  C   UNL     1       2.374   1.510   1.833  0.00  0.00    +0.012 A 
ATOM      8  C   UNL     1       2.363   0.159   2.034  0.00  0.00    +0.001 A 
ATOM      9  C   UNL     1       1.165  -0.542   2.036  0.00  0.00    +0.004 A 
ATOM     10  C   UNL     1      -0.033   0.110   1.835  0.00  0.00    +0.047 A 
ATOM     11  C   UNL     1      -0.046   1.484   1.628  0.00  0.00    +0.136 A 
ATOM     12  O   UNL     1      -1.033   2.374   1.405  0.00  0.00    -0.450 OA
ATOM     13  C   UNL     1      -0.534   3.620   1.267  0.00  0.00    +0.197 A 
BRANCH   5  14
ATOM     14  C   UNL     1       1.764   4.758   1.294  0.00  0.00    +0.199 C 
BRANCH  14  15
ATOM     15  O   UNL     1       2.178   4.929  -0.063  0.00  0.00    -0.375 OA
BRANCH  15  17
ATOM     16  C   UNL     1       3.454   6.106  -1.744  0.00  0.00    +0.034 C 
ATOM     17  C   UNL     1       3.081   6.018  -0.263  0.00  0.00    +0.157 C 
ENDBRANCH  15  17
ENDBRANCH  14  15
ENDBRANCH   5  14
ENDBRANCH   1  13
BRANCH   3  18
ATOM     18  N   UNL     1      -3.435   5.892   0.676  0.00  0.00    -0.229 N 
ATOM     19  C   UNL     1      -4.776   5.804   0.574  0.00  0.00    +0.278 C 
ATOM     20  O   UNL     1      -5.319   4.716   0.607  0.00  0.00    -0.267 OA
ATOM     21  H   UNL     1      -2.997   6.753   0.585  0.00  0.00    +0.173 HD
BRANCH  19  22
ATOM     22  C   UNL     1      -5.581   7.021   0.423  0.00  0.00    +0.130 A 
ATOM     23  C   UNL     1      -5.120   8.306   0.347  0.00  0.00    +0.144 A 
ATOM     24  N   UNL     1      -6.174   9.111   0.212  0.00  0.00    -0.243 NA
ATOM     25  C   UNL     1      -7.273   8.401   0.200  0.00  0.00    +0.204 A 
ATOM     26  N   UNL     1      -6.959   7.097   0.322  0.00  0.00    -0.295 N 
BRANCH  26  27
ATOM     27  C   UNL     1      -7.857   6.021   0.346  0.00  0.00    +0.048 A 
ATOM     28  C   UNL     1      -7.728   4.987  -0.572  0.00  0.00    +0.029 A 
ATOM     29  C   UNL     1      -8.611   3.926  -0.544  0.00  0.00    +0.040 A 
ATOM     30  C   UNL     1      -9.631   3.897   0.392  0.00  0.00    +0.124 A 
ATOM     31  C   UNL     1      -9.765   4.930   1.305  0.00  0.00    +0.040 A 
ATOM     32  C   UNL     1      -8.881   5.991   1.283  0.00  0.00    +0.029 A 
ATOM     33  F   UNL     1     -10.497   2.860   0.415  0.00  0.00    -0.205 F 
ENDBRANCH  26  27
ENDBRANCH  19  22
ENDBRANCH   3  18
TORSDOF 7
