REMARK  Name = ZINC04098932
REMARK  5 active torsions:
REMARK  status: ('A' for Active; 'I' for Inactive)
REMARK    1  A    between atoms: C_1  and  O_2
REMARK    2  A    between atoms: O_2  and  C_3
REMARK    3  A    between atoms: C_5  and  C_10
REMARK    4  A    between atoms: C_8  and  O_9
REMARK    5  A    between atoms: C_18  and  C_23
REMARK                            x       y       z     vdW  Elec       q    Type
REMARK                         _______ _______ _______ _____ _____    ______ ____
ROOT
ATOM      1  C   UNL     1       2.403   0.379  -4.230  0.00  0.00    +0.163 C 
ATOM      2  C   UNL     1       3.926   0.462  -4.029  0.00  0.00    +0.140 C 
ATOM      3  C   UNL     1       4.516  -0.071  -5.374  0.00  0.00    +0.077 C 
ATOM      4  C   UNL     1       3.310   0.066  -6.335  0.00  0.00    +0.169 C 
ATOM      5  O   UNL     1       2.167  -0.237  -5.506  0.00  0.00    -0.371 OA
ATOM      6  C   UNL     1       5.573   0.998  -5.721  0.00  0.00    +0.213 C 
ATOM      7  O   UNL     1       5.598   1.912  -4.612  0.00  0.00    -0.456 OA
ATOM      8  C   UNL     1       4.344   1.927  -4.037  0.00  0.00    +0.314 C 
ATOM      9  O   UNL     1       3.716   2.871  -3.621  0.00  0.00    -0.250 OA
ENDROOT
BRANCH   6  10
ATOM     10  C   UNL     1       6.924   0.354  -5.893  0.00  0.00    -0.003 A 
ATOM     11  C   UNL     1       7.677   0.022  -4.782  0.00  0.00    +0.011 A 
ATOM     12  C   UNL     1       8.917  -0.569  -4.935  0.00  0.00    +0.050 A 
ATOM     13  C   UNL     1       9.409  -0.831  -6.204  0.00  0.00    +0.166 A 
ATOM     14  C   UNL     1       8.650  -0.497  -7.323  0.00  0.00    +0.167 A 
ATOM     15  C   UNL     1       7.406   0.090  -7.162  0.00  0.00    +0.056 A 
ATOM     16  O   UNL     1       9.345  -0.852  -8.443  0.00  0.00    -0.453 OA
ATOM     17  C   UNL     1      10.707  -1.031  -8.010  0.00  0.00    +0.466 C 
ATOM     18  O   UNL     1      10.579  -1.395  -6.623  0.00  0.00    -0.453 OA
ENDBRANCH   6  10
BRANCH   1  21
ATOM     19  C   UNL     1       0.606  -0.608  -1.056  0.00  0.00    +0.162 A 
ATOM     20  C   UNL     1       1.173   0.159  -2.062  0.00  0.00    +0.055 A 
ATOM     21  C   UNL     1       1.787  -0.456  -3.137  0.00  0.00    -0.014 A 
ATOM     22  C   UNL     1       1.837  -1.836  -3.212  0.00  0.00    +0.010 A 
ATOM     23  C   UNL     1       1.273  -2.606  -2.212  0.00  0.00    +0.049 A 
ATOM     24  C   UNL     1       0.662  -1.996  -1.129  0.00  0.00    +0.158 A 
BRANCH  19  26
ATOM     25  C   UNL     1      -0.017   1.425   0.010  0.00  0.00    +0.277 C 
ATOM     26  O   UNL     1       0.002  -0.004   0.002  0.00  0.00    -0.491 OA
ENDBRANCH  19  26
BRANCH  24  27
ATOM     27  O   UNL     1       0.112  -2.753  -0.142  0.00  0.00    -0.503 OA
ATOM     28  H   UNL     1      -0.816  -2.979  -0.291  0.00  0.00    +0.292 HD
ENDBRANCH  24  27
ENDBRANCH   1  21
TORSDOF 4
