REMARK  Name = ZINC09797235
REMARK  9 active torsions:
REMARK  status: ('A' for Active; 'I' for Inactive)
REMARK    1  A    between atoms: C_1  and  C_2
REMARK    2  A    between atoms: C_4  and  C_34
REMARK    3  A    between atoms: C_6  and  C_8
REMARK    4  A    between atoms: N_10  and  C_11
REMARK    5  A    between atoms: N_10  and  C_17
REMARK    6  A    between atoms: C_11  and  C_12
REMARK    7  A    between atoms: C_18  and  N_33
REMARK    8  A    between atoms: N_19  and  C_26
REMARK    9  A    between atoms: C_26  and  C_27
REMARK                            x       y       z     vdW  Elec       q    Type
REMARK                         _______ _______ _______ _____ _____    ______ ____
ROOT
ATOM      1  C   UNL     1       0.109  -3.174   4.563  0.00  0.00    +0.140 A 
ATOM      2  C   UNL     1       1.206  -4.010   4.495  0.00  0.00    +0.128 A 
ATOM      3  N   UNL     1       1.400  -4.945   5.484  0.00  0.00    -0.276 N 
ATOM      4  C   UNL     1       0.531  -5.046   6.506  0.00  0.00    +0.331 A 
ATOM      5  O   UNL     1       0.720  -5.880   7.371  0.00  0.00    -0.246 OA
ATOM      6  N   UNL     1      -0.543  -4.241   6.590  0.00  0.00    -0.273 N 
ATOM      7  H   UNL     1      -1.155  -4.333   7.337  0.00  0.00    +0.173 HD
ATOM      8  C   UNL     1      -0.776  -3.303   5.650  0.00  0.00    +0.277 A 
ATOM      9  O   UNL     1      -1.750  -2.575   5.738  0.00  0.00    -0.266 OA
ENDROOT
BRANCH   1  12
ATOM     10  C   UNL     1      -0.305  -2.585   2.286  0.00  0.00    +0.251 C 
ATOM     11  O   UNL     1      -0.420  -1.747   1.412  0.00  0.00    -0.270 OA
ATOM     12  N   UNL     1      -0.117  -2.204   3.565  0.00  0.00    -0.253 N 
BRANCH  10  18
ATOM     13  C   UNL     1      -1.137  -7.313   3.648  0.00  0.00    +0.044 C 
ATOM     14  C   UNL     1      -0.769  -6.299   2.595  0.00  0.00    -0.049 A 
ATOM     15  C   UNL     1      -0.493  -6.714   1.304  0.00  0.00    +0.006 A 
ATOM     16  C   UNL     1      -0.155  -5.789   0.332  0.00  0.00    -0.049 A 
ATOM     17  C   UNL     1      -0.092  -4.447   0.644  0.00  0.00    +0.016 A 
ATOM     18  C   UNL     1      -0.370  -4.022   1.944  0.00  0.00    +0.038 A 
ATOM     19  C   UNL     1      -0.716  -4.959   2.919  0.00  0.00    +0.016 A 
ATOM     20  C   UNL     1       0.145  -6.250  -1.071  0.00  0.00    +0.044 C 
ENDBRANCH  10  18
BRANCH  12  21
ATOM     21  C   UNL     1      -0.148  -0.783   3.918  0.00  0.00    +0.188 C 
BRANCH  21  22
ATOM     22  C   UNL     1      -1.578  -0.343   4.103  0.00  0.00    +0.122 A 
ATOM     23  C   UNL     1      -2.219  -0.223   5.279  0.00  0.00    +0.046 A 
ATOM     24  C   UNL     1      -3.531   0.214   4.988  0.00  0.00    +0.041 A 
ATOM     25  C   UNL     1      -3.614   0.335   3.651  0.00  0.00    +0.195 A 
ATOM     26  O   UNL     1      -2.426   0.002   3.120  0.00  0.00    -0.466 OA
ENDBRANCH  21  22
ENDBRANCH  12  21
ENDBRANCH   1  12
BRANCH   2  27
ATOM     27  N   UNL     1       2.093  -3.908   3.450  0.00  0.00    -0.343 N 
ATOM     28  H   UNL     1       1.999  -3.192   2.802  0.00  0.00    +0.144 HD
ATOM     29  H   UNL     1       2.813  -4.552   3.361  0.00  0.00    +0.144 HD
ENDBRANCH   2  27
BRANCH   3  30
ATOM     30  C   UNL     1       2.559  -5.839   5.424  0.00  0.00    +0.163 C 
BRANCH  30  31
ATOM     31  C   UNL     1       3.721  -5.203   6.144  0.00  0.00    -0.028 A 
ATOM     32  C   UNL     1       4.598  -4.387   5.456  0.00  0.00    +0.005 A 
ATOM     33  C   UNL     1       5.663  -3.804   6.116  0.00  0.00    +0.000 A 
ATOM     34  C   UNL     1       5.851  -4.037   7.466  0.00  0.00    +0.000 A 
ATOM     35  C   UNL     1       4.973  -4.853   8.155  0.00  0.00    +0.000 A 
ATOM     36  C   UNL     1       3.905  -5.432   7.495  0.00  0.00    +0.005 A 
ENDBRANCH  30  31
ENDBRANCH   3  30
TORSDOF 7
