REMARK  Name = ZINC04729900
REMARK  8 active torsions:
REMARK  status: ('A' for Active; 'I' for Inactive)
REMARK    1  A    between atoms: C_1  and  O_2
REMARK    2  A    between atoms: O_2  and  C_3
REMARK    3  A    between atoms: C_8  and  C_9
REMARK    4  A    between atoms: C_11  and  C_23
REMARK    5  A    between atoms: C_14  and  C_16
REMARK    6  A    between atoms: C_27  and  O_30
REMARK    7  A    between atoms: C_28  and  O_29
REMARK    8  A    between atoms: O_30  and  C_31
REMARK                            x       y       z     vdW  Elec       q    Type
REMARK                         _______ _______ _______ _____ _____    ______ ____
ROOT
ATOM      1  C   UNL     1       2.456   3.933  -0.001  0.00  0.00    +0.084 C 
ATOM      2  C   UNL     1       4.737   3.885  -0.782  0.00  0.00    -0.028 C 
ATOM      3  C   UNL     1       4.461   4.914  -1.882  0.00  0.00    +0.044 C 
ATOM      4  C   UNL     1       3.152   5.602  -1.608  0.00  0.00    +0.040 C 
ATOM      5  N   UNL     1       2.285   5.152  -0.782  0.00  0.00    -0.298 NA
ATOM      6  N   UNL     1       3.513   3.087  -0.576  0.00  0.00    +0.401 N 
ATOM      7  H   UNL     1       3.195   2.712  -1.478  0.00  0.00    -0.081 HD
ATOM      8  H   UNL     1       3.715   2.312   0.065  0.00  0.00    -0.081 HD
ENDROOT
BRANCH   4   9
ATOM      9  C   UNL     1       2.854   6.857  -2.326  0.00  0.00    -0.004 A 
ATOM     10  C   UNL     1       3.778   7.383  -3.231  0.00  0.00    +0.011 A 
ATOM     11  C   UNL     1       3.491   8.553  -3.903  0.00  0.00    +0.020 A 
ATOM     12  C   UNL     1       2.295   9.211  -3.673  0.00  0.00    +0.041 A 
ATOM     13  C   UNL     1       1.376   8.697  -2.772  0.00  0.00    +0.020 A 
ATOM     14  C   UNL     1       1.649   7.525  -2.099  0.00  0.00    +0.011 A 
ATOM     15 CL   UNL     1       1.944  10.687  -4.517  0.00  0.00    -0.084 Cl
ENDBRANCH   4   9
BRANCH   1  21
ATOM     16  C   UNL     1      -0.050   3.842   0.023  0.00  0.00    +0.123 A 
ATOM     17  C   UNL     1      -1.242   3.131   0.031  0.00  0.00    +0.046 A 
ATOM     18  C   UNL     1      -1.220   1.750   0.017  0.00  0.00    +0.004 A 
ATOM     19  C   UNL     1      -0.013   1.076   0.008  0.00  0.00    +0.000 A 
ATOM     20  C   UNL     1       1.176   1.782   0.000  0.00  0.00    +0.007 A 
ATOM     21  C   UNL     1       1.160   3.164   0.008  0.00  0.00    +0.001 A 
BRANCH  16  23
ATOM     22  C   UNL     1      -1.350   5.832   0.047  0.00  0.00    +0.277 C 
ATOM     23  O   UNL     1      -0.069   5.201   0.031  0.00  0.00    -0.495 OA
ENDBRANCH  16  23
ENDBRANCH   1  21
BRANCH   2  24
ATOM     24  C   UNL     1       5.864   2.979  -1.204  0.00  0.00    -0.016 A 
ATOM     25  C   UNL     1       5.587   1.766  -1.807  0.00  0.00    +0.006 A 
ATOM     26  C   UNL     1       6.619   0.932  -2.196  0.00  0.00    +0.004 A 
ATOM     27  C   UNL     1       7.933   1.308  -1.984  0.00  0.00    +0.049 A 
ATOM     28  C   UNL     1       8.217   2.522  -1.381  0.00  0.00    +0.161 A 
ATOM     29  C   UNL     1       7.178   3.363  -0.994  0.00  0.00    +0.160 A 
BRANCH  29  30
ATOM     30  O   UNL     1       7.453   4.559  -0.406  0.00  0.00    -0.503 OA
ATOM     31  H   UNL     1       7.519   4.517   0.557  0.00  0.00    +0.292 HD
ENDBRANCH  29  30
BRANCH  28  32
ATOM     32  O   UNL     1       9.509   2.892  -1.172  0.00  0.00    -0.491 OA
ATOM     33  C   UNL     1      10.523   1.981  -1.600  0.00  0.00    +0.277 C 
ENDBRANCH  28  32
ENDBRANCH   2  24
TORSDOF 6
