REMARK  Name = ZINC62702854
REMARK  6 active torsions:
REMARK  status: ('A' for Active; 'I' for Inactive)
REMARK    1  A    between atoms: C_3  and  O_18
REMARK    2  A    between atoms: C_6  and  C_7
REMARK    3  A    between atoms: C_7  and  N_8
REMARK    4  A    between atoms: N_8  and  C_9
REMARK    5  A    between atoms: C_9  and  C_15
REMARK    6  A    between atoms: C_15  and  O_16
REMARK                            x       y       z     vdW  Elec       q    Type
REMARK                         _______ _______ _______ _____ _____    ______ ____
ROOT
ATOM      1  N   UNL     1      -1.761  -0.980  -1.468  0.00  0.00    +0.387 N 
ATOM      2  H   UNL     1      -1.111  -1.562  -1.975  0.00  0.00    -0.085 HD
ATOM      3  H   UNL     1      -1.363  -0.730  -0.575  0.00  0.00    -0.085 HD
ENDROOT
BRANCH   1   4
ATOM      4  C   UNL     1      -3.016  -1.714  -1.257  0.00  0.00    -0.044 C 
ATOM      5  C   UNL     1      -2.747  -2.941  -0.382  0.00  0.00    -0.010 C 
ATOM      6  C   UNL     1      -1.733  -3.851  -1.077  0.00  0.00    -0.001 C 
ATOM      7  C   UNL     1      -2.295  -4.301  -2.428  0.00  0.00    -0.000 C 
ATOM      8  C   UNL     1      -2.563  -3.075  -3.303  0.00  0.00    -0.001 C 
ATOM      9  C   UNL     1      -3.577  -2.165  -2.607  0.00  0.00    -0.010 C 
BRANCH   4  10
ATOM     10  C   UNL     1      -4.029  -0.804  -0.561  0.00  0.00    +0.143 C 
BRANCH  10  11
ATOM     11  O   UNL     1      -3.456  -0.281   0.638  0.00  0.00    -0.396 OA
ATOM     12  H   UNL     1      -4.044   0.306   1.132  0.00  0.00    +0.209 HD
ENDBRANCH  10  11
ENDBRANCH   4  10
ENDBRANCH   1   4
BRANCH   1  13
ATOM     13  C   UNL     1      -2.032   0.239  -2.242  0.00  0.00    -0.046 C 
BRANCH  13  19
ATOM     14  C   UNL     1       0.003   0.697  -3.624  0.00  0.00    +0.005 A 
ATOM     15  C   UNL     1       1.188   1.369  -3.856  0.00  0.00    +0.047 A 
ATOM     16  C   UNL     1       1.632   2.322  -2.951  0.00  0.00    +0.131 A 
ATOM     17  C   UNL     1       0.884   2.598  -1.815  0.00  0.00    +0.059 A 
ATOM     18  C   UNL     1      -0.300   1.923  -1.588  0.00  0.00    +0.020 A 
ATOM     19  C   UNL     1      -0.740   0.973  -2.492  0.00  0.00    -0.063 A 
ATOM     20 BR   UNL     1       1.485   3.896  -0.579  0.00  0.00    -0.047 Br
BRANCH  16  21
ATOM     21  O   UNL     1       2.797   2.984  -3.177  0.00  0.00    -0.506 OA
ATOM     22  H   UNL     1       2.694   3.800  -3.685  0.00  0.00    +0.292 HD
ENDBRANCH  16  21
ENDBRANCH  13  19
ENDBRANCH   1  13
TORSDOF 6
