REMARK  Name = ZINC08236574
REMARK  5 active torsions:
REMARK  status: ('A' for Active; 'I' for Inactive)
REMARK    1  A    between atoms: C_1  and  C_2
REMARK    2  A    between atoms: C_2  and  C_26
REMARK    3  A    between atoms: C_7  and  C_11
REMARK    4  A    between atoms: N_13  and  C_14
REMARK    5  A    between atoms: C_19  and  N_20
REMARK                            x       y       z     vdW  Elec       q    Type
REMARK                         _______ _______ _______ _____ _____    ______ ____
ROOT
ATOM      1  C   UNL     1       3.002   5.084   0.304  0.00  0.00    +0.231 C 
ATOM      2  O   UNL     1       2.088   5.881   0.323  0.00  0.00    -0.274 OA
ATOM      3  N   UNL     1       2.791   3.808   0.685  0.00  0.00    -0.283 N 
ATOM      4  H   UNL     1       3.537   3.191   0.745  0.00  0.00    +0.155 HD
ENDROOT
BRANCH   1  10
ATOM      5  C   UNL     1       5.721   6.199  -3.322  0.00  0.00    +0.019 C 
ATOM      6  C   UNL     1       6.041   5.732  -1.900  0.00  0.00    +0.027 C 
ATOM      7  C   UNL     1       6.044   6.943  -0.919  0.00  0.00    +0.003 C 
ATOM      8  C   UNL     1       6.613   6.360   0.412  0.00  0.00    +0.006 C 
ATOM      9  C   UNL     1       5.504   5.410   0.921  0.00  0.00    +0.024 C 
ATOM     10  C   UNL     1       4.372   5.519  -0.145  0.00  0.00    +0.106 C 
ATOM     11  C   UNL     1       4.516   7.024  -0.569  0.00  0.00    +0.028 C 
ATOM     12  C   UNL     1       4.923   4.814  -1.393  0.00  0.00    +0.154 C 
ATOM     13  O   UNL     1       4.563   3.759  -1.856  0.00  0.00    -0.296 OA
ATOM     14  C   UNL     1       7.393   5.016  -1.868  0.00  0.00    +0.019 C 
ENDBRANCH   1  10
BRANCH   3  15
ATOM     15  C   UNL     1       1.496   3.375   0.996  0.00  0.00    +0.068 A 
ATOM     16  C   UNL     1       0.401   3.954   0.369  0.00  0.00    +0.075 A 
ATOM     17  C   UNL     1      -0.879   3.526   0.676  0.00  0.00    +0.168 A 
ATOM     18  C   UNL     1      -1.066   2.509   1.611  0.00  0.00    +0.169 A 
ATOM     19  C   UNL     1       0.029   1.938   2.238  0.00  0.00    +0.084 A 
ATOM     20  C   UNL     1       1.306   2.366   1.931  0.00  0.00    +0.151 A 
ATOM     21  O   UNL     1      -2.405   2.275   1.738  0.00  0.00    -0.453 OA
ATOM     22  C   UNL     1      -3.055   3.429   1.172  0.00  0.00    +0.466 C 
ATOM     23  O   UNL     1      -2.101   3.921   0.212  0.00  0.00    -0.453 OA
BRANCH  20  24
ATOM     24  N   UNL     1       2.474   1.749   2.599  0.00  0.00    +0.058 N 
ATOM     25  O   UNL     1       2.319   0.788   3.331  0.00  0.00    -0.126 OA
ATOM     26  O   UNL     1       3.590   2.202   2.416  0.00  0.00    -0.126 OA
ENDBRANCH  20  24
ENDBRANCH   3  15
TORSDOF 3
