REMARK  Name = ZINC31807467
REMARK  7 active torsions:
REMARK  status: ('A' for Active; 'I' for Inactive)
REMARK    1  A    between atoms: C_1  and  O_2
REMARK    2  A    between atoms: O_2  and  C_3
REMARK    3  A    between atoms: C_3  and  C_5
REMARK    4  A    between atoms: C_5  and  C_6
REMARK    5  A    between atoms: C_6  and  C_7
REMARK    6  A    between atoms: C_7  and  N_8
REMARK    7  A    between atoms: C_20  and  C_22
REMARK                            x       y       z     vdW  Elec       q    Type
REMARK                         _______ _______ _______ _____ _____    ______ ____
ROOT
ATOM      1  N   UNL     1      -3.429  -6.919   0.034  0.00  0.00    -0.299 N 
ATOM      2  C   UNL     1      -4.369  -5.954   0.016  0.00  0.00    +0.303 C 
ATOM      3  O   UNL     1      -4.043  -4.785   0.097  0.00  0.00    -0.253 OA
ATOM      4  N   UNL     1      -5.672  -6.283  -0.091  0.00  0.00    -0.273 N 
ATOM      5  C   UNL     1      -6.704  -5.245  -0.225  0.00  0.00    +0.116 C 
ATOM      6  C   UNL     1      -7.621  -5.285   1.004  0.00  0.00    +0.076 C 
ATOM      7  C   UNL     1      -7.983  -6.721   1.294  0.00  0.00    +0.066 A 
ATOM      8  C   UNL     1      -7.306  -7.788   0.819  0.00  0.00    +0.064 A 
ATOM      9  N   UNL     1      -7.924  -8.902   1.297  0.00  0.00    -0.346 N 
ATOM     10  H   UNL     1      -7.666  -9.822   1.129  0.00  0.00    +0.167 HD
ATOM     11  C   UNL     1      -8.966  -8.483   2.051  0.00  0.00    +0.197 A 
ATOM     12  N   UNL     1      -8.993  -7.176   2.043  0.00  0.00    -0.240 NA
ATOM     13  C   UNL     1      -6.098  -7.695  -0.085  0.00  0.00    +0.159 C 
ATOM     14  H   UNL     1      -3.692  -7.853   0.043  0.00  0.00    +0.150 HD
ENDROOT
BRANCH  13  15
ATOM     15  C   UNL     1      -6.462  -8.127  -1.482  0.00  0.00    +0.014 A 
ATOM     16  C   UNL     1      -7.790  -8.243  -1.845  0.00  0.00    +0.010 A 
ATOM     17  C   UNL     1      -8.125  -8.639  -3.127  0.00  0.00    +0.016 A 
ATOM     18  C   UNL     1      -7.130  -8.921  -4.046  0.00  0.00    +0.021 A 
ATOM     19  C   UNL     1      -5.801  -8.806  -3.684  0.00  0.00    +0.054 A 
ATOM     20  C   UNL     1      -5.465  -8.403  -2.403  0.00  0.00    +0.130 A 
ATOM     21  F   UNL     1      -4.167  -8.286  -2.049  0.00  0.00    -0.205 F 
ATOM     22 BR   UNL     1      -7.589  -9.464  -5.799  0.00  0.00    -0.050 Br
ENDBRANCH  13  15
BRANCH   1  23
ATOM     23  C   UNL     1      -2.009  -6.559   0.040  0.00  0.00    +0.106 C 
BRANCH  23  24
ATOM     24  C   UNL     1      -1.160  -7.831   0.060  0.00  0.00    +0.030 C 
BRANCH  24  25
ATOM     25  C   UNL     1       0.323  -7.455   0.066  0.00  0.00    +0.122 C 
BRANCH  25  26
ATOM     26  C   UNL     1       1.159  -8.708   0.087  0.00  0.00    +0.307 C 
ATOM     27  O   UNL     1       0.624  -9.791   0.096  0.00  0.00    -0.251 OA
BRANCH  26  29
ATOM     28  C   UNL     1       3.229  -9.850   0.115  0.00  0.00    +0.280 C 
ATOM     29  O   UNL     1       2.499  -8.621   0.095  0.00  0.00    -0.468 OA
ENDBRANCH  26  29
ENDBRANCH  25  26
ENDBRANCH  24  25
ENDBRANCH  23  24
ENDBRANCH   1  23
TORSDOF 6
