REMARK  Name = ZINC17123740
REMARK  5 active torsions:
REMARK  status: ('A' for Active; 'I' for Inactive)
REMARK    1  A    between atoms: C_1  and  C_2
REMARK    2  A    between atoms: C_9  and  N_21
REMARK    3  A    between atoms: C_10  and  C_13
REMARK    4  A    between atoms: N_21  and  C_22
REMARK    5  A    between atoms: C_22  and  C_23
REMARK                            x       y       z     vdW  Elec       q    Type
REMARK                         _______ _______ _______ _____ _____    ______ ____
ROOT
ATOM      1  C   UNL     1      -0.807   2.049   0.653  0.00  0.00    +0.047 C 
ATOM      2  C   UNL     1      -0.570   0.577   0.435  0.00  0.00    -0.007 A 
ATOM      3  C   UNL     1      -0.511   0.071  -0.830  0.00  0.00    +0.008 A 
ATOM      4  C   UNL     1      -0.289  -1.300  -1.016  0.00  0.00    +0.019 A 
ATOM      5  C   UNL     1      -0.136  -2.114   0.053  0.00  0.00    +0.096 A 
ATOM      6  N   UNL     1      -0.193  -1.618   1.321  0.00  0.00    -0.267 N 
ATOM      7  C   UNL     1      -0.402  -0.284   1.535  0.00  0.00    +0.145 A 
ATOM      8  N   UNL     1      -0.456   0.222   2.768  0.00  0.00    -0.214 NA
ATOM      9  C   UNL     1      -0.305  -0.541   3.840  0.00  0.00    +0.134 A 
ATOM     10  C   UNL     1      -0.080  -1.931   3.681  0.00  0.00    +0.081 A 
ATOM     11  C   UNL     1      -0.035  -2.458   2.366  0.00  0.00    +0.267 A 
ATOM     12  O   UNL     1       0.156  -3.647   2.182  0.00  0.00    -0.267 OA
ENDROOT
BRANCH  10  13
ATOM     13  C   UNL     1       0.085  -2.769   4.803  0.00  0.00    +0.037 C 
ATOM     14  C   UNL     1       1.070  -2.495   5.731  0.00  0.00    +0.079 C 
ATOM     15  C   UNL     1       1.345  -3.124   6.973  0.00  0.00    +0.275 C 
ATOM     16  O   UNL     1       0.590  -4.160   7.406  0.00  0.00    -0.267 OA
ATOM     17  N   UNL     1       2.339  -2.684   7.684  0.00  0.00    -0.161 NA
ATOM     18  C   UNL     1       3.100  -1.659   7.273  0.00  0.00    +0.139 C 
ATOM     19  S   UNL     1       2.356  -1.252   5.699  0.00  0.00    -0.059 S 
ATOM     20  S   UNL     1       4.442  -0.933   8.050  0.00  0.00    -0.026 S 
ENDBRANCH  10  13
BRANCH   9  21
ATOM     21  N   UNL     1      -0.366   0.013   5.099  0.00  0.00    -0.325 N 
ATOM     22  H   UNL     1      -0.255  -0.549   5.882  0.00  0.00    +0.148 HD
BRANCH  21  23
ATOM     23  C   UNL     1      -0.599   1.451   5.256  0.00  0.00    +0.130 C 
BRANCH  23  24
ATOM     24  C   UNL     1      -0.621   1.798   6.723  0.00  0.00    -0.016 C 
ATOM     25  C   UNL     1       0.180   2.724   7.189  0.00  0.00    +0.005 C 
ENDBRANCH  23  24
ENDBRANCH  21  23
ENDBRANCH   9  21
TORSDOF 4
