REMARK  Name = ZINC12478313
REMARK  15 active torsions:
REMARK  status: ('A' for Active; 'I' for Inactive)
REMARK    1  A    between atoms: C_1  and  C_2
REMARK    2  A    between atoms: C_3  and  C_9
REMARK    3  A    between atoms: C_4  and  C_8
REMARK    4  A    between atoms: C_9  and  C_10
REMARK    5  A    between atoms: C_10  and  N_66
REMARK    6  A    between atoms: C_11  and  C_12
REMARK    7  A    between atoms: C_11  and  N_66
REMARK    8  A    between atoms: C_17  and  O_18
REMARK    9  A    between atoms: O_18  and  C_19
REMARK   10  A    between atoms: C_19  and  C_20
REMARK   11  A    between atoms: C_20  and  C_22
REMARK   12  A    between atoms: C_20  and  O_30
REMARK   13  A    between atoms: C_22  and  N_69
REMARK   14  A    between atoms: C_23  and  N_69
REMARK   15  A    between atoms: C_24  and  N_69
REMARK                            x       y       z     vdW  Elec       q    Type
REMARK                         _______ _______ _______ _____ _____    ______ ____
ROOT
ATOM      1  C   UNL     1       2.896  -5.745  -3.598  0.00  0.00    -0.023 A 
ATOM      2  C   UNL     1       4.224  -6.023  -3.856  0.00  0.00    +0.005 A 
ATOM      3  C   UNL     1       4.719  -7.297  -3.647  0.00  0.00    +0.000 A 
ATOM      4  C   UNL     1       3.885  -8.297  -3.181  0.00  0.00    +0.004 A 
ATOM      5  C   UNL     1       2.556  -8.025  -2.922  0.00  0.00    +0.046 A 
ATOM      6  C   UNL     1       2.058  -6.745  -3.126  0.00  0.00    +0.122 A 
ENDROOT
BRANCH   1   7
ATOM      7  C   UNL     1       2.358  -4.356  -3.825  0.00  0.00    -0.043 C 
BRANCH   7   8
ATOM      8  N   UNL     1       2.287  -3.649  -2.533  0.00  0.00    +0.382 N 
ATOM      9  H   UNL     1       1.665  -4.164  -1.898  0.00  0.00    -0.085 HD
ATOM     10  H   UNL     1       3.227  -3.596  -2.123  0.00  0.00    -0.085 HD
BRANCH   8  11
ATOM     11  C   UNL     1       1.762  -2.283  -2.724  0.00  0.00    -0.077 C 
BRANCH  11  12
ATOM     12  C   UNL     1       1.700  -1.575  -1.369  0.00  0.00    +0.020 C 
BRANCH  12  15
ATOM     13  C   UNL     1      -1.309  -0.725  -1.259  0.00  0.00    +0.065 C 
ATOM     14  C   UNL     1      -0.137   0.188  -1.509  0.00  0.00    +0.036 A 
ATOM     15  C   UNL     1       1.165  -0.179  -1.557  0.00  0.00    -0.006 A 
ATOM     16  C   UNL     1       1.926   0.967  -1.810  0.00  0.00    +0.063 A 
ATOM     17  N   UNL     1       1.111   1.985  -1.911  0.00  0.00    -0.179 NA
ATOM     18  N   UNL     1      -0.197   1.519  -1.725  0.00  0.00    -0.281 N 
ATOM     19  H   UNL     1      -1.028   2.074  -1.747  0.00  0.00    +0.189 HD
ATOM     20  C   UNL     1       3.426   1.019  -1.944  0.00  0.00    +0.068 C 
ENDBRANCH  12  15
ENDBRANCH  11  12
ENDBRANCH   8  11
ENDBRANCH   7   8
ENDBRANCH   1   7
BRANCH   6  21
ATOM     21  O   UNL     1       0.752  -6.474  -2.866  0.00  0.00    -0.489 OA
BRANCH  21  22
ATOM     22  C   UNL     1      -0.051  -7.552  -2.382  0.00  0.00    +0.258 C 
BRANCH  22  23
ATOM     23  C   UNL     1      -1.480  -7.058  -2.149  0.00  0.00    +0.135 C 
BRANCH  23  24
ATOM     24  O   UNL     1      -2.064  -6.684  -3.399  0.00  0.00    -0.390 OA
ATOM     25  H   UNL     1      -2.112  -7.404  -4.042  0.00  0.00    +0.210 HD
ENDBRANCH  23  24
BRANCH  23  26
ATOM     26  C   UNL     1      -2.309  -8.177  -1.514  0.00  0.00    -0.044 C 
BRANCH  26  28
ATOM     27  C   UNL     1      -4.590  -8.807  -1.002  0.00  0.00    -0.096 C 
ATOM     28  N   UNL     1      -3.679  -7.676  -1.276  0.00  0.00    +0.381 N 
ATOM     29  H   UNL     1      -4.004  -7.182  -2.115  0.00  0.00    -0.082 HD
BRANCH  28  30
ATOM     30  C   UNL     1      -3.682  -6.736  -0.135  0.00  0.00    -0.069 C 
ATOM     31  C   UNL     1      -3.275  -7.455   1.153  0.00  0.00    -0.015 C 
ATOM     32  C   UNL     1      -3.288  -6.463   2.317  0.00  0.00    -0.002 C 
ATOM     33  C   UNL     1      -4.695  -5.885   2.479  0.00  0.00    -0.000 C 
ATOM     34  C   UNL     1      -5.102  -5.166   1.191  0.00  0.00    -0.002 C 
ATOM     35  C   UNL     1      -5.089  -6.158   0.027  0.00  0.00    -0.015 C 
ENDBRANCH  28  30
ENDBRANCH  26  28
ENDBRANCH  23  26
ENDBRANCH  22  23
ENDBRANCH  21  22
ENDBRANCH   6  21
TORSDOF 12
