REMARK  Name = ZINC04073077
REMARK  3 active torsions:
REMARK  status: ('A' for Active; 'I' for Inactive)
REMARK    1  A    between atoms: C_12  and  N_25
REMARK    2  A    between atoms: C_13  and  C_23
REMARK    3  A    between atoms: C_14  and  C_16
REMARK                            x       y       z     vdW  Elec       q    Type
REMARK                         _______ _______ _______ _____ _____    ______ ____
ROOT
ATOM      1  C   UNL     1       0.002  -0.004   0.002  0.00  0.00    +0.001 A 
ATOM      2  C   UNL     1      -0.017   1.389   0.010  0.00  0.00    +0.001 A 
ATOM      3  C   UNL     1       1.141   2.106   0.003  0.00  0.00    +0.012 A 
ATOM      4  C   UNL     1       2.374   1.433  -0.013  0.00  0.00    +0.025 A 
ATOM      5  C   UNL     1       2.393   0.018  -0.022  0.00  0.00    -0.014 A 
ATOM      6  C   UNL     1       1.178  -0.689  -0.014  0.00  0.00    +0.008 A 
ATOM      7  C   UNL     1       3.627  -0.654  -0.038  0.00  0.00    +0.009 A 
ATOM      8  C   UNL     1       4.786   0.058  -0.043  0.00  0.00    +0.009 A 
ATOM      9  C   UNL     1       4.780   1.454  -0.033  0.00  0.00    +0.008 A 
ATOM     10  C   UNL     1       3.592   2.146  -0.018  0.00  0.00    +0.142 A 
ATOM     11  O   UNL     1       3.572   3.500  -0.008  0.00  0.00    -0.440 OA
ATOM     12  C   UNL     1       4.655   4.191  -0.401  0.00  0.00    +0.199 C 
ATOM     13  C   UNL     1       5.885   3.625  -0.438  0.00  0.00    +0.098 C 
ATOM     14  C   UNL     1       6.094   2.192  -0.038  0.00  0.00    +0.098 C 
ENDROOT
BRANCH  14  15
ATOM     15  C   UNL     1       6.699   2.142   1.341  0.00  0.00    -0.035 A 
ATOM     16  C   UNL     1       6.018   2.684   2.415  0.00  0.00    +0.005 A 
ATOM     17  C   UNL     1       6.571   2.634   3.681  0.00  0.00    +0.015 A 
ATOM     18  C   UNL     1       7.811   2.051   3.872  0.00  0.00    +0.018 A 
ATOM     19  C   UNL     1       8.494   1.513   2.796  0.00  0.00    +0.015 A 
ATOM     20  C   UNL     1       7.938   1.559   1.532  0.00  0.00    +0.005 A 
ATOM     21 BR   UNL     1       8.571   1.989   5.602  0.00  0.00    -0.050 Br
ENDBRANCH  14  15
BRANCH  12  22
ATOM     22  N   UNL     1       4.511   5.504  -0.775  0.00  0.00    -0.328 N 
ATOM     23  H   UNL     1       5.285   6.015  -1.060  0.00  0.00    +0.145 HD
ATOM     24  H   UNL     1       3.636   5.922  -0.753  0.00  0.00    +0.145 HD
ENDBRANCH  12  22
BRANCH  13  25
ATOM     25  C   UNL     1       7.006   4.407  -0.864  0.00  0.00    +0.101 C 
ATOM     26  N   UNL     1       7.896   5.027  -1.203  0.00  0.00    -0.191 NA
ENDBRANCH  13  25
TORSDOF 3
