REMARK  Name = ZINC60017212
REMARK  8 active torsions:
REMARK  status: ('A' for Active; 'I' for Inactive)
REMARK    1  A    between atoms: C_1  and  C_2
REMARK    2  A    between atoms: C_2  and  C_3
REMARK    3  A    between atoms: C_3  and  C_11
REMARK    4  A    between atoms: C_14  and  N_17
REMARK    5  A    between atoms: C_18  and  C_20
REMARK    6  A    between atoms: C_20  and  N_25
REMARK    7  A    between atoms: N_28  and  C_29
REMARK    8  A    between atoms: C_29  and  C_30
REMARK                            x       y       z     vdW  Elec       q    Type
REMARK                         _______ _______ _______ _____ _____    ______ ____
ROOT
ATOM      1  N   UNL     1      -3.890   1.160   4.959  0.00  0.00    -0.284 N 
ATOM      2  C   UNL     1      -4.496   2.340   4.719  0.00  0.00    +0.241 C 
ATOM      3  O   UNL     1      -4.311   2.913   3.666  0.00  0.00    -0.273 OA
ATOM      4  H   UNL     1      -4.119   0.650   5.752  0.00  0.00    +0.155 HD
ENDROOT
BRANCH   1   8
ATOM      5  C   UNL     1      -1.036  -0.298   2.298  0.00  0.00    -0.032 A 
ATOM      6  C   UNL     1      -0.953  -0.616   3.641  0.00  0.00    +0.006 A 
ATOM      7  C   UNL     1      -1.897  -0.134   4.526  0.00  0.00    +0.023 A 
ATOM      8  C   UNL     1      -2.932   0.670   4.065  0.00  0.00    +0.033 A 
ATOM      9  C   UNL     1      -3.012   0.988   2.716  0.00  0.00    +0.023 A 
ATOM     10  C   UNL     1      -2.062   0.507   1.837  0.00  0.00    +0.006 A 
BRANCH   5  11
ATOM     11  C   UNL     1      -0.004  -0.826   1.335  0.00  0.00    +0.072 C 
ATOM     12  C   UNL     1       1.091  -1.566   2.111  0.00  0.00    +0.030 C 
ATOM     13  C   UNL     1       2.066  -2.188   1.105  0.00  0.00    +0.097 C 
ATOM     14  C   UNL     1       1.301  -3.067   0.152  0.00  0.00    +0.219 C 
ATOM     15  O   UNL     1       1.853  -4.024  -0.347  0.00  0.00    -0.275 OA
ATOM     16  N   UNL     1       0.020  -2.813  -0.154  0.00  0.00    -0.256 N 
ATOM     17  C   UNL     1      -0.657  -1.780   0.370  0.00  0.00    +0.230 C 
ATOM     18  O   UNL     1      -1.817  -1.610   0.059  0.00  0.00    -0.274 OA
ATOM     19  H   UNL     1      -0.435  -3.400  -0.778  0.00  0.00    +0.157 HD
BRANCH  11  21
ATOM     20  C   UNL     1       1.267   1.315   1.544  0.00  0.00    +0.005 C 
ATOM     21  C   UNL     1       0.617   0.339   0.561  0.00  0.00    +0.017 C 
ENDBRANCH  11  21
ENDBRANCH   5  11
ENDBRANCH   1   8
BRANCH   2  22
ATOM     22  C   UNL     1      -5.404   2.946   5.757  0.00  0.00    +0.112 C 
ATOM     23  C   UNL     1      -6.155   4.155   5.162  0.00  0.00    +0.035 C 
ATOM     24  C   UNL     1      -6.224   5.172   6.328  0.00  0.00    +0.003 C 
ATOM     25  C   UNL     1      -4.846   4.999   7.014  0.00  0.00    +0.003 C 
ATOM     26  C   UNL     1      -4.572   3.483   6.935  0.00  0.00    +0.035 C 
BRANCH  22  27
ATOM     27  N   UNL     1      -6.361   1.945   6.234  0.00  0.00    -0.285 N 
ATOM     28  C   UNL     1      -7.287   1.444   5.393  0.00  0.00    +0.301 C 
ATOM     29  O   UNL     1      -7.285   1.771   4.222  0.00  0.00    -0.253 OA
ATOM     30  N   UNL     1      -8.216   0.582   5.850  0.00  0.00    -0.295 N 
ATOM     31  H   UNL     1      -6.327   1.642   7.155  0.00  0.00    +0.151 HD
ATOM     32  H   UNL     1      -8.218   0.321   6.784  0.00  0.00    +0.151 HD
BRANCH  30  33
ATOM     33  C   UNL     1      -9.223   0.038   4.936  0.00  0.00    +0.141 C 
BRANCH  33  34
ATOM     34  C   UNL     1     -10.136  -0.894   5.691  0.00  0.00    -0.030 A 
ATOM     35  C   UNL     1      -9.825  -2.238   5.787  0.00  0.00    +0.005 A 
ATOM     36  C   UNL     1     -10.662  -3.093   6.480  0.00  0.00    +0.000 A 
ATOM     37  C   UNL     1     -11.810  -2.604   7.076  0.00  0.00    +0.000 A 
ATOM     38  C   UNL     1     -12.120  -1.260   6.980  0.00  0.00    +0.000 A 
ATOM     39  C   UNL     1     -11.281  -0.405   6.292  0.00  0.00    +0.005 A 
ENDBRANCH  33  34
ENDBRANCH  30  33
ENDBRANCH  22  27
ENDBRANCH   2  22
TORSDOF 7
