REMARK  Name = ZINC54643799
REMARK  9 active torsions:
REMARK  status: ('A' for Active; 'I' for Inactive)
REMARK    1  A    between atoms: C_1  and  C_2
REMARK    2  A    between atoms: C_6  and  N_9
REMARK    3  A    between atoms: C_7  and  C_8
REMARK    4  A    between atoms: C_10  and  C_12
REMARK    5  A    between atoms: C_13  and  C_35
REMARK    6  A    between atoms: C_17  and  S_27
REMARK    7  A    between atoms: C_20  and  C_22
REMARK    8  A    between atoms: S_27  and  C_28
REMARK    9  A    between atoms: C_28  and  C_29
REMARK                            x       y       z     vdW  Elec       q    Type
REMARK                         _______ _______ _______ _____ _____    ______ ____
ROOT
ATOM      1  C   UNL     1       0.112  -5.037   3.493  0.00  0.00    +0.061 C 
ATOM      2  C   UNL     1       0.190  -6.368   3.347  0.00  0.00    +0.018 C 
ATOM      3  N   UNL     1       0.232  -7.221   4.422  0.00  0.00    -0.287 N 
ATOM      4  C   UNL     1       0.458  -6.662   5.673  0.00  0.00    +0.219 A 
ATOM      5  N   UNL     1       0.760  -7.234   6.806  0.00  0.00    -0.187 NA
ATOM      6  C   UNL     1       0.892  -6.300   7.759  0.00  0.00    +0.211 A 
ATOM      7  N   UNL     1       0.669  -5.115   7.231  0.00  0.00    -0.141 NA
ATOM      8  N   UNL     1       0.383  -5.325   5.883  0.00  0.00    -0.219 N 
ATOM      9  C   UNL     1       0.059  -4.360   4.837  0.00  0.00    +0.184 C 
ATOM     10  C   UNL     1       0.230  -6.946   1.956  0.00  0.00    +0.061 C 
ATOM     11  H   UNL     1       0.109  -8.177   4.312  0.00  0.00    +0.155 HD
ENDROOT
BRANCH   9  12
ATOM     12  C   UNL     1      -1.328  -3.818   5.071  0.00  0.00    +0.019 A 
ATOM     13  C   UNL     1      -1.720  -2.538   5.280  0.00  0.00    +0.013 A 
ATOM     14  C   UNL     1      -3.062  -2.271   5.474  0.00  0.00    +0.008 A 
ATOM     15  C   UNL     1      -3.947  -3.297   5.450  0.00  0.00    +0.045 A 
ATOM     16  S   UNL     1      -2.881  -4.696   5.139  0.00  0.00    -0.099 S 
ENDBRANCH   9  12
BRANCH   1  18
ATOM     17  N   UNL     1      -1.081  -4.002   1.697  0.00  0.00    -0.281 N 
ATOM     18  C   UNL     1       0.086  -4.231   2.331  0.00  0.00    +0.248 C 
ATOM     19  O   UNL     1       1.117  -3.745   1.903  0.00  0.00    -0.270 OA
ATOM     20  H   UNL     1      -1.913  -4.320   2.081  0.00  0.00    +0.155 HD
BRANCH  17  26
ATOM     21  C   UNL     1      -3.482  -1.196  -1.548  0.00  0.00    +0.044 C 
ATOM     22  C   UNL     1      -2.244  -1.936  -1.113  0.00  0.00    -0.046 A 
ATOM     23  C   UNL     1      -1.116  -1.926  -1.915  0.00  0.00    +0.004 A 
ATOM     24  C   UNL     1       0.022  -2.604  -1.520  0.00  0.00    +0.002 A 
ATOM     25  C   UNL     1       0.037  -3.294  -0.323  0.00  0.00    +0.023 A 
ATOM     26  C   UNL     1      -1.093  -3.305   0.484  0.00  0.00    +0.037 A 
ATOM     27  C   UNL     1      -2.233  -2.618   0.087  0.00  0.00    -0.026 A 
ATOM     28  C   UNL     1      -3.460  -2.623   0.963  0.00  0.00    +0.046 C 
ENDBRANCH  17  26
ENDBRANCH   1  18
BRANCH   6  29
ATOM     29  S   UNL     1       1.297  -6.607   9.446  0.00  0.00    -0.080 S 
BRANCH  29  30
ATOM     30  C   UNL     1       1.475  -8.411   9.532  0.00  0.00    +0.112 C 
BRANCH  30  31
ATOM     31  C   UNL     1       1.826  -8.814  10.941  0.00  0.00    -0.037 A 
ATOM     32  C   UNL     1       3.151  -8.890  11.328  0.00  0.00    +0.004 A 
ATOM     33  C   UNL     1       3.473  -9.260  12.621  0.00  0.00    +0.000 A 
ATOM     34  C   UNL     1       2.470  -9.553  13.526  0.00  0.00    +0.000 A 
ATOM     35  C   UNL     1       1.146  -9.475  13.139  0.00  0.00    +0.000 A 
ATOM     36  C   UNL     1       0.823  -9.101  11.848  0.00  0.00    +0.004 A 
ENDBRANCH  30  31
ENDBRANCH  29  30
ENDBRANCH   6  29
TORSDOF 6
