REMARK  Name = ZINC66863070
REMARK  6 active torsions:
REMARK  status: ('A' for Active; 'I' for Inactive)
REMARK    1  A    between atoms: C_4  and  C_7
REMARK    2  A    between atoms: C_9  and  N_18
REMARK    3  A    between atoms: N_10  and  C_12
REMARK    4  A    between atoms: C_19  and  C_21
REMARK    5  A    between atoms: C_21  and  N_22
REMARK    6  A    between atoms: C_26  and  O_29
REMARK                            x       y       z     vdW  Elec       q    Type
REMARK                         _______ _______ _______ _____ _____    ______ ____
ROOT
ATOM      1  C   UNL     1       3.699  -0.689  -0.037  0.00  0.00    +0.095 A 
ATOM      2  C   UNL     1       3.865  -2.087  -0.052  0.00  0.00    +0.074 A 
ATOM      3  C   UNL     1       5.199  -2.346  -0.065  0.00  0.00    +0.129 A 
ATOM      4  N   UNL     1       5.853  -1.151  -0.058  0.00  0.00    -0.218 N 
ATOM      5  N   UNL     1       4.892  -0.132  -0.047  0.00  0.00    -0.165 NA
ENDROOT
BRANCH   1   9
ATOM      6  C   UNL     1      -0.017   1.379   0.010  0.00  0.00    +0.000 A 
ATOM      7  C   UNL     1       1.169   2.092   0.002  0.00  0.00    +0.001 A 
ATOM      8  C   UNL     1       2.377   1.426  -0.013  0.00  0.00    +0.010 A 
ATOM      9  C   UNL     1       2.402   0.033  -0.021  0.00  0.00    +0.002 A 
ATOM     10  C   UNL     1       1.205  -0.680  -0.013  0.00  0.00    +0.010 A 
ATOM     11  C   UNL     1       0.002  -0.004   0.002  0.00  0.00    +0.001 A 
ENDBRANCH   1   9
BRANCH   4  12
ATOM     12  C   UNL     1       7.242  -0.973  -0.067  0.00  0.00    +0.067 A 
ATOM     13  C   UNL     1       8.063  -1.871   0.603  0.00  0.00    +0.028 A 
ATOM     14  C   UNL     1       9.433  -1.692   0.592  0.00  0.00    +0.002 A 
ATOM     15  C   UNL     1       9.987  -0.621  -0.085  0.00  0.00    +0.000 A 
ATOM     16  C   UNL     1       9.172   0.275  -0.752  0.00  0.00    +0.002 A 
ATOM     17  C   UNL     1       7.802   0.099  -0.750  0.00  0.00    +0.028 A 
ENDBRANCH   4  12
BRANCH   3  18
ATOM     18  N   UNL     1       5.792  -3.608  -0.082  0.00  0.00    -0.272 N 
ATOM     19  C   UNL     1       5.021  -4.714  -0.087  0.00  0.00    +0.202 C 
ATOM     20  O   UNL     1       3.813  -4.612  -0.077  0.00  0.00    -0.278 OA
ATOM     21  H   UNL     1       6.758  -3.690  -0.089  0.00  0.00    +0.156 HD
BRANCH  19  22
ATOM     22  C   UNL     1       5.662  -6.078  -0.105  0.00  0.00    +0.019 C 
BRANCH  22  23
ATOM     23  N   UNL     1       4.616  -7.110  -0.108  0.00  0.00    +0.387 N 
ATOM     24  C   UNL     1       3.844  -7.018  -1.352  0.00  0.00    -0.078 C 
ATOM     25  C   UNL     1       2.702  -8.037  -1.325  0.00  0.00    -0.016 C 
ATOM     26  C   UNL     1       3.287  -9.446  -1.188  0.00  0.00    +0.027 C 
ATOM     27  C   UNL     1       4.151  -9.509   0.074  0.00  0.00    +0.098 C 
ATOM     28  C   UNL     1       5.239  -8.436  -0.005  0.00  0.00    -0.047 C 
ATOM     29  H   UNL     1       4.001  -6.966   0.679  0.00  0.00    -0.081 HD
BRANCH  27  30
ATOM     30  O   UNL     1       4.759 -10.799   0.173  0.00  0.00    -0.394 OA
ATOM     31  H   UNL     1       4.126 -11.529   0.224  0.00  0.00    +0.210 HD
ENDBRANCH  27  30
ENDBRANCH  22  23
ENDBRANCH  19  22
ENDBRANCH   3  18
TORSDOF 6
