REMARK  Name = ZINC39693507
REMARK  13 active torsions:
REMARK  status: ('A' for Active; 'I' for Inactive)
REMARK    1  A    between atoms: C_1  and  C_2
REMARK    2  A    between atoms: C_2  and  C_3
REMARK    3  A    between atoms: C_2  and  C_4
REMARK    4  A    between atoms: C_2  and  O_5
REMARK    5  A    between atoms: O_5  and  C_6
REMARK    6  A    between atoms: N_8  and  C_9
REMARK    7  A    between atoms: C_9  and  C_10
REMARK    8  A    between atoms: C_10  and  N_11
REMARK    9  A    between atoms: C_12  and  C_14
REMARK   10  A    between atoms: C_25  and  C_27
REMARK   11  A    between atoms: C_30  and  O_37
REMARK   12  A    between atoms: C_31  and  C_33
REMARK   13  A    between atoms: O_37  and  C_38
REMARK                            x       y       z     vdW  Elec       q    Type
REMARK                         _______ _______ _______ _____ _____    ______ ____
ROOT
ATOM      1  C   UNL     1       8.683   0.106  -5.217  0.00  0.00    +0.100 C 
ATOM      2  C   UNL     1       9.268  -0.583  -3.963  0.00  0.00    +0.121 C 
ATOM      3  N   UNL     1       9.785  -1.881  -4.456  0.00  0.00    -0.296 N 
ATOM      4  C   UNL     1      10.387  -1.563  -5.772  0.00  0.00    +0.115 C 
ATOM      5  C   UNL     1       9.423  -0.538  -6.402  0.00  0.00    -0.004 C 
ATOM      6  C   UNL     1       8.432  -1.243  -7.323  0.00  0.00    -0.010 C 
ATOM      7  C   UNL     1       9.185  -1.826  -8.522  0.00  0.00    -0.082 C 
ATOM      8  N   UNL     1       9.871  -0.747  -9.243  0.00  0.00    +0.379 N 
ATOM      9  C   UNL     1      10.887  -0.135  -8.379  0.00  0.00    -0.082 C 
ATOM     10  C   UNL     1      10.207   0.520  -7.173  0.00  0.00    -0.010 C 
ATOM     11  C   UNL     1       9.721  -3.081  -3.845  0.00  0.00    +0.247 C 
ATOM     12  O   UNL     1       9.081  -3.208  -2.819  0.00  0.00    -0.270 OA
ATOM     13  H   UNL     1      10.315  -1.124 -10.067  0.00  0.00    -0.086 HD
ATOM     14  H   UNL     1       9.198  -0.047  -9.518  0.00  0.00    -0.086 HD
ENDROOT
BRANCH  11  15
ATOM     15  C   UNL     1      10.429  -4.241  -4.421  0.00  0.00    +0.038 A 
ATOM     16  C   UNL     1      11.492  -4.044  -5.307  0.00  0.00    +0.016 A 
ATOM     17  C   UNL     1      12.150  -5.128  -5.842  0.00  0.00    +0.047 A 
ATOM     18  C   UNL     1      11.759  -6.418  -5.502  0.00  0.00    +0.132 A 
ATOM     19  C   UNL     1      10.703  -6.619  -4.621  0.00  0.00    +0.097 A 
ATOM     20  C   UNL     1      10.043  -5.539  -4.077  0.00  0.00    +0.029 A 
BRANCH  19  21
ATOM     21  C   UNL     1      10.282  -8.019  -4.256  0.00  0.00    +0.421 C 
ATOM     22  F   UNL     1       9.207  -7.965  -3.362  0.00  0.00    -0.166 F 
ATOM     23  F   UNL     1       9.894  -8.706  -5.411  0.00  0.00    -0.166 F 
ATOM     24  F   UNL     1      11.355  -8.686  -3.655  0.00  0.00    -0.166 F 
ENDBRANCH  19  21
BRANCH  18  25
ATOM     25  O   UNL     1      12.410  -7.485  -6.032  0.00  0.00    -0.495 OA
ATOM     26  C   UNL     1      13.485  -7.207  -6.930  0.00  0.00    +0.277 C 
ENDBRANCH  18  25
ENDBRANCH  11  15
BRANCH   1  28
ATOM     27  N   UNL     1       6.414   0.689  -6.009  0.00  0.00    -0.314 N 
ATOM     28  C   UNL     1       7.203  -0.157  -5.317  0.00  0.00    +0.218 C 
ATOM     29  O   UNL     1       6.721  -1.129  -4.776  0.00  0.00    -0.275 OA
ATOM     30  H   UNL     1       6.799   1.467  -6.442  0.00  0.00    +0.149 HD
BRANCH  27  31
ATOM     31  C   UNL     1       4.975   0.434  -6.107  0.00  0.00    +0.123 C 
BRANCH  31  32
ATOM     32  C   UNL     1       4.317   1.536  -6.940  0.00  0.00    +0.126 C 
BRANCH  32  35
ATOM     33  C   UNL     1       2.089   2.127  -7.730  0.00  0.00    +0.401 C 
ATOM     34  O   UNL     1       2.572   3.102  -8.272  0.00  0.00    -0.226 OA
ATOM     35  N   UNL     1       2.878   1.281  -7.038  0.00  0.00    -0.280 N 
ATOM     36  H   UNL     1       2.493   0.503  -6.606  0.00  0.00    +0.152 HD
BRANCH  33  37
ATOM     37  O   UNL     1       0.766   1.893  -7.820  0.00  0.00    -0.445 OA
BRANCH  37  39
ATOM     38  C   UNL     1       0.499   2.877 -10.011  0.00  0.00    +0.055 C 
ATOM     39  C   UNL     1      -0.009   2.831  -8.569  0.00  0.00    +0.107 C 
ATOM     40  C   UNL     1       0.120   4.218  -7.938  0.00  0.00    +0.055 C 
ATOM     41  C   UNL     1      -1.478   2.401  -8.559  0.00  0.00    +0.055 C 
ENDBRANCH  37  39
ENDBRANCH  33  37
ENDBRANCH  32  35
ENDBRANCH  31  32
ENDBRANCH  27  31
ENDBRANCH   1  28
TORSDOF 9
