REMARK  Name = ZINC06721743
REMARK  5 active torsions:
REMARK  status: ('A' for Active; 'I' for Inactive)
REMARK    1  A    between atoms: C_1  and  O_2
REMARK    2  A    between atoms: O_2  and  C_3
REMARK    3  A    between atoms: C_10  and  C_25
REMARK    4  A    between atoms: C_16  and  C_18
REMARK    5  A    between atoms: C_23  and  O_24
REMARK                            x       y       z     vdW  Elec       q    Type
REMARK                         _______ _______ _______ _____ _____    ______ ____
ROOT
ATOM      1  C   UNL     1      -1.201  -0.638   0.010  0.00  0.00    +0.162 A 
ATOM      2  C   UNL     1      -2.368   0.104   0.019  0.00  0.00    +0.049 A 
ATOM      3  C   UNL     1      -3.594  -0.533   0.031  0.00  0.00    +0.004 A 
ATOM      4  C   UNL     1      -3.649  -1.914   0.042  0.00  0.00    +0.009 A 
ATOM      5  C   UNL     1      -2.486  -2.662   0.036  0.00  0.00    +0.020 A 
ATOM      6  C   UNL     1      -1.250  -2.036   0.003  0.00  0.00    +0.170 A 
ATOM      7  O   UNL     1      -0.067  -2.701  -0.059  0.00  0.00    -0.461 OA
ATOM      8  C   UNL     1      -0.018  -4.108   0.204  0.00  0.00    +0.311 C 
ATOM      9  N   UNL     1      -1.251  -4.673  -0.357  0.00  0.00    -0.205 N 
ATOM     10  C   UNL     1      -2.577  -4.165   0.074  0.00  0.00    +0.136 C 
ATOM     11  C   UNL     1      -3.507  -4.711  -1.018  0.00  0.00    +0.086 C 
ATOM     12  C   UNL     1      -2.641  -5.710  -1.757  0.00  0.00    +0.072 C 
ATOM     13  N   UNL     1      -1.431  -5.635  -1.334  0.00  0.00    -0.184 NA
ENDROOT
BRANCH  12  14
ATOM     14  C   UNL     1      -3.109  -6.622  -2.817  0.00  0.00    +0.039 A 
ATOM     15  C   UNL     1      -4.447  -6.606  -3.217  0.00  0.00    +0.013 A 
ATOM     16  C   UNL     1      -4.879  -7.462  -4.208  0.00  0.00    +0.001 A 
ATOM     17  C   UNL     1      -3.991  -8.338  -4.809  0.00  0.00    +0.004 A 
ATOM     18  C   UNL     1      -2.664  -8.364  -4.422  0.00  0.00    +0.046 A 
ATOM     19  C   UNL     1      -2.213  -7.507  -3.432  0.00  0.00    +0.126 A 
BRANCH  19  20
ATOM     20  O   UNL     1      -0.908  -7.528  -3.054  0.00  0.00    -0.506 OA
ATOM     21  H   UNL     1      -0.717  -8.146  -2.336  0.00  0.00    +0.292 HD
ENDBRANCH  19  20
ENDBRANCH  12  14
BRANCH   8  22
ATOM     22  C   UNL     1       1.186  -4.718  -0.466  0.00  0.00    +0.015 A 
ATOM     23  C   UNL     1       1.106  -5.206  -1.762  0.00  0.00    +0.028 A 
ATOM     24  C   UNL     1       2.231  -5.759  -2.344  0.00  0.00    +0.111 A 
ATOM     25  N   UNL     1       3.369  -5.826  -1.681  0.00  0.00    -0.263 NA
ATOM     26  C   UNL     1       3.482  -5.372  -0.449  0.00  0.00    +0.111 A 
ATOM     27  C   UNL     1       2.401  -4.800   0.196  0.00  0.00    +0.028 A 
ENDBRANCH   8  22
BRANCH   1  29
ATOM     28  C   UNL     1      -0.017   1.425   0.010  0.00  0.00    +0.277 C 
ATOM     29  O   UNL     1       0.002  -0.004   0.002  0.00  0.00    -0.491 OA
ENDBRANCH   1  29
TORSDOF 4
