REMARK  Name = ZINC20842372
REMARK  8 active torsions:
REMARK  status: ('A' for Active; 'I' for Inactive)
REMARK    1  A    between atoms: C_1  and  C_2
REMARK    2  A    between atoms: C_5  and  S_8
REMARK    3  A    between atoms: N_6  and  N_7
REMARK    4  A    between atoms: S_8  and  C_9
REMARK    5  A    between atoms: C_9  and  C_10
REMARK    6  A    between atoms: C_16  and  S_18
REMARK    7  A    between atoms: S_18  and  C_19
REMARK    8  A    between atoms: C_19  and  C_20
REMARK                            x       y       z     vdW  Elec       q    Type
REMARK                         _______ _______ _______ _____ _____    ______ ____
ROOT
ATOM      1  C   UNL     1       2.506   2.217  -5.266  0.00  0.00    +0.229 C 
ATOM      2  O   UNL     1       3.494   1.830  -4.678  0.00  0.00    -0.275 OA
ATOM      3  N   UNL     1       2.599   2.616  -6.550  0.00  0.00    -0.263 N 
ATOM      4  C   UNL     1       3.829   2.583  -7.202  0.00  0.00    +0.189 A 
ATOM      5  N   UNL     1       5.016   2.203  -6.760  0.00  0.00    -0.125 NA
ATOM      6  N   UNL     1       6.044   2.235  -7.490  0.00  0.00    -0.133 NA
ATOM      7  C   UNL     1       5.997   2.653  -8.747  0.00  0.00    +0.160 A 
ATOM      8  S   UNL     1       4.254   3.037  -8.882  0.00  0.00    -0.024 S 
ATOM      9  H   UNL     1       1.703   2.967  -7.083  0.00  0.00    +0.157 HD
ENDROOT
BRANCH   1  10
ATOM     10  C   UNL     1       1.175   2.253  -4.560  0.00  0.00    +0.173 C 
BRANCH  10  11
ATOM     11  S   UNL     1       1.377   1.661  -2.862  0.00  0.00    -0.075 S 
BRANCH  11  16
ATOM     12  C   UNL     1      -3.042   1.595   0.090  0.00  0.00    +0.090 C 
ATOM     13  C   UNL     1      -2.079   1.768  -1.057  0.00  0.00    +0.148 A 
ATOM     14  N   UNL     1      -2.369   2.211  -2.248  0.00  0.00    -0.132 NA
ATOM     15  N   UNL     1      -1.313   2.232  -2.980  0.00  0.00    -0.121 NA
ATOM     16  C   UNL     1      -0.282   1.804  -2.288  0.00  0.00    +0.209 A 
ATOM     17  N   UNL     1      -0.741   1.490  -1.041  0.00  0.00    -0.228 N 
BRANCH  17  18
ATOM     18  N   UNL     1      -0.012   1.005   0.008  0.00  0.00    -0.295 N 
ATOM     19  H   UNL     1       1.067   0.823  -0.110  0.00  0.00    +0.163 HD
ATOM     20  H   UNL     1      -0.503   0.796   0.969  0.00  0.00    +0.163 HD
ENDBRANCH  17  18
ENDBRANCH  11  16
ENDBRANCH  10  11
ENDBRANCH   1  10
BRANCH   7  21
ATOM     21  S   UNL     1       7.282   2.785  -9.945  0.00  0.00    -0.092 S 
BRANCH  21  22
ATOM     22  C   UNL     1       8.761   2.205  -9.069  0.00  0.00    +0.111 C 
BRANCH  22  23
ATOM     23  C   UNL     1       9.950   2.268  -9.993  0.00  0.00    -0.036 A 
ATOM     24  C   UNL     1      10.718   3.416 -10.054  0.00  0.00    +0.004 A 
ATOM     25  C   UNL     1      11.809   3.474 -10.901  0.00  0.00    +0.001 A 
ATOM     26  C   UNL     1      12.132   2.384 -11.688  0.00  0.00    +0.015 A 
ATOM     27  C   UNL     1      11.363   1.236 -11.628  0.00  0.00    +0.018 A 
ATOM     28  C   UNL     1      10.274   1.176 -10.776  0.00  0.00    +0.019 A 
ATOM     29 BR   UNL     1      11.804  -0.255 -12.704  0.00  0.00    -0.050 Br
ENDBRANCH  22  23
ENDBRANCH  21  22
ENDBRANCH   7  21
TORSDOF 7
