REMARK  Name = ZINC24496285
REMARK  9 active torsions:
REMARK  status: ('A' for Active; 'I' for Inactive)
REMARK    1  A    between atoms: C_1  and  C_2
REMARK    2  A    between atoms: C_2  and  C_3
REMARK    3  A    between atoms: C_2  and  C_4
REMARK    4  A    between atoms: C_2  and  O_5
REMARK    5  A    between atoms: O_5  and  C_6
REMARK    6  A    between atoms: N_8  and  C_9
REMARK    7  A    between atoms: C_9  and  C_16
REMARK    8  A    between atoms: C_16  and  N_17
REMARK    9  A    between atoms: C_18  and  C_20
REMARK                            x       y       z     vdW  Elec       q    Type
REMARK                         _______ _______ _______ _____ _____    ______ ____
ROOT
ATOM      1  C   UNL     1       3.904   1.443  -2.784  0.00  0.00    +0.130 C 
ENDROOT
BRANCH   1   2
ATOM      2  C   UNL     1       3.817  -0.075  -2.952  0.00  0.00    +0.053 C 
ATOM      3  C   UNL     1       4.929  -0.733  -2.109  0.00  0.00    +0.027 C 
ATOM      4  C   UNL     1       4.551  -2.168  -1.857  0.00  0.00    +0.002 C 
ATOM      5  C   UNL     1       5.163  -3.130  -2.894  0.00  0.00    +0.000 C 
ATOM      6  C   UNL     1       5.099  -2.578  -4.331  0.00  0.00    +0.000 C 
ATOM      7  C   UNL     1       3.784  -1.913  -4.635  0.00  0.00    +0.002 C 
ATOM      8  C   UNL     1       3.927  -0.400  -4.366  0.00  0.00    +0.027 C 
BRANCH   2  11
ATOM      9  C   UNL     1       2.144  -0.270  -1.191  0.00  0.00    +0.401 C 
ATOM     10  O   UNL     1       2.925   0.264  -0.428  0.00  0.00    -0.226 OA
ATOM     11  N   UNL     1       2.515  -0.532  -2.460  0.00  0.00    -0.274 N 
ATOM     12  H   UNL     1       1.920  -1.024  -3.047  0.00  0.00    +0.153 HD
BRANCH   9  13
ATOM     13  O   UNL     1       0.908  -0.598  -0.769  0.00  0.00    -0.445 OA
BRANCH  13  15
ATOM     14  C   UNL     1       0.718   1.268   0.754  0.00  0.00    +0.055 C 
ATOM     15  C   UNL     1       0.565  -0.243   0.572  0.00  0.00    +0.107 C 
ATOM     16  C   UNL     1       1.493  -0.971   1.546  0.00  0.00    +0.055 C 
ATOM     17  C   UNL     1      -0.884  -0.646   0.851  0.00  0.00    +0.055 C 
ENDBRANCH  13  15
ENDBRANCH   9  13
ENDBRANCH   2  11
ENDBRANCH   1   2
BRANCH   1  18
ATOM     18  N   UNL     1       2.809   2.079  -3.521  0.00  0.00    -0.309 N 
ATOM     19  C   UNL     1       2.743   3.423  -3.602  0.00  0.00    +0.249 C 
ATOM     20  O   UNL     1       3.642   4.105  -3.148  0.00  0.00    -0.270 OA
ATOM     21  H   UNL     1       2.131   1.534  -3.949  0.00  0.00    +0.149 HD
BRANCH  19  22
ATOM     22  C   UNL     1       1.583   4.065  -4.242  0.00  0.00    +0.102 A 
ATOM     23  C   UNL     1       1.552   5.438  -4.448  0.00  0.00    +0.031 A 
ATOM     24  C   UNL     1       0.419   6.008  -5.067  0.00  0.00    +0.037 A 
ATOM     25  C   UNL     1      -0.641   5.215  -5.469  0.00  0.00    +0.030 A 
ATOM     26  N   UNL     1      -0.614   3.882  -5.264  0.00  0.00    -0.325 N 
ATOM     27  H   UNL     1      -1.372   3.347  -5.548  0.00  0.00    +0.169 HD
ATOM     28  C   UNL     1       0.433   3.273  -4.685  0.00  0.00    +0.261 A 
ATOM     29  O   UNL     1       0.425   2.066  -4.523  0.00  0.00    -0.267 OA
ATOM     30  C   UNL     1      -1.849   5.804  -6.150  0.00  0.00    +0.054 C 
ATOM     31  C   UNL     1      -2.008   7.284  -5.817  0.00  0.00    +0.014 C 
ATOM     32  C   UNL     1      -0.710   8.024  -6.167  0.00  0.00    +0.080 C 
ATOM     33  C   UNL     1       0.379   7.466  -5.275  0.00  0.00    +0.165 C 
ATOM     34  O   UNL     1       1.192   8.196  -4.749  0.00  0.00    -0.292 OA
ENDBRANCH  19  22
ENDBRANCH   1  18
TORSDOF 6
