REMARK  Name = ZINC33628603
REMARK  9 active torsions:
REMARK  status: ('A' for Active; 'I' for Inactive)
REMARK    1  A    between atoms: C_1  and  C_2
REMARK    2  A    between atoms: C_3  and  C_30
REMARK    3  A    between atoms: C_4  and  C_23
REMARK    4  A    between atoms: C_9  and  S_13
REMARK    5  A    between atoms: S_13  and  C_14
REMARK    6  A    between atoms: C_14  and  C_15
REMARK    7  A    between atoms: C_26  and  O_29
REMARK    8  A    between atoms: C_30  and  O_32
REMARK    9  A    between atoms: O_32  and  C_33
REMARK                            x       y       z     vdW  Elec       q    Type
REMARK                         _______ _______ _______ _____ _____    ______ ____
ROOT
ATOM      1  C   UNL     1      -7.438  -5.266  -4.318  0.00  0.00    +0.061 C 
ATOM      2  C   UNL     1      -6.913  -4.513  -3.123  0.00  0.00    +0.017 C 
ATOM      3  C   UNL     1      -7.376  -4.811  -1.897  0.00  0.00    +0.065 C 
ATOM      4  C   UNL     1      -6.894  -4.087  -0.673  0.00  0.00    +0.096 C 
ATOM      5  C   UNL     1      -5.622  -3.340  -0.958  0.00  0.00    +0.069 A 
ATOM      6  C   UNL     1      -5.223  -3.092  -2.234  0.00  0.00    +0.135 A 
ATOM      7  N   UNL     1      -4.064  -2.394  -2.451  0.00  0.00    -0.208 NA
ATOM      8  C   UNL     1      -3.317  -1.966  -1.395  0.00  0.00    +0.171 A 
ATOM      9  N   UNL     1      -3.691  -2.203  -0.155  0.00  0.00    -0.302 N 
ATOM     10  C   UNL     1      -4.821  -2.877   0.108  0.00  0.00    +0.258 A 
ATOM     11  O   UNL     1      -5.155  -3.090   1.265  0.00  0.00    -0.267 OA
ATOM     12  N   UNL     1      -5.973  -3.536  -3.301  0.00  0.00    -0.302 N 
ATOM     13  H   UNL     1      -5.814  -3.102  -4.299  0.00  0.00    +0.153 HD
ATOM     14  H   UNL     1      -3.075  -1.847   0.684  0.00  0.00    +0.171 HD
ENDROOT
BRANCH   4  15
ATOM     15  C   UNL     1      -7.953  -3.111  -0.227  0.00  0.00    -0.035 A 
ATOM     16  C   UNL     1      -8.339  -2.082  -1.065  0.00  0.00    +0.008 A 
ATOM     17  C   UNL     1      -9.313  -1.189  -0.661  0.00  0.00    +0.046 A 
ATOM     18  C   UNL     1      -9.895  -1.320   0.592  0.00  0.00    +0.117 A 
ATOM     19  C   UNL     1      -9.502  -2.351   1.433  0.00  0.00    +0.046 A 
ATOM     20  C   UNL     1      -8.532  -3.244   1.021  0.00  0.00    +0.008 A 
BRANCH  18  21
ATOM     21  O   UNL     1     -10.849  -0.440   0.994  0.00  0.00    -0.507 OA
ATOM     22  H   UNL     1     -11.310  -0.544   1.987  0.00  0.00    +0.292 HD
ENDBRANCH  18  21
ENDBRANCH   4  15
BRANCH   3  23
ATOM     23  C   UNL     1      -8.342  -5.834  -1.755  0.00  0.00    +0.337 C 
ATOM     24  O   UNL     1      -8.744  -6.431  -2.737  0.00  0.00    -0.245 OA
BRANCH  23  25
ATOM     25  O   UNL     1      -8.819  -6.147  -0.532  0.00  0.00    -0.465 OA
ATOM     26  C   UNL     1      -9.793  -7.191  -0.464  0.00  0.00    +0.280 C 
ENDBRANCH  23  25
ENDBRANCH   3  23
BRANCH   8  27
ATOM     27  S   UNL     1      -1.826  -1.075  -1.694  0.00  0.00    -0.083 S 
BRANCH  27  28
ATOM     28  C   UNL     1      -1.292  -0.775   0.010  0.00  0.00    +0.115 C 
BRANCH  28  29
ATOM     29  C   UNL     1       0.002  -0.004   0.002  0.00  0.00    -0.002 A 
ATOM     30  C   UNL     1       1.209  -0.678  -0.013  0.00  0.00    +0.007 A 
ATOM     31  C   UNL     1       2.396   0.029  -0.021  0.00  0.00    +0.000 A 
ATOM     32  C   UNL     1       2.379   1.412  -0.013  0.00  0.00    +0.003 A 
ATOM     33  C   UNL     1       1.174   2.088   0.002  0.00  0.00    +0.038 A 
ATOM     34  C   UNL     1      -0.017   1.380   0.010  0.00  0.00    +0.127 A 
ATOM     35  F   UNL     1      -1.195   2.040   0.019  0.00  0.00    -0.205 F 
ENDBRANCH  28  29
ENDBRANCH  27  28
ENDBRANCH   8  27
TORSDOF 7
