REMARK  Name = ZINC49066755
REMARK  9 active torsions:
REMARK  status: ('A' for Active; 'I' for Inactive)
REMARK    1  A    between atoms: C_1  and  C_2
REMARK    2  A    between atoms: C_4  and  C_13
REMARK    3  A    between atoms: C_13  and  C_15
REMARK    4  A    between atoms: C_13  and  O_21
REMARK    5  A    between atoms: O_21  and  C_22
REMARK    6  A    between atoms: C_22  and  C_23
REMARK    7  A    between atoms: C_23  and  C_25
REMARK    8  A    between atoms: C_23  and  O_33
REMARK    9  A    between atoms: C_25  and  N_26
REMARK                            x       y       z     vdW  Elec       q    Type
REMARK                         _______ _______ _______ _____ _____    ______ ____
ROOT
ATOM      1  C   UNL     1       0.028  -2.790  -2.553  0.00  0.00    +0.179 C 
ENDROOT
BRANCH   1   5
ATOM      2  C   UNL     1      -0.018   1.503   0.010  0.00  0.00    +0.065 C 
ATOM      3  C   UNL     1       0.002  -0.004   0.002  0.00  0.00    +0.039 A 
ATOM      4  C   UNL     1       0.005  -0.675  -1.219  0.00  0.00    +0.030 A 
ATOM      5  C   UNL     1       0.024  -2.041  -1.246  0.00  0.00    -0.004 A 
ATOM      6  C   UNL     1       0.040  -2.729  -0.018  0.00  0.00    +0.007 A 
ATOM      7  C   UNL     1       0.060  -4.132   0.033  0.00  0.00    +0.025 A 
ATOM      8  C   UNL     1       0.075  -4.761   1.241  0.00  0.00    +0.019 A 
ATOM      9  C   UNL     1       0.071  -4.030   2.429  0.00  0.00    +0.017 A 
ATOM     10  C   UNL     1       0.051  -2.670   2.415  0.00  0.00    +0.029 A 
ATOM     11  C   UNL     1       0.035  -1.984   1.188  0.00  0.00    +0.072 A 
ATOM     12  N   UNL     1       0.022  -0.648   1.144  0.00  0.00    -0.252 NA
ATOM     13 BR   UNL     1       0.103  -6.651   1.309  0.00  0.00    -0.050 Br
ENDBRANCH   1   5
BRANCH   1  14
ATOM     14  C   UNL     1       1.446  -3.127  -2.935  0.00  0.00    -0.012 A 
ATOM     15  C   UNL     1       2.269  -2.176  -3.519  0.00  0.00    +0.026 A 
ATOM     16  C   UNL     1       3.564  -2.522  -3.856  0.00  0.00    +0.111 A 
ATOM     17  N   UNL     1       4.018  -3.739  -3.628  0.00  0.00    -0.263 NA
ATOM     18  C   UNL     1       3.264  -4.668  -3.075  0.00  0.00    +0.111 A 
ATOM     19  C   UNL     1       1.961  -4.394  -2.706  0.00  0.00    +0.026 A 
ENDBRANCH   1  14
BRANCH   1  20
ATOM     20  O   UNL     1      -0.558  -1.975  -3.570  0.00  0.00    -0.365 OA
BRANCH  20  21
ATOM     21  C   UNL     1      -1.218  -2.715  -4.600  0.00  0.00    +0.194 C 
BRANCH  21  22
ATOM     22  C   UNL     1      -1.804  -1.746  -5.629  0.00  0.00    +0.157 C 
BRANCH  22  23
ATOM     23  O   UNL     1      -2.827  -0.961  -5.014  0.00  0.00    -0.388 OA
ATOM     24  H   UNL     1      -3.562  -1.480  -4.659  0.00  0.00    +0.210 HD
ENDBRANCH  22  23
BRANCH  22  25
ATOM     25  C   UNL     1      -2.401  -2.539  -6.793  0.00  0.00    +0.138 C 
BRANCH  25  26
ATOM     26  N   UNL     1      -2.855  -1.612  -7.833  0.00  0.00    -0.311 N 
ATOM     27  C   UNL     1      -3.434  -2.101  -8.991  0.00  0.00    +0.211 A 
ATOM     28  N   UNL     1      -3.644  -3.401  -9.287  0.00  0.00    -0.247 N 
ATOM     29  H   UNL     1      -3.420  -4.167  -8.734  0.00  0.00    +0.192 HD
ATOM     30  N   UNL     1      -4.251  -3.425 -10.553  0.00  0.00    -0.160 NA
ATOM     31  C   UNL     1      -4.371  -2.184 -10.942  0.00  0.00    +0.246 A 
ATOM     32  N   UNL     1      -3.882  -1.381  -9.996  0.00  0.00    -0.202 NA
ATOM     33  H   UNL     1      -2.750  -0.656  -7.709  0.00  0.00    +0.149 HD
ENDBRANCH  25  26
ENDBRANCH  22  25
ENDBRANCH  21  22
ENDBRANCH  20  21
ENDBRANCH   1  20
TORSDOF 8
