REMARK  Name = ZINC13428256
REMARK  6 active torsions:
REMARK  status: ('A' for Active; 'I' for Inactive)
REMARK    1  A    between atoms: C_4  and  C_7
REMARK    2  A    between atoms: C_7  and  N_8
REMARK    3  A    between atoms: C_10  and  C_13
REMARK    4  A    between atoms: C_14  and  C_15
REMARK    5  A    between atoms: N_17  and  C_18
REMARK    6  A    between atoms: C_23  and  C_24
REMARK                            x       y       z     vdW  Elec       q    Type
REMARK                         _______ _______ _______ _____ _____    ______ ____
ROOT
ATOM      1  C   UNL     1       6.034   0.686  -6.458  0.00  0.00    +0.241 C 
ATOM      2  O   UNL     1       7.055   1.263  -6.129  0.00  0.00    -0.270 OA
ATOM      3  N   UNL     1       5.888   0.242  -7.722  0.00  0.00    -0.281 N 
ATOM      4  H   UNL     1       5.104  -0.273  -7.967  0.00  0.00    +0.155 HD
ENDROOT
BRANCH   3   5
ATOM      5  C   UNL     1       6.864   0.522  -8.675  0.00  0.00    +0.052 A 
ATOM      6  C   UNL     1       8.202   0.564  -8.310  0.00  0.00    +0.073 A 
ATOM      7  C   UNL     1       9.169   0.838  -9.262  0.00  0.00    +0.164 A 
ATOM      8  C   UNL     1       8.806   1.085 -10.584  0.00  0.00    +0.163 A 
ATOM      9  C   UNL     1       7.481   1.052 -10.961  0.00  0.00    +0.066 A 
ATOM     10  C   UNL     1       6.495   0.769 -10.008  0.00  0.00    +0.088 A 
ATOM     11  O   UNL     1       9.774   1.360 -11.508  0.00  0.00    -0.488 OA
ATOM     12  C   UNL     1      10.649   0.280 -11.838  0.00  0.00    +0.232 C 
ATOM     13  C   UNL     1      11.789   0.183 -10.837  0.00  0.00    +0.082 C 
ATOM     14  C   UNL     1      11.304  -0.169  -9.440  0.00  0.00    +0.232 C 
ATOM     15  O   UNL     1      10.485   0.874  -8.909  0.00  0.00    -0.488 OA
BRANCH  10  16
ATOM     16  C   UNL     1       5.078   0.732 -10.400  0.00  0.00    +0.388 C 
ATOM     17  O   UNL     1       4.217   0.585  -9.555  0.00  0.00    -0.241 OA
ATOM     18  O   UNL     1       4.734   0.861 -11.697  0.00  0.00    -0.241 OA
ENDBRANCH  10  16
ENDBRANCH   3   5
BRANCH   1  20
ATOM     19  C   UNL     1       5.145   0.928  -4.244  0.00  0.00    +0.016 C 
ATOM     20  C   UNL     1       4.999   0.482  -5.511  0.00  0.00    +0.068 C 
BRANCH  19  23
ATOM     21  N   UNL     1       2.913   0.728  -1.396  0.00  0.00    -0.267 N 
ATOM     22  C   UNL     1       4.080   1.114  -1.938  0.00  0.00    +0.116 A 
ATOM     23  C   UNL     1       4.072   0.717  -3.262  0.00  0.00    +0.013 A 
ATOM     24  C   UNL     1       2.837   0.068  -3.494  0.00  0.00    +0.142 A 
ATOM     25  N   UNL     1       2.161   0.075  -2.379  0.00  0.00    -0.179 NA
BRANCH  21  26
ATOM     26  C   UNL     1       2.499   0.947  -0.007  0.00  0.00    +0.178 C 
BRANCH  26  30
ATOM     27  C   UNL     1      -1.259   2.977   0.055  0.00  0.00    +0.000 A 
ATOM     28  C   UNL     1      -1.220   1.595   0.038  0.00  0.00    +0.000 A 
ATOM     29  C   UNL     1      -0.003   0.938   0.022  0.00  0.00    +0.005 A 
ATOM     30  C   UNL     1       1.174   1.663   0.015  0.00  0.00    -0.026 A 
ATOM     31  C   UNL     1       1.135   3.045   0.029  0.00  0.00    +0.005 A 
ATOM     32  C   UNL     1      -0.082   3.702   0.049  0.00  0.00    +0.000 A 
ENDBRANCH  26  30
ENDBRANCH  21  26
ENDBRANCH  19  23
ENDBRANCH   1  20
TORSDOF 6
