REMARK  Name = ZINC65182579
REMARK  8 active torsions:
REMARK  status: ('A' for Active; 'I' for Inactive)
REMARK    1  A    between atoms: C_1  and  C_2
REMARK    2  A    between atoms: C_7  and  C_13
REMARK    3  A    between atoms: C_9  and  C_12
REMARK    4  A    between atoms: C_16  and  C_19
REMARK    5  A    between atoms: C_19  and  C_20
REMARK    6  A    between atoms: C_20  and  N_21
REMARK    7  A    between atoms: N_21  and  C_22
REMARK    8  A    between atoms: C_23  and  C_25
REMARK                            x       y       z     vdW  Elec       q    Type
REMARK                         _______ _______ _______ _____ _____    ______ ____
ROOT
ATOM      1  C   UNL     1       1.472  -4.721   1.414  0.00  0.00    +0.318 C 
ATOM      2  N   UNL     1       1.460  -5.901   0.533  0.00  0.00    -0.291 N 
ATOM      3  C   UNL     1       2.735  -6.038   0.035  0.00  0.00    +0.139 C 
ATOM      4  N   UNL     1       3.516  -5.121   0.480  0.00  0.00    -0.072 NA
ATOM      5  O   UNL     1       2.825  -4.244   1.354  0.00  0.00    -0.367 OA
ATOM      6  H   UNL     1       0.700  -6.471   0.342  0.00  0.00    +0.151 HD
ENDROOT
BRANCH   1  13
ATOM      7  C   UNL     1       1.911   2.240   0.314  0.00  0.00    +0.044 C 
ATOM      8  C   UNL     1       1.641   0.774   0.094  0.00  0.00    -0.050 A 
ATOM      9  C   UNL     1       1.803   0.235  -1.190  0.00  0.00    +0.005 A 
ATOM     10  C   UNL     1       1.582  -1.067  -1.468  0.00  0.00    +0.026 A 
ATOM     11  C   UNL     1       1.165  -1.960  -0.443  0.00  0.00    +0.043 A 
ATOM     12  N   UNL     1       0.890  -3.241  -0.460  0.00  0.00    -0.373 N 
ATOM     13  C   UNL     1       0.505  -3.656   0.894  0.00  0.00    +0.168 C 
ATOM     14  C   UNL     1       0.590  -2.411   1.748  0.00  0.00    -0.036 C 
ATOM     15  C   UNL     1       0.986  -1.416   0.922  0.00  0.00    -0.001 A 
ATOM     16  C   UNL     1       1.254   0.011   1.141  0.00  0.00    +0.013 A 
ATOM     17  C   UNL     1       0.293  -2.301   3.221  0.00  0.00    +0.042 C 
ATOM     18  H   UNL     1       0.933  -3.819  -1.238  0.00  0.00    +0.160 HD
ENDBRANCH   1  13
BRANCH   3  19
ATOM     19  C   UNL     1       3.161  -7.128  -0.914  0.00  0.00    +0.094 C 
BRANCH  19  20
ATOM     20  C   UNL     1       4.644  -6.961  -1.249  0.00  0.00    +0.115 C 
BRANCH  20  21
ATOM     21  N   UNL     1       5.059  -8.021  -2.172  0.00  0.00    -0.304 N 
ATOM     22  C   UNL     1       4.960  -7.813  -3.619  0.00  0.00    +0.132 C 
ATOM     23  C   UNL     1       5.531  -9.187  -1.690  0.00  0.00    +0.218 C 
ATOM     24  O   UNL     1       5.533  -9.393  -0.494  0.00  0.00    -0.275 OA
BRANCH  23  25
ATOM     25  C   UNL     1       6.057 -10.236  -2.635  0.00  0.00    +0.075 C 
ATOM     26  C   UNL     1       4.886 -10.903  -3.360  0.00  0.00    +0.013 C 
ATOM     27  C   UNL     1       5.420 -11.968  -4.320  0.00  0.00    +0.001 C 
ATOM     28  C   UNL     1       6.199 -13.022  -3.530  0.00  0.00    +0.000 C 
ATOM     29  C   UNL     1       7.370 -12.355  -2.807  0.00  0.00    +0.001 C 
ATOM     30  C   UNL     1       6.836 -11.290  -1.846  0.00  0.00    +0.013 C 
ENDBRANCH  23  25
ENDBRANCH  20  21
ENDBRANCH  19  20
ENDBRANCH   3  19
TORSDOF 5
