REMARK  Name = ZINC63363239
REMARK  10 active torsions:
REMARK  status: ('A' for Active; 'I' for Inactive)
REMARK    1  A    between atoms: C_1  and  C_2
REMARK    2  A    between atoms: C_4  and  C_8
REMARK    3  A    between atoms: C_8  and  S_9
REMARK    4  A    between atoms: S_9  and  C_10
REMARK    5  A    between atoms: C_10  and  C_11
REMARK    6  A    between atoms: C_11  and  N_12
REMARK    7  A    between atoms: N_12  and  C_13
REMARK    8  A    between atoms: C_13  and  C_31
REMARK    9  A    between atoms: C_15  and  C_30
REMARK   10  A    between atoms: N_17  and  C_20
REMARK                            x       y       z     vdW  Elec       q    Type
REMARK                         _______ _______ _______ _____ _____    ______ ____
ROOT
ATOM      1  C   UNL     1      -6.242   4.801   4.273  0.00  0.00    +0.015 C 
ATOM      2  C   UNL     1      -7.003   4.444   5.374  0.00  0.00    +0.077 C 
ATOM      3  C   UNL     1      -7.268   5.246   6.577  0.00  0.00    +0.070 C 
ATOM      4  N   UNL     1      -8.025   4.540   7.360  0.00  0.00    -0.179 NA
ATOM      5  N   UNL     1      -8.315   3.297   6.798  0.00  0.00    -0.158 N 
ATOM      6  C   UNL     1      -7.727   3.186   5.590  0.00  0.00    +0.271 C 
ATOM      7  O   UNL     1      -7.783   2.231   4.832  0.00  0.00    -0.268 OA
ATOM      8  C   UNL     1      -6.753   6.635   6.853  0.00  0.00    +0.068 C 
ATOM      9  C   UNL     1      -5.666   6.190   4.174  0.00  0.00    +0.061 C 
ENDROOT
BRANCH   5  10
ATOM     10  C   UNL     1      -9.144   2.265   7.427  0.00  0.00    +0.249 C 
ATOM     11  N   UNL     1      -8.620   1.899   8.750  0.00  0.00    -0.315 N 
ATOM     12  C   UNL     1      -9.438   2.132   9.854  0.00  0.00    +0.043 A 
ATOM     13  C   UNL     1      -9.108   1.848  11.191  0.00  0.00    +0.024 A 
ATOM     14  C   UNL     1      -9.989   2.115  12.214  0.00  0.00    +0.002 A 
ATOM     15  C   UNL     1     -11.228   2.673  11.962  0.00  0.00    +0.001 A 
ATOM     16  C   UNL     1     -11.580   2.964  10.654  0.00  0.00    +0.016 A 
ATOM     17  C   UNL     1     -10.698   2.696   9.632  0.00  0.00    +0.032 A 
ATOM     18  S   UNL     1     -10.800   2.926   7.870  0.00  0.00    -0.080 S 
ATOM     19  H   UNL     1      -7.737   1.510   8.851  0.00  0.00    +0.149 HD
ENDBRANCH   5  10
BRANCH   1  20
ATOM     20  N   UNL     1      -6.016   3.905   3.291  0.00  0.00    -0.346 N 
ATOM     21  H   UNL     1      -6.387   3.011   3.355  0.00  0.00    +0.146 HD
BRANCH  20  22
ATOM     22  C   UNL     1      -5.210   4.282   2.127  0.00  0.00    +0.112 C 
BRANCH  22  23
ATOM     23  C   UNL     1      -5.109   3.093   1.170  0.00  0.00    +0.088 C 
BRANCH  23  24
ATOM     24  S   UNL     1      -4.112   3.560  -0.272  0.00  0.00    -0.153 S 
BRANCH  24  25
ATOM     25  C   UNL     1      -4.088   2.062  -1.294  0.00  0.00    +0.124 C 
BRANCH  25  29
ATOM     26  C   UNL     1      -1.012   1.599  -1.643  0.00  0.00    +0.065 C 
ATOM     27  C   UNL     1      -1.958   2.118  -2.695  0.00  0.00    +0.034 A 
ATOM     28  H   UNL     1      -4.671   3.031  -3.937  0.00  0.00    +0.166 HD
ATOM     29  C   UNL     1      -3.281   2.316  -2.541  0.00  0.00    +0.046 A 
ATOM     30  N   UNL     1      -3.753   2.793  -3.734  0.00  0.00    -0.349 N 
ATOM     31  C   UNL     1      -2.700   2.870  -4.577  0.00  0.00    +0.171 A 
ATOM     32  N   UNL     1      -1.630   2.469  -3.947  0.00  0.00    -0.350 N 
ATOM     33  H   UNL     1      -0.737   2.430  -4.325  0.00  0.00    +0.166 HD
ENDBRANCH  25  29
ENDBRANCH  24  25
ENDBRANCH  23  24
ENDBRANCH  22  23
ENDBRANCH  20  22
ENDBRANCH   1  20
TORSDOF 7
