REMARK  Name = ZINC08857152
REMARK  12 active torsions:
REMARK  status: ('A' for Active; 'I' for Inactive)
REMARK    1  A    between atoms: C_1  and  O_2
REMARK    2  A    between atoms: O_2  and  C_3
REMARK    3  A    between atoms: C_3  and  C_5
REMARK    4  A    between atoms: C_6  and  N_10
REMARK    5  A    between atoms: C_11  and  C_13
REMARK    6  A    between atoms: C_13  and  S_14
REMARK    7  A    between atoms: S_14  and  C_15
REMARK    8  A    between atoms: C_20  and  N_21
REMARK    9  A    between atoms: C_22  and  C_24
REMARK   10  A    between atoms: C_24  and  N_25
REMARK   11  A    between atoms: N_25  and  C_26
REMARK   12  A    between atoms: C_26  and  C_27
REMARK                            x       y       z     vdW  Elec       q    Type
REMARK                         _______ _______ _______ _____ _____    ______ ____
ROOT
ATOM      1  C   UNL     1       4.842  -3.048  -7.549  0.00  0.00    +0.030 A 
ATOM      2  C   UNL     1       4.846  -1.662  -7.622  0.00  0.00    +0.016 A 
ATOM      3  C   UNL     1       5.529  -1.025  -8.640  0.00  0.00    +0.001 A 
ATOM      4  C   UNL     1       6.210  -1.765  -9.589  0.00  0.00    +0.002 A 
ATOM      5  C   UNL     1       6.213  -3.146  -9.525  0.00  0.00    +0.024 A 
ATOM      6  C   UNL     1       5.535  -3.794  -8.503  0.00  0.00    +0.047 A 
ENDROOT
BRANCH   6   7
ATOM      7  N   UNL     1       5.540  -5.194  -8.433  0.00  0.00    -0.286 N 
ATOM      8  C   UNL     1       6.633  -5.883  -8.817  0.00  0.00    +0.200 C 
ATOM      9  O   UNL     1       7.583  -5.298  -9.293  0.00  0.00    -0.278 OA
ATOM     10  H   UNL     1       4.758  -5.666  -8.108  0.00  0.00    +0.155 HD
BRANCH   8  11
ATOM     11  C   UNL     1       6.673  -7.381  -8.656  0.00  0.00    +0.016 C 
BRANCH  11  12
ATOM     12  N   UNL     1       7.961  -7.891  -9.145  0.00  0.00    +0.387 N 
ATOM     13  H   UNL     1       8.068  -7.655 -10.120  0.00  0.00    -0.085 HD
ATOM     14  H   UNL     1       8.711  -7.476  -8.614  0.00  0.00    -0.085 HD
BRANCH  12  15
ATOM     15  C   UNL     1       8.001  -9.351  -8.988  0.00  0.00    -0.055 C 
BRANCH  15  16
ATOM     16  C   UNL     1       9.322  -9.875  -9.490  0.00  0.00    -0.054 C 
ATOM     17  C   UNL     1      10.076 -10.607  -8.708  0.00  0.00    +0.002 C 
ENDBRANCH  15  16
ENDBRANCH  12  15
ENDBRANCH  11  12
ENDBRANCH   8  11
ENDBRANCH   6   7
BRANCH   1  18
ATOM     18  S   UNL     1       3.973  -3.863  -6.251  0.00  0.00    -0.114 S 
BRANCH  18  19
ATOM     19  C   UNL     1       3.250  -2.506  -5.288  0.00  0.00    +0.170 C 
BRANCH  19  21
ATOM     20  N   UNL     1       1.839  -2.245  -3.273  0.00  0.00    -0.284 N 
ATOM     21  C   UNL     1       2.468  -3.073  -4.131  0.00  0.00    +0.227 C 
ATOM     22  O   UNL     1       2.405  -4.273  -3.972  0.00  0.00    -0.275 OA
ATOM     23  H   UNL     1       1.824  -1.290  -3.443  0.00  0.00    +0.155 HD
BRANCH  20  25
ATOM     24  C   UNL     1       0.666  -1.942  -1.151  0.00  0.00    +0.117 A 
ATOM     25  C   UNL     1       1.211  -2.761  -2.140  0.00  0.00    +0.055 A 
ATOM     26  C   UNL     1       1.085  -4.119  -1.920  0.00  0.00    +0.032 A 
ATOM     27  C   UNL     1       0.462  -4.548  -0.797  0.00  0.00    +0.048 A 
ATOM     28  S   UNL     1       0.030  -3.139   0.007  0.00  0.00    -0.088 S 
BRANCH  24  29
ATOM     29  C   UNL     1       0.632  -0.529  -1.082  0.00  0.00    +0.347 C 
ATOM     30  O   UNL     1       1.123   0.136  -1.976  0.00  0.00    -0.244 OA
BRANCH  29  32
ATOM     31  C   UNL     1       0.058   1.510  -0.021  0.00  0.00    +0.280 C 
ATOM     32  O   UNL     1       0.056   0.081  -0.025  0.00  0.00    -0.464 OA
ENDBRANCH  29  32
ENDBRANCH  24  29
ENDBRANCH  20  25
ENDBRANCH  19  21
ENDBRANCH  18  19
ENDBRANCH   1  18
TORSDOF 11
