REMARK  Name = ZINC15032839
REMARK  12 active torsions:
REMARK  status: ('A' for Active; 'I' for Inactive)
REMARK    1  A    between atoms: C_1  and  C_2
REMARK    2  A    between atoms: C_2  and  C_3
REMARK    3  A    between atoms: C_3  and  C_4
REMARK    4  A    between atoms: C_4  and  N_5
REMARK    5  A    between atoms: C_9  and  S_31
REMARK    6  A    between atoms: C_13  and  C_14
REMARK    7  A    between atoms: C_14  and  N_15
REMARK    8  A    between atoms: C_23  and  C_30
REMARK    9  A    between atoms: C_25  and  C_27
REMARK   10  A    between atoms: C_27  and  C_28
REMARK   11  A    between atoms: C_27  and  C_29
REMARK   12  A    between atoms: S_31  and  N_34
REMARK                            x       y       z     vdW  Elec       q    Type
REMARK                         _______ _______ _______ _____ _____    ______ ____
ROOT
ATOM      1  N   UNL     1       7.202  -3.861  -3.570  0.00  0.00    -0.326 N 
ATOM      2  C   UNL     1       8.021  -3.324  -4.543  0.00  0.00    +0.069 A 
ATOM      3  C   UNL     1       8.286  -3.643  -5.868  0.00  0.00    +0.030 A 
ATOM      4  C   UNL     1       9.190  -2.887  -6.584  0.00  0.00    +0.030 A 
ATOM      5  C   UNL     1       9.835  -1.812  -5.989  0.00  0.00    +0.107 A 
ATOM      6  C   UNL     1       9.586  -1.483  -4.687  0.00  0.00    +0.058 A 
ATOM      7  C   UNL     1       8.674  -2.235  -3.942  0.00  0.00    +0.091 A 
ATOM      8  N   UNL     1       8.225  -2.161  -2.662  0.00  0.00    -0.231 NA
ATOM      9  C   UNL     1       7.361  -3.111  -2.447  0.00  0.00    +0.125 A 
ENDROOT
BRANCH   5  10
ATOM     10  S   UNL     1      10.987  -0.861  -6.924  0.00  0.00    +0.056 S 
ATOM     11  O   UNL     1      11.862  -0.248  -5.987  0.00  0.00    -0.153 OA
ATOM     12  O   UNL     1      11.457  -1.703  -7.968  0.00  0.00    -0.153 OA
BRANCH  10  13
ATOM     13  N   UNL     1      10.137   0.362  -7.649  0.00  0.00    -0.204 NA
ATOM     14  H   UNL     1      10.824   0.982  -8.245  0.00  0.00    +0.144 HD
ATOM     15  H   UNL     1       9.658   0.983  -6.878  0.00  0.00    +0.144 HD
ENDBRANCH  10  13
ENDBRANCH   5  10
BRANCH   1  16
ATOM     16  C   UNL     1       6.321  -5.022  -3.721  0.00  0.00    +0.123 C 
BRANCH  16  17
ATOM     17  C   UNL     1       4.944  -4.559  -4.201  0.00  0.00    +0.021 C 
BRANCH  17  19
ATOM     18  C   UNL     1       2.647  -5.307  -4.838  0.00  0.00    +0.004 C 
ATOM     19  C   UNL     1       4.024  -5.771  -4.358  0.00  0.00    -0.002 C 
ENDBRANCH  17  19
ENDBRANCH  16  17
ENDBRANCH   1  16
BRANCH   9  20
ATOM     20  C   UNL     1       6.647  -3.348  -1.141  0.00  0.00    +0.159 C 
BRANCH  20  21
ATOM     21  N   UNL     1       5.391  -2.587  -1.125  0.00  0.00    -0.292 NA
ATOM     22  C   UNL     1       4.556  -2.974   0.021  0.00  0.00    +0.104 C 
ATOM     23  C   UNL     1       3.226  -2.218  -0.042  0.00  0.00    +0.122 C 
ATOM     24  N   UNL     1       3.487  -0.772  -0.036  0.00  0.00    -0.313 N 
ATOM     25  C   UNL     1       4.322  -0.386  -1.182  0.00  0.00    +0.122 C 
ATOM     26  C   UNL     1       5.651  -1.141  -1.119  0.00  0.00    +0.104 C 
ATOM     27  C   UNL     1       2.302  -0.054  -0.020  0.00  0.00    +0.125 A 
ATOM     28  C   UNL     1       2.318   1.342  -0.013  0.00  0.00    +0.064 A 
ATOM     29  C   UNL     1       1.111   2.012   0.002  0.00  0.00    +0.017 A 
ATOM     30  N   UNL     1      -0.016   1.313   0.009  0.00  0.00    -0.347 N 
ATOM     31  C   UNL     1       0.002  -0.004   0.002  0.00  0.00    +0.112 A 
ATOM     32  N   UNL     1       1.131  -0.684  -0.012  0.00  0.00    -0.219 NA
ATOM     33  C   UNL     1       1.075   3.518   0.010  0.00  0.00    +0.063 C 
ATOM     34  H   UNL     1      -0.985   1.833   0.021  0.00  0.00    +0.167 HD
BRANCH  31  35
ATOM     35  C   UNL     1      -1.305  -0.754   0.010  0.00  0.00    +0.049 C 
ATOM     36  C   UNL     1      -2.095  -0.390   1.268  0.00  0.00    +0.015 C 
ATOM     37  C   UNL     1      -2.118  -0.376  -1.230  0.00  0.00    +0.015 C 
ENDBRANCH  31  35
ENDBRANCH  20  21
ENDBRANCH   9  20
TORSDOF 8
