REMARK  Name = ZINC50056306
REMARK  6 active torsions:
REMARK  status: ('A' for Active; 'I' for Inactive)
REMARK    1  A    between atoms: C_3  and  C_6
REMARK    2  A    between atoms: C_6  and  N_7
REMARK    3  A    between atoms: C_11  and  C_13
REMARK    4  A    between atoms: C_13  and  N_14
REMARK    5  A    between atoms: N_17  and  C_18
REMARK    6  A    between atoms: C_21  and  N_24
REMARK                            x       y       z     vdW  Elec       q    Type
REMARK                         _______ _______ _______ _____ _____    ______ ____
ROOT
ATOM      1  N   UNL     1       8.175   2.851   4.134  0.00  0.00    -0.299 N 
ATOM      2  C   UNL     1       9.466   3.162   4.364  0.00  0.00    +0.304 C 
ATOM      3  O   UNL     1      10.193   3.465   3.438  0.00  0.00    -0.253 OA
ATOM      4  N   UNL     1       9.951   3.139   5.622  0.00  0.00    -0.269 N 
ATOM      5  H   UNL     1       7.595   2.610   4.873  0.00  0.00    +0.150 HD
ATOM      6  H   UNL     1       9.356   2.963   6.367  0.00  0.00    +0.156 HD
ENDROOT
BRANCH   4   7
ATOM      7  C   UNL     1      11.313   3.367   5.851  0.00  0.00    +0.035 A 
ATOM      8  C   UNL     1      12.008   4.275   5.062  0.00  0.00    +0.025 A 
ATOM      9  C   UNL     1      13.350   4.500   5.288  0.00  0.00    +0.031 A 
ATOM     10  C   UNL     1      14.007   3.819   6.305  0.00  0.00    +0.086 A 
ATOM     11  C   UNL     1      13.312   2.912   7.094  0.00  0.00    +0.031 A 
ATOM     12  C   UNL     1      11.968   2.691   6.872  0.00  0.00    +0.025 A 
BRANCH  10  13
ATOM     13  N   UNL     1      15.371   4.048   6.535  0.00  0.00    -0.150 N 
ATOM     14  N   UNL     1      16.097   4.870   5.863  0.00  0.00    -0.156 NA
ATOM     15  C   UNL     1      17.322   4.838   6.340  0.00  0.00    +0.156 A 
ATOM     16  C   UNL     1      17.302   3.910   7.384  0.00  0.00    +0.156 A 
ATOM     17  N   UNL     1      16.065   3.468   7.449  0.00  0.00    -0.156 NA
ENDBRANCH  10  13
ENDBRANCH   4   7
BRANCH   1  18
ATOM     18  C   UNL     1       7.648   2.877   2.767  0.00  0.00    +0.107 C 
BRANCH  18  23
ATOM     19  N   UNL     1       4.228   2.024   1.360  0.00  0.00    +0.383 N 
ATOM     20  C   UNL     1       3.445   3.071   2.027  0.00  0.00    -0.078 C 
ATOM     21  C   UNL     1       3.881   3.187   3.489  0.00  0.00    -0.018 C 
ATOM     22  C   UNL     1       5.369   3.546   3.546  0.00  0.00    +0.001 C 
ATOM     23  C   UNL     1       6.169   2.486   2.784  0.00  0.00    -0.011 C 
ATOM     24  C   UNL     1       5.648   2.397   1.347  0.00  0.00    -0.073 C 
ATOM     25  H   UNL     1       4.114   1.154   1.858  0.00  0.00    -0.081 HD
BRANCH  19  26
ATOM     26  C   UNL     1       3.753   1.864  -0.020  0.00  0.00    -0.036 C 
BRANCH  26  29
ATOM     27  C   UNL     1      -0.027   1.393   0.015  0.00  0.00    +0.008 A 
ATOM     28  C   UNL     1       1.177   2.072   0.005  0.00  0.00    +0.009 A 
ATOM     29  C   UNL     1       2.332   1.363  -0.007  0.00  0.00    -0.027 A 
ATOM     30  S   UNL     1       1.732  -0.319  -0.005  0.00  0.00    -0.103 S 
ATOM     31  C   UNL     1      -0.017   0.038   0.012  0.00  0.00    +0.045 A 
ENDBRANCH  26  29
ENDBRANCH  19  26
ENDBRANCH  18  23
ENDBRANCH   1  18
TORSDOF 6
