REMARK  Name = ZINC14953521
REMARK  16 active torsions:
REMARK  status: ('A' for Active; 'I' for Inactive)
REMARK    1  A    between atoms: C_1  and  C_2
REMARK    2  A    between atoms: C_5  and  C_7
REMARK    3  A    between atoms: C_7  and  N_61
REMARK    4  A    between atoms: C_8  and  C_9
REMARK    5  A    between atoms: C_8  and  N_61
REMARK    6  A    between atoms: C_12  and  O_29
REMARK    7  A    between atoms: C_13  and  O_15
REMARK    8  A    between atoms: O_15  and  C_16
REMARK    9  A    between atoms: C_16  and  C_17
REMARK   10  A    between atoms: C_17  and  C_19
REMARK   11  A    between atoms: C_17  and  O_28
REMARK   12  A    between atoms: C_19  and  N_64
REMARK   13  A    between atoms: C_20  and  N_64
REMARK   14  A    between atoms: C_21  and  C_22
REMARK   15  A    between atoms: C_21  and  N_64
REMARK   16  A    between atoms: O_29  and  C_30
REMARK                            x       y       z     vdW  Elec       q    Type
REMARK                         _______ _______ _______ _____ _____    ______ ____
ROOT
ATOM      1  C   UNL     1       0.150  -2.350   0.733  0.00  0.00    -0.061 A 
ATOM      2  C   UNL     1       1.298  -1.580   0.729  0.00  0.00    +0.005 A 
ATOM      3  C   UNL     1       1.210  -0.204   0.620  0.00  0.00    +0.049 A 
ATOM      4  C   UNL     1      -0.030   0.405   0.515  0.00  0.00    +0.162 A 
ATOM      5  C   UNL     1      -1.186  -0.371   0.524  0.00  0.00    +0.162 A 
ATOM      6  C   UNL     1      -1.091  -1.749   0.628  0.00  0.00    +0.051 A 
ENDROOT
BRANCH   4   7
ATOM      7  O   UNL     1      -0.118   1.757   0.408  0.00  0.00    -0.491 OA
ATOM      8  C   UNL     1       1.109   2.490   0.411  0.00  0.00    +0.277 C 
ENDBRANCH   4   7
BRANCH   1   9
ATOM      9  C   UNL     1       0.251  -3.849   0.852  0.00  0.00    -0.046 C 
BRANCH   9  10
ATOM     10  N   UNL     1       0.217  -4.224   2.278  0.00  0.00    +0.385 N 
ATOM     11  H   UNL     1       1.006  -3.782   2.764  0.00  0.00    -0.085 HD
ATOM     12  H   UNL     1      -0.665  -3.900   2.693  0.00  0.00    -0.085 HD
BRANCH  10  13
ATOM     13  C   UNL     1       0.315  -5.689   2.425  0.00  0.00    -0.039 C 
BRANCH  13  18
ATOM     14  C   UNL     1       1.160  -6.927   7.888  0.00  0.00    +0.051 C 
ATOM     15  C   UNL     1       0.680  -6.631   6.491  0.00  0.00    -0.013 A 
ATOM     16  C   UNL     1      -0.586  -6.618   6.008  0.00  0.00    +0.011 A 
ATOM     17  C   UNL     1      -0.792  -6.316   4.675  0.00  0.00    +0.009 A 
ATOM     18  C   UNL     1       0.278  -6.042   3.890  0.00  0.00    -0.027 A 
ATOM     19  S   UNL     1       1.633  -6.214   5.040  0.00  0.00    -0.100 S 
ENDBRANCH  13  18
ENDBRANCH  10  13
ENDBRANCH   9  10
ENDBRANCH   1   9
BRANCH   5  20
ATOM     20  O   UNL     1      -2.406   0.223   0.427  0.00  0.00    -0.486 OA
BRANCH  20  21
ATOM     21  C   UNL     1      -3.548  -0.636   0.443  0.00  0.00    +0.258 C 
BRANCH  21  22
ATOM     22  C   UNL     1      -4.820   0.206   0.325  0.00  0.00    +0.135 C 
BRANCH  22  23
ATOM     23  O   UNL     1      -4.953   1.034   1.481  0.00  0.00    -0.390 OA
ATOM     24  H   UNL     1      -5.012   0.543   2.312  0.00  0.00    +0.210 HD
ENDBRANCH  22  23
BRANCH  22  25
ATOM     25  C   UNL     1      -6.035  -0.719   0.217  0.00  0.00    -0.044 C 
BRANCH  25  27
ATOM     26  C   UNL     1      -8.453  -0.672   0.325  0.00  0.00    -0.096 C 
ATOM     27  N   UNL     1      -7.240   0.108  -0.002  0.00  0.00    +0.382 N 
ATOM     28  H   UNL     1      -7.197   0.930   0.611  0.00  0.00    -0.082 HD
BRANCH  27  29
ATOM     29  C   UNL     1      -7.294   0.560  -1.409  0.00  0.00    -0.043 C 
BRANCH  29  30
ATOM     30  C   UNL     1      -8.402   1.572  -1.552  0.00  0.00    -0.064 A 
ATOM     31  C   UNL     1      -9.676   1.159  -1.894  0.00  0.00    +0.002 A 
ATOM     32  C   UNL     1     -10.693   2.087  -2.020  0.00  0.00    +0.000 A 
ATOM     33  C   UNL     1     -10.433   3.429  -1.815  0.00  0.00    +0.000 A 
ATOM     34  C   UNL     1      -9.158   3.842  -1.478  0.00  0.00    +0.000 A 
ATOM     35  C   UNL     1      -8.142   2.914  -1.346  0.00  0.00    +0.002 A 
ENDBRANCH  29  30
ENDBRANCH  27  29
ENDBRANCH  25  27
ENDBRANCH  22  25
ENDBRANCH  21  22
ENDBRANCH  20  21
ENDBRANCH   5  20
TORSDOF 13
