REMARK  Name = ZINC08442115
REMARK  8 active torsions:
REMARK  status: ('A' for Active; 'I' for Inactive)
REMARK    1  A    between atoms: C_1  and  C_2
REMARK    2  A    between atoms: C_2  and  N_3
REMARK    3  A    between atoms: C_14  and  C_25
REMARK    4  A    between atoms: C_20  and  N_24
REMARK    5  A    between atoms: C_21  and  C_22
REMARK    6  A    between atoms: C_25  and  S_26
REMARK    7  A    between atoms: S_26  and  C_27
REMARK    8  A    between atoms: C_30  and  C_33
REMARK                            x       y       z     vdW  Elec       q    Type
REMARK                         _______ _______ _______ _____ _____    ______ ____
ROOT
ATOM      1  N   UNL     1       1.180  -0.798  -1.265  0.00  0.00    -0.270 N 
ATOM      2  C   UNL     1       0.424  -1.058  -2.394  0.00  0.00    +0.041 A 
ATOM      3  C   UNL     1      -0.964  -1.081  -2.545  0.00  0.00    +0.024 A 
ATOM      4  C   UNL     1      -1.459  -1.374  -3.806  0.00  0.00    +0.002 A 
ATOM      5  C   UNL     1      -0.627  -1.635  -4.876  0.00  0.00    +0.000 A 
ATOM      6  C   UNL     1       0.757  -1.615  -4.738  0.00  0.00    +0.007 A 
ATOM      7  C   UNL     1       1.257  -1.325  -3.487  0.00  0.00    -0.001 A 
ATOM      8  C   UNL     1       2.659  -1.220  -2.978  0.00  0.00    +0.145 C 
ATOM      9  C   UNL     1       2.504  -0.864  -1.516  0.00  0.00    +0.240 C 
ATOM     10  O   UNL     1       3.400  -0.676  -0.721  0.00  0.00    -0.274 OA
ATOM     11  C   UNL     1       3.425  -0.144  -3.695  0.00  0.00    +0.062 A 
ATOM     12  C   UNL     1       3.272   1.188  -3.670  0.00  0.00    +0.055 A 
ATOM     13  N   UNL     1       4.207   1.725  -4.487  0.00  0.00    -0.277 N 
ATOM     14  H   UNL     1       4.334   2.670  -4.664  0.00  0.00    +0.189 HD
ATOM     15  N   UNL     1       4.963   0.676  -5.034  0.00  0.00    -0.135 NA
ATOM     16  C   UNL     1       4.499  -0.445  -4.564  0.00  0.00    +0.245 A 
ATOM     17  O   UNL     1       4.898  -1.724  -4.798  0.00  0.00    -0.421 OA
ATOM     18  C   UNL     1       4.421  -2.689  -3.987  0.00  0.00    +0.201 C 
ATOM     19  C   UNL     1       3.393  -2.524  -3.126  0.00  0.00    +0.110 C 
ENDROOT
BRANCH  18  20
ATOM     20  N   UNL     1       5.019  -3.924  -4.042  0.00  0.00    -0.328 N 
ATOM     21  H   UNL     1       5.759  -4.078  -4.649  0.00  0.00    +0.145 HD
ATOM     22  H   UNL     1       4.701  -4.642  -3.472  0.00  0.00    +0.145 HD
ENDBRANCH  18  20
BRANCH   1  24
ATOM     23  C   UNL     1       0.300   1.015   0.121  0.00  0.00    +0.025 C 
ATOM     24  C   UNL     1       0.610  -0.481   0.047  0.00  0.00    +0.110 C 
ENDBRANCH   1  24
BRANCH  19  25
ATOM     25  C   UNL     1       2.987  -3.636  -2.320  0.00  0.00    +0.102 C 
ATOM     26  N   UNL     1       2.665  -4.518  -1.680  0.00  0.00    -0.191 NA
ENDBRANCH  19  25
BRANCH  12  27
ATOM     27  C   UNL     1       2.243   1.950  -2.876  0.00  0.00    +0.129 C 
BRANCH  27  28
ATOM     28  S   UNL     1       0.795   2.277  -3.918  0.00  0.00    -0.119 S 
BRANCH  28  29
ATOM     29  C   UNL     1      -0.230   3.300  -2.915  0.00  0.00    +0.008 A 
ATOM     30  C   UNL     1       0.182   3.660  -1.637  0.00  0.00    +0.015 A 
ATOM     31  C   UNL     1      -0.624   4.462  -0.854  0.00  0.00    +0.004 A 
ATOM     32  C   UNL     1      -1.840   4.907  -1.339  0.00  0.00    -0.050 A 
ATOM     33  C   UNL     1      -2.254   4.551  -2.610  0.00  0.00    +0.004 A 
ATOM     34  C   UNL     1      -1.450   3.754  -3.401  0.00  0.00    +0.015 A 
ATOM     35  C   UNL     1      -2.717   5.783  -0.481  0.00  0.00    +0.044 C 
ENDBRANCH  28  29
ENDBRANCH  27  28
ENDBRANCH  12  27
TORSDOF 6
