REMARK  Name = ZINC20463981
REMARK  9 active torsions:
REMARK  status: ('A' for Active; 'I' for Inactive)
REMARK    1  A    between atoms: C_1  and  N_2
REMARK    2  A    between atoms: N_2  and  C_3
REMARK    3  A    between atoms: N_2  and  C_11
REMARK    4  A    between atoms: C_3  and  C_4
REMARK    5  A    between atoms: C_4  and  C_5
REMARK    6  A    between atoms: C_13  and  O_32
REMARK    7  A    between atoms: C_15  and  N_24
REMARK    8  A    between atoms: N_24  and  C_25
REMARK    9  A    between atoms: C_25  and  C_26
REMARK                            x       y       z     vdW  Elec       q    Type
REMARK                         _______ _______ _______ _____ _____    ______ ____
ROOT
ATOM      1  C   UNL     1       2.651  -4.524  -2.511  0.00  0.00    +0.016 C 
ATOM      2  C   UNL     1       2.356  -6.020  -2.672  0.00  0.00    +0.094 C 
ATOM      3  C   UNL     1       3.282  -6.838  -1.744  0.00  0.00    -0.012 C 
ATOM      4  C   UNL     1       4.728  -6.377  -1.993  0.00  0.00    +0.135 C 
ATOM      5  C   UNL     1       4.940  -6.302  -3.523  0.00  0.00    +0.193 C 
ATOM      6  O   UNL     1       4.588  -4.954  -3.882  0.00  0.00    -0.350 OA
ATOM      7  C   UNL     1       4.162  -4.297  -2.674  0.00  0.00    +0.240 C 
ATOM      8  O   UNL     1       4.825  -4.987  -1.593  0.00  0.00    -0.349 OA
ENDROOT
BRANCH   1  10
ATOM      9  C   UNL     1       2.778  -2.754  -0.864  0.00  0.00    -0.095 C 
ATOM     10  N   UNL     1       2.227  -4.080  -1.177  0.00  0.00    +0.385 N 
ATOM     11  H   UNL     1       2.625  -4.793  -0.441  0.00  0.00    -0.081 HD
BRANCH  10  12
ATOM     12  C   UNL     1       0.763  -4.082  -1.062  0.00  0.00    -0.072 C 
BRANCH  12  13
ATOM     13  C   UNL     1       0.367  -4.000   0.414  0.00  0.00    +0.037 C 
BRANCH  13  14
ATOM     14  C   UNL     1      -1.135  -4.002   0.532  0.00  0.00    +0.040 A 
ATOM     15  C   UNL     1      -1.757  -4.946   1.327  0.00  0.00    +0.023 A 
ATOM     16  C   UNL     1      -3.139  -4.939   1.429  0.00  0.00    +0.003 A 
ATOM     17  C   UNL     1      -3.848  -3.978   0.724  0.00  0.00    +0.020 A 
ATOM     18  C   UNL     1      -3.158  -3.067  -0.052  0.00  0.00    +0.111 A 
ATOM     19  N   UNL     1      -1.842  -3.103  -0.125  0.00  0.00    -0.260 NA
ENDBRANCH  13  14
ENDBRANCH  12  13
ENDBRANCH  10  12
ENDBRANCH   1  10
BRANCH   3  20
ATOM     20  N   UNL     1       2.917  -6.583  -0.344  0.00  0.00    +0.387 N 
ATOM     21  H   UNL     1       3.431  -5.677   0.009  0.00  0.00    -0.085 HD
ATOM     22  H   UNL     1       1.829  -6.441  -0.269  0.00  0.00    -0.085 HD
BRANCH  20  23
ATOM     23  C   UNL     1       3.306  -7.710   0.515  0.00  0.00    -0.046 C 
BRANCH  23  24
ATOM     24  C   UNL     1       2.917  -7.412   1.940  0.00  0.00    -0.064 A 
ATOM     25  C   UNL     1       3.808  -6.772   2.781  0.00  0.00    +0.002 A 
ATOM     26  C   UNL     1       3.449  -6.495   4.087  0.00  0.00    +0.000 A 
ATOM     27  C   UNL     1       2.203  -6.867   4.555  0.00  0.00    +0.000 A 
ATOM     28  C   UNL     1       1.313  -7.512   3.716  0.00  0.00    +0.000 A 
ATOM     29  C   UNL     1       1.670  -7.785   2.409  0.00  0.00    +0.002 A 
ENDBRANCH  23  24
ENDBRANCH  20  23
ENDBRANCH   3  20
BRANCH   2  30
ATOM     30  O   UNL     1       2.589  -6.409  -4.027  0.00  0.00    -0.395 OA
ATOM     31  H   UNL     1       2.429  -7.453  -4.334  0.00  0.00    +0.210 HD
ENDBRANCH   2  30
TORSDOF 8
