REMARK  Name = ZINC25453418
REMARK  8 active torsions:
REMARK  status: ('A' for Active; 'I' for Inactive)
REMARK    1  A    between atoms: C_1  and  C_2
REMARK    2  A    between atoms: C_6  and  C_8
REMARK    3  A    between atoms: N_14  and  C_15
REMARK    4  A    between atoms: C_15  and  C_16
REMARK    5  A    between atoms: C_16  and  C_17
REMARK    6  A    between atoms: C_26  and  C_32
REMARK    7  A    between atoms: C_32  and  O_34
REMARK    8  A    between atoms: O_34  and  C_35
REMARK                            x       y       z     vdW  Elec       q    Type
REMARK                         _______ _______ _______ _____ _____    ______ ____
ROOT
ATOM      1  C   UNL     1       0.873   5.667  -2.141  0.00  0.00    +0.218 C 
ATOM      2  O   UNL     1       1.471   6.149  -1.202  0.00  0.00    -0.276 OA
ATOM      3  N   UNL     1       1.197   6.023  -3.401  0.00  0.00    -0.297 N 
ATOM      4  C   UNL     1       0.485   5.451  -4.554  0.00  0.00    +0.114 C 
ATOM      5  C   UNL     1      -0.267   6.570  -5.283  0.00  0.00    +0.072 C 
ATOM      6  C   UNL     1       0.651   7.759  -5.442  0.00  0.00    +0.023 A 
ATOM      7  C   UNL     1       1.776   7.948  -4.719  0.00  0.00    -0.002 A 
ATOM      8  C   UNL     1       2.365   9.194  -5.163  0.00  0.00    +0.005 A 
ATOM      9  C   UNL     1       3.513   9.887  -4.780  0.00  0.00    +0.025 A 
ATOM     10  C   UNL     1       3.771  11.089  -5.448  0.00  0.00    +0.060 A 
ATOM     11  C   UNL     1       2.917  11.568  -6.448  0.00  0.00    +0.017 A 
ATOM     12  C   UNL     1       1.788  10.894  -6.831  0.00  0.00    +0.027 A 
ATOM     13  C   UNL     1       1.507   9.691  -6.180  0.00  0.00    +0.047 A 
ATOM     14  N   UNL     1       0.488   8.799  -6.321  0.00  0.00    -0.358 N 
ATOM     15  H   UNL     1      -0.378   8.815  -7.000  0.00  0.00    +0.166 HD
ATOM     16  C   UNL     1       2.269   7.000  -3.660  0.00  0.00    +0.145 C 
ENDROOT
BRANCH  10  17
ATOM     17  C   UNL     1       4.970  11.869  -5.090  0.00  0.00    +0.339 C 
ATOM     18  O   UNL     1       5.721  11.466  -4.224  0.00  0.00    -0.245 OA
BRANCH  17  19
ATOM     19  O   UNL     1       5.233  13.029  -5.722  0.00  0.00    -0.464 OA
ATOM     20  C   UNL     1       6.431  13.744  -5.318  0.00  0.00    +0.280 C 
ENDBRANCH  17  19
ENDBRANCH  10  17
BRANCH   1  21
ATOM     21  C   UNL     1      -0.232   4.671  -1.900  0.00  0.00    +0.117 C 
BRANCH  21  22
ATOM     22  C   UNL     1      -0.395   4.445  -0.396  0.00  0.00    +0.135 C 
BRANCH  22  29
ATOM     23  C   UNL     1      -1.307   2.116   0.014  0.00  0.00    +0.163 A 
ATOM     24  N   UNL     1      -2.480   1.580   0.203  0.00  0.00    -0.153 NA
ATOM     25  N   UNL     1      -3.438   2.602   0.146  0.00  0.00    -0.254 N 
ATOM     26  H   UNL     1      -4.504   2.365   0.282  0.00  0.00    +0.191 HD
ATOM     27  C   UNL     1      -2.784   3.759  -0.083  0.00  0.00    +0.176 A 
ATOM     28  S   UNL     1      -3.496   5.308  -0.239  0.00  0.00    -0.011 S 
ATOM     29  N   UNL     1      -1.469   3.476  -0.161  0.00  0.00    -0.303 N 
BRANCH  23  35
ATOM     30  C   UNL     1       3.501   1.884  -1.303  0.00  0.00    +0.044 C 
ATOM     31  C   UNL     1       2.297   1.275  -0.633  0.00  0.00    -0.050 A 
ATOM     32  C   UNL     1       2.397   0.035  -0.027  0.00  0.00    +0.003 A 
ATOM     33  C   UNL     1       1.296  -0.531   0.589  0.00  0.00    +0.001 A 
ATOM     34  C   UNL     1       0.089   0.139   0.604  0.00  0.00    +0.011 A 
ATOM     35  C   UNL     1      -0.018   1.389  -0.004  0.00  0.00    +0.019 A 
ATOM     36  C   UNL     1       1.096   1.955  -0.625  0.00  0.00    +0.015 A 
ENDBRANCH  23  35
ENDBRANCH  22  29
ENDBRANCH  21  22
ENDBRANCH   1  21
TORSDOF 6
