REMARK  Name = ZINC12873695
REMARK  8 active torsions:
REMARK  status: ('A' for Active; 'I' for Inactive)
REMARK    1  A    between atoms: C_1  and  C_2
REMARK    2  A    between atoms: C_2  and  C_4
REMARK    3  A    between atoms: C_2  and  O_19
REMARK    4  A    between atoms: C_16  and  C_17
REMARK    5  A    between atoms: C_16  and  C_18
REMARK    6  A    between atoms: O_19  and  C_20
REMARK    7  A    between atoms: C_20  and  C_22
REMARK    8  A    between atoms: C_22  and  C_23
REMARK                            x       y       z     vdW  Elec       q    Type
REMARK                         _______ _______ _______ _____ _____    ______ ____
ROOT
ATOM      1  C   UNL     1       2.310   7.631   5.464  0.00  0.00    +0.062 C 
ATOM      2  C   UNL     1       3.215   6.446   5.122  0.00  0.00    +0.259 C 
ENDROOT
BRANCH   2   3
ATOM      3  C   UNL     1       4.321   6.348   6.140  0.00  0.00    +0.261 C 
ATOM      4  O   UNL     1       4.522   5.301   6.718  0.00  0.00    -0.271 OA
ATOM      5  N   UNL     1       5.087   7.424   6.409  0.00  0.00    -0.252 N 
ATOM      6  C   UNL     1       4.941   8.617   5.683  0.00  0.00    +0.059 A 
ATOM      7  C   UNL     1       4.503   8.610   4.374  0.00  0.00    +0.025 A 
ATOM      8  C   UNL     1       4.369   9.804   3.688  0.00  0.00    +0.002 A 
ATOM      9  C   UNL     1       4.668  11.002   4.311  0.00  0.00    +0.002 A 
ATOM     10  C   UNL     1       5.100  11.017   5.624  0.00  0.00    +0.025 A 
ATOM     11  C   UNL     1       5.235   9.826   6.320  0.00  0.00    +0.055 A 
ATOM     12  N   UNL     1       5.667   9.820   7.651  0.00  0.00    -0.282 N 
ATOM     13  C   UNL     1       6.064   8.677   8.240  0.00  0.00    +0.241 C 
ATOM     14  O   UNL     1       6.392   8.687   9.408  0.00  0.00    -0.273 OA
ATOM     15  C   UNL     1       6.108   7.384   7.467  0.00  0.00    +0.113 C 
ATOM     16  C   UNL     1       5.821   6.213   8.410  0.00  0.00    +0.042 C 
ATOM     17  C   UNL     1       7.491   7.210   6.837  0.00  0.00    +0.042 C 
ATOM     18  H   UNL     1       5.680  10.649   8.155  0.00  0.00    +0.155 HD
ENDBRANCH   2   3
BRANCH   2  19
ATOM     19  O   UNL     1       2.435   5.221   5.135  0.00  0.00    -0.452 OA
BRANCH  19  20
ATOM     20  C   UNL     1       1.859   4.853   3.979  0.00  0.00    +0.309 C 
ATOM     21  O   UNL     1       2.002   5.532   2.990  0.00  0.00    -0.251 OA
BRANCH  20  22
ATOM     22  C   UNL     1       1.034   3.594   3.916  0.00  0.00    +0.144 C 
BRANCH  22  23
ATOM     23  C   UNL     1       0.496   3.407   2.496  0.00  0.00    +0.148 C 
ATOM     24  C   UNL     1      -0.226   2.088   2.397  0.00  0.00    +0.231 C 
ATOM     25  O   UNL     1       0.366   1.139   1.927  0.00  0.00    -0.274 OA
ATOM     26  N   UNL     1      -1.481   1.915   2.799  0.00  0.00    -0.284 N 
ATOM     27  C   UNL     1      -2.350   2.901   3.256  0.00  0.00    +0.047 A 
ATOM     28  C   UNL     1      -3.491   2.531   3.959  0.00  0.00    +0.024 A 
ATOM     29  C   UNL     1      -4.371   3.491   4.417  0.00  0.00    +0.002 A 
ATOM     30  C   UNL     1      -4.125   4.833   4.187  0.00  0.00    +0.001 A 
ATOM     31  C   UNL     1      -2.999   5.216   3.482  0.00  0.00    +0.016 A 
ATOM     32  C   UNL     1      -2.116   4.256   3.016  0.00  0.00    +0.030 A 
ATOM     33  S   UNL     1      -0.681   4.737   2.106  0.00  0.00    -0.110 S 
ATOM     34  H   UNL     1      -1.826   1.010   2.770  0.00  0.00    +0.155 HD
ENDBRANCH  22  23
ENDBRANCH  20  22
ENDBRANCH  19  20
ENDBRANCH   2  19
TORSDOF 5
