REMARK  Name = ZINC08781155
REMARK  5 active torsions:
REMARK  status: ('A' for Active; 'I' for Inactive)
REMARK    1  A    between atoms: N_9  and  C_10
REMARK    2  A    between atoms: C_10  and  C_11
REMARK    3  A    between atoms: N_13  and  N_14
REMARK    4  A    between atoms: C_15  and  C_16
REMARK    5  A    between atoms: C_21  and  O_22
REMARK                            x       y       z     vdW  Elec       q    Type
REMARK                         _______ _______ _______ _____ _____    ______ ____
ROOT
ATOM      1  C   UNL     1       5.360  -0.392   1.362  0.00  0.00    +0.252 C 
ATOM      2  O   UNL     1       4.580  -0.469   2.288  0.00  0.00    -0.272 OA
ATOM      3  N   UNL     1       6.658  -0.117   1.595  0.00  0.00    -0.206 N 
ATOM      4  H   UNL     1       7.282  -0.055   0.855  0.00  0.00    +0.177 HD
ENDROOT
BRANCH   3   5
ATOM      5  N   UNL     1       7.108   0.079   2.908  0.00  0.00    -0.188 NA
ATOM      6  C   UNL     1       8.358   0.344   3.133  0.00  0.00    +0.142 C 
BRANCH   6   7
ATOM      7  C   UNL     1       8.831   0.550   4.513  0.00  0.00    +0.038 A 
ATOM      8  C   UNL     1      10.175   0.841   4.759  0.00  0.00    +0.028 A 
ATOM      9  C   UNL     1      10.612   1.034   6.054  0.00  0.00    +0.020 A 
ATOM     10  C   UNL     1       9.722   0.940   7.112  0.00  0.00    +0.034 A 
ATOM     11  C   UNL     1       8.390   0.652   6.881  0.00  0.00    +0.061 A 
ATOM     12  C   UNL     1       7.934   0.462   5.586  0.00  0.00    +0.139 A 
ATOM     13 BR   UNL     1       7.186   0.527   8.334  0.00  0.00    -0.046 Br
ATOM     14 BR   UNL     1      12.431   1.427   6.386  0.00  0.00    -0.050 Br
BRANCH  12  15
ATOM     15  O   UNL     1       6.624   0.185   5.358  0.00  0.00    -0.505 OA
ATOM     16  H   UNL     1       6.415  -0.759   5.362  0.00  0.00    +0.292 HD
ENDBRANCH  12  15
ENDBRANCH   6   7
ENDBRANCH   3   5
BRANCH   1  17
ATOM     17  C   UNL     1       4.876  -0.603  -0.050  0.00  0.00    +0.220 C 
BRANCH  17  26
ATOM     18  C   UNL     1      -0.016   1.362   0.009  0.00  0.00    +0.002 A 
ATOM     19  C   UNL     1       1.167   2.086   0.002  0.00  0.00    +0.002 A 
ATOM     20  C   UNL     1       2.383   1.437  -0.013  0.00  0.00    +0.028 A 
ATOM     21  C   UNL     1       2.422   0.049  -0.021  0.00  0.00    +0.069 A 
ATOM     22  C   UNL     1       1.223  -0.684  -0.013  0.00  0.00    +0.089 A 
ATOM     23  C   UNL     1       0.002  -0.004   0.002  0.00  0.00    +0.030 A 
ATOM     24  N   UNL     1       1.563  -1.998  -0.024  0.00  0.00    -0.236 NA
ATOM     25  C   UNL     1       2.858  -2.115  -0.037  0.00  0.00    +0.200 A 
ATOM     26  N   UNL     1       3.439  -0.885  -0.036  0.00  0.00    -0.321 N 
ENDBRANCH  17  26
ENDBRANCH   1  17
TORSDOF 5
