REMARK  Name = ZINC12073513
REMARK  14 active torsions:
REMARK  status: ('A' for Active; 'I' for Inactive)
REMARK    1  A    between atoms: C_1  and  N_2
REMARK    2  A    between atoms: N_2  and  C_3
REMARK    3  A    between atoms: N_2  and  C_10
REMARK    4  A    between atoms: C_3  and  C_4
REMARK    5  A    between atoms: C_10  and  C_11
REMARK    6  A    between atoms: C_11  and  C_13
REMARK    7  A    between atoms: C_11  and  O_32
REMARK    8  A    between atoms: C_13  and  O_14
REMARK    9  A    between atoms: O_14  and  C_15
REMARK   10  A    between atoms: C_18  and  C_21
REMARK   11  A    between atoms: C_21  and  N_22
REMARK   12  A    between atoms: N_22  and  C_23
REMARK   13  A    between atoms: C_23  and  C_24
REMARK   14  A    between atoms: C_24  and  C_25
REMARK                            x       y       z     vdW  Elec       q    Type
REMARK                         _______ _______ _______ _____ _____    ______ ____
ROOT
ATOM      1  C   UNL     1       0.417  -0.449  -6.069  0.00  0.00    +0.121 A 
ATOM      2  C   UNL     1       1.556  -1.238  -6.140  0.00  0.00    +0.046 A 
ATOM      3  C   UNL     1       2.072  -1.595  -7.371  0.00  0.00    +0.005 A 
ATOM      4  C   UNL     1       1.454  -1.165  -8.531  0.00  0.00    -0.064 A 
ATOM      5  C   UNL     1       0.320  -0.378  -8.463  0.00  0.00    +0.005 A 
ATOM      6  C   UNL     1      -0.204  -0.024  -7.235  0.00  0.00    +0.046 A 
ENDROOT
BRANCH   1   7
ATOM      7  O   UNL     1      -0.093  -0.097  -4.859  0.00  0.00    -0.489 OA
BRANCH   7   8
ATOM      8  C   UNL     1       0.598  -0.571  -3.702  0.00  0.00    +0.258 C 
BRANCH   8   9
ATOM      9  C   UNL     1      -0.118  -0.077  -2.443  0.00  0.00    +0.135 C 
BRANCH   9  10
ATOM     10  O   UNL     1      -1.418  -0.665  -2.373  0.00  0.00    -0.390 OA
ATOM     11  H   UNL     1      -1.412  -1.631  -2.338  0.00  0.00    +0.210 HD
ENDBRANCH   9  10
BRANCH   9  12
ATOM     12  C   UNL     1       0.690  -0.478  -1.207  0.00  0.00    -0.044 C 
BRANCH  12  14
ATOM     13  C   UNL     1      -0.018   1.465   0.010  0.00  0.00    -0.096 C 
ATOM     14  N   UNL     1       0.002  -0.004   0.002  0.00  0.00    +0.382 N 
ATOM     15  H   UNL     1      -0.945  -0.353   0.009  0.00  0.00    -0.082 HD
BRANCH  14  16
ATOM     16  C   UNL     1       0.713  -0.491   1.192  0.00  0.00    -0.043 C 
BRANCH  16  17
ATOM     17  C   UNL     1      -0.059  -0.109   2.429  0.00  0.00    -0.064 A 
ATOM     18  C   UNL     1       0.188   1.099   3.053  0.00  0.00    +0.002 A 
ATOM     19  C   UNL     1      -0.520   1.449   4.188  0.00  0.00    +0.000 A 
ATOM     20  C   UNL     1      -1.476   0.591   4.698  0.00  0.00    +0.000 A 
ATOM     21  C   UNL     1      -1.724  -0.617   4.073  0.00  0.00    +0.000 A 
ATOM     22  C   UNL     1      -1.019  -0.965   2.936  0.00  0.00    +0.002 A 
ENDBRANCH  16  17
ENDBRANCH  14  16
ENDBRANCH  12  14
ENDBRANCH   9  12
ENDBRANCH   8   9
ENDBRANCH   7   8
ENDBRANCH   1   7
BRANCH   4  23
ATOM     23  C   UNL     1       2.020  -1.555  -9.873  0.00  0.00    -0.047 C 
BRANCH  23  24
ATOM     24  N   UNL     1       1.415  -2.820 -10.310  0.00  0.00    +0.382 N 
ATOM     25  H   UNL     1       1.620  -3.542  -9.636  0.00  0.00    -0.085 HD
ATOM     26  H   UNL     1       0.415  -2.706 -10.387  0.00  0.00    -0.085 HD
BRANCH  24  27
ATOM     27  C   UNL     1       1.966  -3.200 -11.618  0.00  0.00    -0.077 C 
BRANCH  27  28
ATOM     28  C   UNL     1       1.335  -4.518 -12.074  0.00  0.00    +0.016 C 
BRANCH  28  29
ATOM     29  C   UNL     1       1.900  -4.907 -13.415  0.00  0.00    -0.046 A 
ATOM     30  C   UNL     1       1.287  -4.474 -14.576  0.00  0.00    +0.004 A 
ATOM     31  C   UNL     1       1.804  -4.830 -15.807  0.00  0.00    +0.003 A 
ATOM     32  C   UNL     1       2.935  -5.622 -15.879  0.00  0.00    +0.038 A 
ATOM     33  C   UNL     1       3.550  -6.057 -14.717  0.00  0.00    +0.124 A 
ATOM     34  C   UNL     1       3.034  -5.694 -13.485  0.00  0.00    +0.042 A 
ATOM     35  F   UNL     1       4.655  -6.831 -14.786  0.00  0.00    -0.205 F 
ENDBRANCH  28  29
ENDBRANCH  27  28
ENDBRANCH  24  27
ENDBRANCH  23  24
ENDBRANCH   4  23
TORSDOF 13
