REMARK  Name = ZINC26183966
REMARK  4 active torsions:
REMARK  status: ('A' for Active; 'I' for Inactive)
REMARK    1  A    between atoms: C_1  and  C_2
REMARK    2  A    between atoms: C_13  and  C_14
REMARK    3  A    between atoms: C_13  and  O_15
REMARK    4  A    between atoms: C_20  and  C_29
REMARK                            x       y       z     vdW  Elec       q    Type
REMARK                         _______ _______ _______ _____ _____    ______ ____
ROOT
ATOM      1  C   UNL     1      -0.019   1.531   0.011  0.00  0.00    +0.014 C 
ATOM      2  C   UNL     1       0.002  -0.004   0.002  0.00  0.00    -0.000 C 
ATOM      3  C   UNL     1      -1.395  -0.555   0.037  0.00  0.00    +0.010 C 
ATOM      4  C   UNL     1      -2.005  -0.469   1.443  0.00  0.00    +0.005 C 
ATOM      5  C   UNL     1      -1.143   0.285   2.435  0.00  0.00    -0.001 C 
ATOM      6  C   UNL     1       0.280  -0.261   2.511  0.00  0.00    -0.004 C 
ATOM      7  C   UNL     1       0.839  -0.584   1.159  0.00  0.00    +0.001 C 
ATOM      8  C   UNL     1       2.243  -0.054   0.835  0.00  0.00    +0.007 C 
ATOM      9  C   UNL     1       2.319  -0.162  -0.712  0.00  0.00    +0.035 C 
ATOM     10  C   UNL     1       0.869  -0.394  -1.211  0.00  0.00    +0.069 C 
ATOM     11  C   UNL     1       0.675  -1.849  -1.616  0.00  0.00    +0.042 C 
ATOM     12  C   UNL     1       1.143   0.725   3.298  0.00  0.00    +0.004 C 
ATOM     13  C   UNL     1       0.532   0.910   4.689  0.00  0.00    +0.005 C 
ATOM     14  C   UNL     1      -0.673  -0.010   4.879  0.00  0.00    +0.001 C 
ATOM     15  C   UNL     1      -1.758   0.276   3.842  0.00  0.00    -0.022 C 
ATOM     16  C   UNL     1      -2.829  -0.821   3.921  0.00  0.00    +0.045 C 
ATOM     17  C   UNL     1      -3.307  -0.893   5.351  0.00  0.00    -0.006 A 
ATOM     18  C   UNL     1      -4.513  -1.396   5.832  0.00  0.00    +0.138 A 
ATOM     19  N   UNL     1      -4.517  -1.263   7.136  0.00  0.00    -0.182 NA
ATOM     20  N   UNL     1      -3.307  -0.666   7.521  0.00  0.00    -0.281 N 
ATOM     21  H   UNL     1      -3.041  -0.448   8.427  0.00  0.00    +0.189 HD
ATOM     22  C   UNL     1      -2.583  -0.446   6.410  0.00  0.00    +0.040 A 
ATOM     23  C   UNL     1      -1.219   0.183   6.301  0.00  0.00    +0.059 C 
ATOM     24  C   UNL     1      -2.405   1.640   4.098  0.00  0.00    +0.012 C 
ENDROOT
BRANCH  10  25
ATOM     25  O   UNL     1       0.579   0.478  -2.305  0.00  0.00    -0.388 OA
ATOM     26  H   UNL     1       1.090   0.290  -3.104  0.00  0.00    +0.210 HD
ENDBRANCH  10  25
TORSDOF 1
