REMARK  Name = ZINC38705199
REMARK  15 active torsions:
REMARK  status: ('A' for Active; 'I' for Inactive)
REMARK    1  A    between atoms: C_1  and  C_2
REMARK    2  A    between atoms: C_2  and  C_3
REMARK    3  A    between atoms: C_3  and  C_4
REMARK    4  A    between atoms: C_4  and  O_5
REMARK    5  A    between atoms: O_5  and  C_6
REMARK    6  A    between atoms: C_9  and  C_12
REMARK    7  A    between atoms: C_15  and  C_33
REMARK    8  A    between atoms: N_22  and  C_23
REMARK    9  A    between atoms: C_23  and  C_24
REMARK   10  A    between atoms: C_24  and  C_25
REMARK   11  A    between atoms: C_28  and  O_31
REMARK   12  A    between atoms: O_31  and  C_32
REMARK   13  A    between atoms: C_34  and  C_41
REMARK   14  A    between atoms: C_36  and  C_40
REMARK   15  A    between atoms: C_38  and  O_39
REMARK                            x       y       z     vdW  Elec       q    Type
REMARK                         _______ _______ _______ _____ _____    ______ ____
ROOT
ATOM      1  C   UNL     1       2.047  -7.717   3.061  0.00  0.00    +0.141 C 
ATOM      2  C   UNL     1       3.283  -8.373   2.510  0.00  0.00    +0.035 A 
ATOM      3  C   UNL     1       4.080  -8.634   1.389  0.00  0.00    +0.102 A 
ATOM      4  N   UNL     1       5.104  -9.359   1.794  0.00  0.00    -0.173 NA
ATOM      5  N   UNL     1       5.033  -9.581   3.059  0.00  0.00    -0.272 N 
ATOM      6  H   UNL     1       5.679 -10.092   3.571  0.00  0.00    +0.189 HD
ATOM      7  C   UNL     1       3.914  -8.990   3.572  0.00  0.00    +0.126 A 
ATOM      8  C   UNL     1       3.123  -8.753   4.786  0.00  0.00    +0.265 C 
ATOM      9  O   UNL     1       3.411  -9.166   5.893  0.00  0.00    -0.268 OA
ATOM     10  N   UNL     1       2.035  -8.014   4.500  0.00  0.00    -0.285 N 
ENDROOT
BRANCH   3  11
ATOM     11  C   UNL     1       3.820  -8.179   0.001  0.00  0.00    +0.047 A 
ATOM     12  C   UNL     1       4.836  -7.584  -0.742  0.00  0.00    -0.037 A 
ATOM     13  C   UNL     1       4.589  -7.162  -2.033  0.00  0.00    +0.007 A 
ATOM     14  C   UNL     1       3.335  -7.330  -2.593  0.00  0.00    -0.047 A 
ATOM     15  C   UNL     1       2.319  -7.919  -1.864  0.00  0.00    +0.049 A 
ATOM     16  C   UNL     1       2.555  -8.352  -0.569  0.00  0.00    +0.127 A 
ATOM     17  C   UNL     1       3.075  -6.867  -4.003  0.00  0.00    +0.044 C 
ATOM     18  C   UNL     1       6.204  -7.399  -0.137  0.00  0.00    +0.044 C 
BRANCH  16  19
ATOM     19  O   UNL     1       1.559  -8.938   0.146  0.00  0.00    -0.506 OA
ATOM     20  H   UNL     1       0.989  -8.311   0.613  0.00  0.00    +0.292 HD
ENDBRANCH  16  19
ENDBRANCH   3  11
BRANCH   1  24
ATOM     21  C   UNL     1       2.216  -3.494   2.432  0.00  0.00    +0.121 A 
ATOM     22  C   UNL     1       1.328  -4.270   1.702  0.00  0.00    +0.046 A 
ATOM     23  C   UNL     1       1.275  -5.635   1.907  0.00  0.00    +0.009 A 
ATOM     24  C   UNL     1       2.107  -6.228   2.839  0.00  0.00    -0.022 A 
ATOM     25  C   UNL     1       2.993  -5.456   3.569  0.00  0.00    +0.009 A 
ATOM     26  C   UNL     1       3.053  -4.091   3.363  0.00  0.00    +0.046 A 
BRANCH  21  27
ATOM     27  O   UNL     1       2.270  -2.150   2.232  0.00  0.00    -0.492 OA
BRANCH  27  28
ATOM     28  C   UNL     1       1.379  -1.603   1.258  0.00  0.00    +0.229 C 
BRANCH  28  29
ATOM     29  C   UNL     1       1.583  -0.089   1.173  0.00  0.00    +0.041 C 
BRANCH  29  31
ATOM     30  C   UNL     1       0.833   2.010   0.046  0.00  0.00    +0.004 C 
ATOM     31  C   UNL     1       0.629   0.496   0.131  0.00  0.00    -0.000 C 
ENDBRANCH  29  31
ENDBRANCH  28  29
ENDBRANCH  27  28
ENDBRANCH  21  27
ENDBRANCH   1  24
BRANCH  10  32
ATOM     32  C   UNL     1       1.015  -7.579   5.457  0.00  0.00    +0.114 C 
BRANCH  32  33
ATOM     33  C   UNL     1      -0.092  -8.632   5.536  0.00  0.00    +0.054 C 
BRANCH  33  34
ATOM     34  C   UNL     1      -1.142  -8.185   6.521  0.00  0.00    -0.046 A 
ATOM     35  C   UNL     1      -1.028  -8.531   7.854  0.00  0.00    +0.007 A 
ATOM     36  C   UNL     1      -1.989  -8.123   8.759  0.00  0.00    +0.046 A 
ATOM     37  C   UNL     1      -3.068  -7.365   8.328  0.00  0.00    +0.120 A 
ATOM     38  C   UNL     1      -3.180  -7.019   6.990  0.00  0.00    +0.046 A 
ATOM     39  C   UNL     1      -2.213  -7.425   6.090  0.00  0.00    +0.007 A 
BRANCH  37  40
ATOM     40  O   UNL     1      -4.015  -6.963   9.216  0.00  0.00    -0.495 OA
ATOM     41  C   UNL     1      -5.098  -6.185   8.702  0.00  0.00    +0.277 C 
ENDBRANCH  37  40
ENDBRANCH  33  34
ENDBRANCH  32  33
ENDBRANCH  10  32
TORSDOF 11
