REMARK  Name = ZINC05177497
REMARK  8 active torsions:
REMARK  status: ('A' for Active; 'I' for Inactive)
REMARK    1  A    between atoms: C_1  and  C_2
REMARK    2  A    between atoms: C_3  and  C_4
REMARK    3  A    between atoms: C_4  and  N_5
REMARK    4  A    between atoms: N_10  and  N_11
REMARK    5  A    between atoms: C_12  and  C_13
REMARK    6  A    between atoms: C_12  and  C_14
REMARK    7  A    between atoms: N_20  and  C_27
REMARK    8  A    between atoms: N_23  and  C_26
REMARK                            x       y       z     vdW  Elec       q    Type
REMARK                         _______ _______ _______ _____ _____    ______ ____
ROOT
ATOM      1  N   UNL     1      -2.248   0.708  -0.442  0.00  0.00    -0.301 N 
ATOM      2  C   UNL     1      -0.869   0.859  -0.493  0.00  0.00    +0.153 A 
ATOM      3  C   UNL     1      -0.633   2.175  -0.876  0.00  0.00    +0.170 A 
ATOM      4  N   UNL     1      -1.817   2.766  -1.039  0.00  0.00    -0.195 NA
ATOM      5  C   UNL     1      -2.786   1.907  -0.791  0.00  0.00    +0.218 A 
ATOM      6  N   UNL     1      -4.132   2.184  -0.866  0.00  0.00    -0.206 N 
ATOM      7  N   UNL     1       0.677   2.605  -1.015  0.00  0.00    -0.280 N 
ATOM      8  C   UNL     1       1.695   1.756  -0.776  0.00  0.00    +0.333 A 
ATOM      9  O   UNL     1       2.838   2.150  -0.903  0.00  0.00    -0.246 OA
ATOM     10  N   UNL     1       1.477   0.484  -0.401  0.00  0.00    -0.262 N 
ATOM     11  C   UNL     1       0.224   0.008  -0.249  0.00  0.00    +0.282 A 
ATOM     12  O   UNL     1       0.041  -1.147   0.091  0.00  0.00    -0.265 OA
ATOM     13  C   UNL     1       2.619  -0.400  -0.154  0.00  0.00    +0.157 C 
ATOM     14  C   UNL     1       0.956   3.985  -1.423  0.00  0.00    +0.155 C 
ATOM     15  H   UNL     1      -4.781   1.493  -0.659  0.00  0.00    +0.177 HD
ENDROOT
BRANCH   6  16
ATOM     16  N   UNL     1      -4.565   3.462  -1.239  0.00  0.00    -0.184 NA
ATOM     17  C   UNL     1      -5.835   3.723  -1.310  0.00  0.00    +0.063 C 
ATOM     18  C   UNL     1      -6.843   2.650  -0.989  0.00  0.00    +0.068 C 
BRANCH  17  19
ATOM     19  C   UNL     1      -6.291   5.069  -1.703  0.00  0.00    -0.003 A 
ATOM     20  C   UNL     1      -7.657   5.351  -1.785  0.00  0.00    +0.010 A 
ATOM     21  C   UNL     1      -8.076   6.614  -2.150  0.00  0.00    +0.001 A 
ATOM     22  C   UNL     1      -7.147   7.597  -2.443  0.00  0.00    +0.000 A 
ATOM     23  C   UNL     1      -5.793   7.323  -2.369  0.00  0.00    +0.001 A 
ATOM     24  C   UNL     1      -5.359   6.066  -2.001  0.00  0.00    +0.010 A 
ENDBRANCH  17  19
ENDBRANCH   6  16
BRANCH   1  25
ATOM     25  C   UNL     1      -2.981  -0.507  -0.081  0.00  0.00    +0.153 C 
BRANCH  25  28
ATOM     26  C   UNL     1      -5.610  -0.730   0.918  0.00  0.00    +0.057 C 
ATOM     27  C   UNL     1      -4.442  -0.685   1.869  0.00  0.00    +0.013 C 
ATOM     28  C   UNL     1      -3.225  -0.524   1.406  0.00  0.00    +0.010 C 
ATOM     29 CL   UNL     1      -4.707  -0.845   3.577  0.00  0.00    -0.089 Cl
ENDBRANCH  25  28
ENDBRANCH   1  25
TORSDOF 4
