REMARK  Name = ZINC01675712
REMARK  9 active torsions:
REMARK  status: ('A' for Active; 'I' for Inactive)
REMARK    1  A    between atoms: C_1  and  C_2
REMARK    2  A    between atoms: C_1  and  N_4
REMARK    3  A    between atoms: C_2  and  O_3
REMARK    4  A    between atoms: N_4  and  C_5
REMARK    5  A    between atoms: C_5  and  C_7
REMARK    6  A    between atoms: C_5  and  O_11
REMARK    7  A    between atoms: N_14  and  C_15
REMARK    8  A    between atoms: C_15  and  C_17
REMARK    9  A    between atoms: C_15  and  O_21
REMARK                            x       y       z     vdW  Elec       q    Type
REMARK                         _______ _______ _______ _____ _____    ______ ____
ROOT
ATOM      1  N   UNL     1       2.609   1.199   0.034  0.00  0.00    -0.254 N 
ATOM      2  C   UNL     1       1.576   2.062  -0.029  0.00  0.00    +0.306 C 
ATOM      3  O   UNL     1       1.711   3.202   0.370  0.00  0.00    -0.253 OA
ATOM      4  N   UNL     1       0.393   1.661  -0.536  0.00  0.00    -0.270 N 
ATOM      5  H   UNL     1       0.306   0.775  -0.923  0.00  0.00    +0.153 HD
ENDROOT
BRANCH   1   6
ATOM      6  C   UNL     1       3.862   1.602   0.677  0.00  0.00    +0.139 C 
BRANCH   6   7
ATOM      7  C   UNL     1       3.742   1.416   2.191  0.00  0.00    +0.175 C 
BRANCH   7   8
ATOM      8  O   UNL     1       3.643   0.023   2.494  0.00  0.00    -0.393 OA
ATOM      9  H   UNL     1       3.564  -0.170   3.438  0.00  0.00    +0.209 HD
ENDBRANCH   7   8
ENDBRANCH   6   7
ENDBRANCH   1   6
BRANCH   1  10
ATOM     10  C   UNL     1       2.479  -0.143  -0.539  0.00  0.00    +0.257 C 
BRANCH  10  11
ATOM     11  C   UNL     1       3.162  -0.181  -1.908  0.00  0.00    +0.233 C 
ATOM     12 CL   UNL     1       2.904  -1.797  -2.664  0.00  0.00    -0.079 Cl
ATOM     13 CL   UNL     1       2.457   1.097  -2.967  0.00  0.00    -0.079 Cl
ATOM     14 CL   UNL     1       4.929   0.113  -1.707  0.00  0.00    -0.079 Cl
ENDBRANCH  10  11
BRANCH  10  15
ATOM     15  O   UNL     1       3.099  -1.094   0.328  0.00  0.00    -0.370 OA
ATOM     16  H   UNL     1       2.716  -1.125   1.216  0.00  0.00    +0.212 HD
ENDBRANCH  10  15
ENDBRANCH   1  10
BRANCH   4  17
ATOM     17  C   UNL     1      -0.760   2.564  -0.508  0.00  0.00    +0.255 C 
BRANCH  17  18
ATOM     18  C   UNL     1      -1.602   2.356  -1.768  0.00  0.00    +0.232 C 
ATOM     19 CL   UNL     1      -3.021   3.467  -1.734  0.00  0.00    -0.079 Cl
ATOM     20 CL   UNL     1      -0.600   2.705  -3.226  0.00  0.00    -0.079 Cl
ATOM     21 CL   UNL     1      -2.178   0.648  -1.830  0.00  0.00    -0.079 Cl
ENDBRANCH  17  18
BRANCH  17  22
ATOM     22  O   UNL     1      -1.554   2.287   0.647  0.00  0.00    -0.370 OA
ATOM     23  H   UNL     1      -1.898   1.384   0.680  0.00  0.00    +0.212 HD
ENDBRANCH  17  22
ENDBRANCH   4  17
TORSDOF 9
