REMARK  Name = ZINC13940997
REMARK  6 active torsions:
REMARK  status: ('A' for Active; 'I' for Inactive)
REMARK    1  A    between atoms: C_1  and  C_2
REMARK    2  A    between atoms: C_2  and  O_3
REMARK    3  A    between atoms: O_3  and  C_4
REMARK    4  A    between atoms: C_6  and  C_11
REMARK    5  A    between atoms: C_9  and  O_10
REMARK    6  A    between atoms: N_17  and  C_18
REMARK                            x       y       z     vdW  Elec       q    Type
REMARK                         _______ _______ _______ _____ _____    ______ ____
ROOT
ATOM      1  C   UNL     1      -0.208  -4.963   0.442  0.00  0.00    +0.028 C 
ATOM      2  C   UNL     1      -0.190  -6.303   0.225  0.00  0.00    +0.078 C 
ATOM      3  C   UNL     1       0.428  -7.065  -0.876  0.00  0.00    +0.256 C 
ATOM      4  O   UNL     1       1.034  -6.508  -1.774  0.00  0.00    -0.269 OA
ATOM      5  N   UNL     1       0.295  -8.380  -0.845  0.00  0.00    -0.260 N 
ATOM      6  C   UNL     1      -0.394  -8.992   0.180  0.00  0.00    +0.166 C 
ATOM      7  N   UNL     1      -0.617 -10.273   0.364  0.00  0.00    -0.226 NA
ATOM      8  S   UNL     1      -0.902  -7.619   1.203  0.00  0.00    -0.049 S 
ATOM      9  H   UNL     1       0.686  -8.920  -1.550  0.00  0.00    +0.157 HD
ENDROOT
BRANCH   7  10
ATOM     10  C   UNL     1      -0.137 -11.188  -0.535  0.00  0.00    +0.067 A 
ATOM     11  C   UNL     1      -0.269 -10.958  -1.906  0.00  0.00    +0.030 A 
ATOM     12  C   UNL     1       0.217 -11.883  -2.807  0.00  0.00    +0.040 A 
ATOM     13  C   UNL     1       0.835 -13.037  -2.354  0.00  0.00    +0.124 A 
ATOM     14  C   UNL     1       0.969 -13.270  -0.995  0.00  0.00    +0.040 A 
ATOM     15  C   UNL     1       0.492 -12.350  -0.085  0.00  0.00    +0.030 A 
ATOM     16  F   UNL     1       1.309 -13.939  -3.241  0.00  0.00    -0.205 F 
ENDBRANCH   7  10
BRANCH   1  19
ATOM     17  C   UNL     1       1.493  -2.055  -1.207  0.00  0.00    +0.162 A 
ATOM     18  C   UNL     1       1.029  -2.914  -0.230  0.00  0.00    +0.057 A 
ATOM     19  C   UNL     1       0.288  -4.046  -0.592  0.00  0.00    -0.020 A 
ATOM     20  C   UNL     1       0.022  -4.300  -1.943  0.00  0.00    +0.012 A 
ATOM     21  C   UNL     1       0.489  -3.438  -2.911  0.00  0.00    +0.050 A 
ATOM     22  C   UNL     1       1.219  -2.313  -2.550  0.00  0.00    +0.158 A 
BRANCH  22  23
ATOM     23  O   UNL     1       1.673  -1.464  -3.509  0.00  0.00    -0.503 OA
ATOM     24  H   UNL     1       2.550  -1.687  -3.848  0.00  0.00    +0.292 HD
ENDBRANCH  22  23
BRANCH  17  25
ATOM     25  O   UNL     1       2.213  -0.955  -0.859  0.00  0.00    -0.489 OA
BRANCH  25  27
ATOM     26  C   UNL     1       3.275   0.525   0.729  0.00  0.00    +0.048 C 
ATOM     27  C   UNL     1       2.456  -0.753   0.534  0.00  0.00    +0.226 C 
ENDBRANCH  25  27
ENDBRANCH  17  25
ENDBRANCH   1  19
TORSDOF 5
