REMARK  Name = ZINC55503640
REMARK  2 active torsions:
REMARK  status: ('A' for Active; 'I' for Inactive)
REMARK    1  A    between atoms: C_3  and  C_8
REMARK    2  A    between atoms: C_14  and  C_19
REMARK                            x       y       z     vdW  Elec       q    Type
REMARK                         _______ _______ _______ _____ _____    ______ ____
ROOT
ATOM      1  C   UNL     1       3.679   2.030  -0.023  0.00  0.00    +0.145 A 
ATOM      2  N   UNL     1       3.720   3.397  -0.011  0.00  0.00    -0.306 N 
ATOM      3  H   UNL     1       2.890   3.899   0.004  0.00  0.00    +0.170 HD
ATOM      4  C   UNL     1       4.892   4.059  -0.018  0.00  0.00    +0.261 A 
ATOM      5  O   UNL     1       4.913   5.277  -0.006  0.00  0.00    -0.267 OA
ATOM      6  C   UNL     1       6.112   3.312  -0.040  0.00  0.00    +0.083 A 
ATOM      7  C   UNL     1       7.488   3.799  -0.051  0.00  0.00    +0.039 A 
ATOM      8  C   UNL     1       8.499   2.893  -0.071  0.00  0.00    +0.059 A 
ATOM      9  S   UNL     1       7.650   1.326  -0.076  0.00  0.00    -0.076 S 
ATOM     10  C   UNL     1       5.976   1.913  -0.051  0.00  0.00    +0.116 A 
ATOM     11  N   UNL     1       4.788   1.322  -0.037  0.00  0.00    -0.222 NA
ENDROOT
BRANCH   1  14
ATOM     12  C   UNL     1      -0.017   1.379   0.010  0.00  0.00    +0.020 A 
ATOM     13  C   UNL     1       1.180   2.073   0.002  0.00  0.00    +0.016 A 
ATOM     14  C   UNL     1       2.373   1.340  -0.013  0.00  0.00    +0.054 A 
ATOM     15  C   UNL     1       2.307  -0.056  -0.020  0.00  0.00    +0.140 A 
ATOM     16  N   UNL     1       1.141  -0.670  -0.013  0.00  0.00    -0.243 NA
ATOM     17  C   UNL     1       0.002  -0.004   0.002  0.00  0.00    +0.112 A 
ATOM     18 CL   UNL     1       3.771  -0.988  -0.039  0.00  0.00    -0.061 Cl
ENDBRANCH   1  14
BRANCH   7  19
ATOM     19  C   UNL     1       7.775   5.247  -0.041  0.00  0.00    +0.136 A 
ATOM     20  C   UNL     1       8.638   5.885   0.796  0.00  0.00    +0.050 A 
ATOM     21  C   UNL     1       8.599   7.252   0.455  0.00  0.00    +0.042 A 
ATOM     22  C   UNL     1       7.724   7.381  -0.561  0.00  0.00    +0.196 A 
ATOM     23  O   UNL     1       7.232   6.166  -0.862  0.00  0.00    -0.463 OA
ENDBRANCH   7  19
TORSDOF 2
