REMARK  Name = ZINC56892566
REMARK  7 active torsions:
REMARK  status: ('A' for Active; 'I' for Inactive)
REMARK    1  A    between atoms: C_1  and  C_2
REMARK    2  A    between atoms: C_5  and  C_7
REMARK    3  A    between atoms: N_17  and  C_18
REMARK    4  A    between atoms: C_18  and  C_19
REMARK    5  A    between atoms: C_19  and  C_20
REMARK    6  A    between atoms: C_20  and  N_21
REMARK    7  A    between atoms: C_25  and  C_26
REMARK                            x       y       z     vdW  Elec       q    Type
REMARK                         _______ _______ _______ _____ _____    ______ ____
ROOT
ATOM      1  C   UNL     1       1.075  -3.942  -0.020  0.00  0.00    +0.253 C 
ATOM      2  O   UNL     1       0.355  -4.905   0.173  0.00  0.00    -0.269 OA
ATOM      3  N   UNL     1       2.408  -4.109  -0.131  0.00  0.00    -0.294 N 
ATOM      4  C   UNL     1       3.310  -2.949  -0.124  0.00  0.00    +0.127 C 
ATOM      5  C   UNL     1       4.350  -3.144   0.986  0.00  0.00    +0.128 C 
ATOM      6  N   UNL     1       4.928  -4.489   0.857  0.00  0.00    -0.283 N 
ATOM      7  C   UNL     1       4.026  -5.649   0.851  0.00  0.00    +0.128 C 
ATOM      8  C   UNL     1       2.986  -5.455  -0.253  0.00  0.00    +0.127 C 
ATOM      9  C   UNL     1       6.261  -4.656   0.747  0.00  0.00    +0.302 C 
ATOM     10  O   UNL     1       7.003  -3.698   0.844  0.00  0.00    -0.253 OA
ATOM     11  N   UNL     1       6.770  -5.885   0.530  0.00  0.00    -0.299 N 
ATOM     12  H   UNL     1       6.185  -6.658   0.524  0.00  0.00    +0.150 HD
ENDROOT
BRANCH   1  17
ATOM     13  C   UNL     1      -0.096   1.439  -0.740  0.00  0.00    +0.051 C 
ATOM     14  C   UNL     1      -0.047  -0.045  -0.479  0.00  0.00    -0.013 A 
ATOM     15  C   UNL     1      -1.064  -0.857  -0.098  0.00  0.00    +0.011 A 
ATOM     16  C   UNL     1      -0.815  -2.196   0.090  0.00  0.00    +0.021 A 
ATOM     17  C   UNL     1       0.492  -2.602  -0.133  0.00  0.00    +0.074 A 
ATOM     18  S   UNL     1       1.277  -1.071  -0.600  0.00  0.00    -0.089 S 
ENDBRANCH   1  17
BRANCH  11  19
ATOM     19  C   UNL     1       8.208  -6.052   0.303  0.00  0.00    +0.107 C 
BRANCH  19  20
ATOM     20  C   UNL     1       8.521  -7.533   0.084  0.00  0.00    +0.040 C 
BRANCH  20  21
ATOM     21  C   UNL     1      10.022  -7.708  -0.153  0.00  0.00    +0.124 C 
BRANCH  21  22
ATOM     22  N   UNL     1      10.322  -9.126  -0.362  0.00  0.00    -0.336 N 
ATOM     23  C   UNL     1      10.732 -10.019   0.591  0.00  0.00    +0.104 A 
ATOM     24  C   UNL     1      10.891 -11.204  -0.028  0.00  0.00    +0.101 A 
ATOM     25  N   UNL     1      10.587 -11.040  -1.324  0.00  0.00    -0.350 N 
ATOM     26  C   UNL     1      10.240  -9.799  -1.530  0.00  0.00    +0.084 A 
ATOM     27  C   UNL     1       9.822  -9.213  -2.854  0.00  0.00    +0.084 C 
ATOM     28  H   UNL     1      10.616 -11.735  -2.000  0.00  0.00    +0.166 HD
ENDBRANCH  21  22
ENDBRANCH  20  21
ENDBRANCH  19  20
ENDBRANCH  11  19
TORSDOF 5
