REMARK  Name = ZINC08766702
REMARK  11 active torsions:
REMARK  status: ('A' for Active; 'I' for Inactive)
REMARK    1  A    between atoms: C_1  and  C_2
REMARK    2  A    between atoms: C_2  and  C_3
REMARK    3  A    between atoms: C_10  and  C_12
REMARK    4  A    between atoms: C_15  and  S_18
REMARK    5  A    between atoms: N_16  and  C_17
REMARK    6  A    between atoms: S_18  and  C_19
REMARK    7  A    between atoms: C_19  and  C_20
REMARK    8  A    between atoms: N_22  and  N_23
REMARK    9  A    between atoms: C_26  and  C_30
REMARK   10  A    between atoms: C_26  and  C_31
REMARK   11  A    between atoms: C_31  and  C_32
REMARK                            x       y       z     vdW  Elec       q    Type
REMARK                         _______ _______ _______ _____ _____    ______ ____
ROOT
ATOM      1  C   UNL     1       1.244  -0.436  -0.012  0.00  0.00    +0.171 A 
ATOM      2  N   UNL     1       0.002  -0.004   0.002  0.00  0.00    -0.128 NA
ATOM      3  N   UNL     1      -0.015   1.281   0.009  0.00  0.00    -0.122 NA
ATOM      4  C   UNL     1       1.211   1.750  -0.000  0.00  0.00    +0.192 A 
ATOM      5  N   UNL     1       2.057   0.676  -0.014  0.00  0.00    -0.305 N 
ATOM      6  C   UNL     1       3.522   0.702  -0.027  0.00  0.00    +0.153 C 
ENDROOT
BRANCH   1  13
ATOM      7  C   UNL     1       1.867  -6.603  -0.863  0.00  0.00    -0.007 C 
ATOM      8  C   UNL     1       2.912  -6.679   0.254  0.00  0.00    +0.009 C 
ATOM      9  C   UNL     1       3.791  -5.421   0.193  0.00  0.00    +0.043 C 
ATOM     10  C   UNL     1       2.898  -4.229   0.073  0.00  0.00    -0.006 A 
ATOM     11  C   UNL     1       1.573  -4.213  -0.252  0.00  0.00    -0.036 A 
ATOM     12  C   UNL     1       0.957  -2.969  -0.298  0.00  0.00    +0.023 A 
ATOM     13  C   UNL     1       1.682  -1.841  -0.024  0.00  0.00    +0.057 A 
ATOM     14  S   UNL     1       3.301  -2.519   0.309  0.00  0.00    -0.090 S 
ATOM     15  C   UNL     1       0.838  -5.518  -0.544  0.00  0.00    +0.039 C 
BRANCH   7  17
ATOM     16  C   UNL     1       0.202  -7.919  -2.182  0.00  0.00    +0.004 C 
ATOM     17  C   UNL     1       1.157  -7.953  -0.987  0.00  0.00    +0.000 C 
ENDBRANCH   7  17
ENDBRANCH   1  13
BRANCH   4  18
ATOM     18  S   UNL     1       1.680   3.449   0.004  0.00  0.00    -0.077 S 
BRANCH  18  19
ATOM     19  C   UNL     1       0.046   4.226   0.024  0.00  0.00    +0.174 C 
BRANCH  19  20
ATOM     20  C   UNL     1       0.202   5.725   0.030  0.00  0.00    +0.240 C 
ATOM     21  O   UNL     1       1.310   6.219   0.022  0.00  0.00    -0.273 OA
ATOM     22  N   UNL     1      -0.888   6.516   0.045  0.00  0.00    -0.223 N 
ATOM     23  H   UNL     1      -1.774   6.121   0.052  0.00  0.00    +0.174 HD
BRANCH  22  24
ATOM     24  N   UNL     1      -0.743   7.910   0.051  0.00  0.00    -0.137 N 
ATOM     25  C   UNL     1      -0.946   8.687   1.132  0.00  0.00    +0.263 C 
ATOM     26  O   UNL     1      -1.276   8.327   2.242  0.00  0.00    -0.271 OA
ATOM     27  C   UNL     1      -0.673  10.106   0.674  0.00  0.00    +0.111 C 
ATOM     28  N   UNL     1      -0.323   9.949  -0.748  0.00  0.00    -0.284 N 
ATOM     29  C   UNL     1      -0.391   8.633  -1.018  0.00  0.00    +0.326 C 
ATOM     30  O   UNL     1      -0.159   8.154  -2.111  0.00  0.00    -0.251 OA
ATOM     31  C   UNL     1       0.495  10.713   1.452  0.00  0.00    +0.041 C 
ATOM     32  H   UNL     1      -0.088  10.656  -1.369  0.00  0.00    +0.151 HD
BRANCH  27  33
ATOM     33  C   UNL     1      -1.926  10.971   0.827  0.00  0.00    +0.032 C 
ATOM     34  C   UNL     1      -1.700  12.322   0.146  0.00  0.00    +0.006 C 
ENDBRANCH  27  33
ENDBRANCH  22  24
ENDBRANCH  19  20
ENDBRANCH  18  19
ENDBRANCH   4  18
TORSDOF 7
