REMARK  Name = ZINC39710374
REMARK  12 active torsions:
REMARK  status: ('A' for Active; 'I' for Inactive)
REMARK    1  A    between atoms: C_1  and  C_2
REMARK    2  A    between atoms: C_9  and  C_14
REMARK    3  A    between atoms: C_14  and  C_16
REMARK    4  A    between atoms: C_14  and  N_26
REMARK    5  A    between atoms: N_21  and  C_22
REMARK    6  A    between atoms: C_22  and  C_23
REMARK    7  A    between atoms: C_22  and  C_24
REMARK    8  A    between atoms: C_22  and  C_25
REMARK    9  A    between atoms: N_26  and  C_27
REMARK   10  A    between atoms: N_26  and  C_35
REMARK   11  A    between atoms: C_27  and  C_28
REMARK   12  A    between atoms: C_35  and  C_36
REMARK                            x       y       z     vdW  Elec       q    Type
REMARK                         _______ _______ _______ _____ _____    ______ ____
ROOT
ATOM      1  C   UNL     1      -1.020  -5.071   3.095  0.00  0.00    -0.008 C 
ENDROOT
BRANCH   1  10
ATOM      2  C   UNL     1       2.434  -6.915  -2.878  0.00  0.00    +0.044 C 
ATOM      3  C   UNL     1       2.355  -6.645  -1.398  0.00  0.00    -0.050 A 
ATOM      4  C   UNL     1       3.302  -7.217  -0.548  0.00  0.00    +0.005 A 
ATOM      5  C   UNL     1       3.296  -7.019   0.796  0.00  0.00    +0.024 A 
ATOM      6  C   UNL     1       2.311  -6.211   1.394  0.00  0.00    +0.040 A 
ATOM      7  N   UNL     1       2.314  -6.024   2.714  0.00  0.00    -0.285 N 
ATOM      8  C   UNL     1       1.418  -5.278   3.339  0.00  0.00    +0.223 C 
ATOM      9  O   UNL     1       1.472  -5.144   4.547  0.00  0.00    -0.275 OA
ATOM     10  C   UNL     1       0.327  -4.594   2.547  0.00  0.00    +0.088 C 
ATOM     11  C   UNL     1       0.319  -4.803   1.046  0.00  0.00    -0.006 C 
ATOM     12  C   UNL     1       1.297  -5.595   0.520  0.00  0.00    -0.007 A 
ATOM     13  C   UNL     1       1.367  -5.846  -0.920  0.00  0.00    +0.012 A 
ATOM     14  H   UNL     1       3.006  -6.454   3.240  0.00  0.00    +0.155 HD
ENDBRANCH   1  10
BRANCH   1  15
ATOM     15  C   UNL     1      -1.436  -4.183   4.269  0.00  0.00    +0.205 C 
ATOM     16  N   UNL     1      -2.747  -4.600   4.787  0.00  0.00    -0.152 NA
ATOM     17  N   UNL     1      -3.540  -3.664   4.665  0.00  0.00    -0.070 NA
ATOM     18  N   UNL     1      -2.960  -2.534   4.089  0.00  0.00    -0.179 N 
ATOM     19  N   UNL     1      -1.639  -2.791   3.817  0.00  0.00    -0.183 NA
ATOM     20  H   UNL     1      -3.418  -1.697   3.909  0.00  0.00    +0.191 HD
BRANCH  19  21
ATOM     21  C   UNL     1      -0.760  -1.867   4.545  0.00  0.00    +0.035 C 
ATOM     22  C   UNL     1       0.699  -2.180   4.209  0.00  0.00    +0.029 C 
ATOM     23  C   UNL     1      -1.080  -0.428   4.136  0.00  0.00    +0.029 C 
ATOM     24  C   UNL     1      -0.983  -2.031   6.050  0.00  0.00    +0.029 C 
ENDBRANCH  19  21
ENDBRANCH   1  15
BRANCH   1  25
ATOM     25  N   UNL     1      -0.898  -6.462   3.551  0.00  0.00    +0.392 N 
ATOM     26  H   UNL     1      -0.266  -6.503   4.337  0.00  0.00    -0.080 HD
BRANCH  25  27
ATOM     27  C   UNL     1      -0.374  -7.292   2.458  0.00  0.00    -0.042 C 
BRANCH  27  28
ATOM     28  C   UNL     1      -0.082  -8.677   2.975  0.00  0.00    -0.064 A 
ATOM     29  C   UNL     1       1.116  -8.938   3.612  0.00  0.00    +0.004 A 
ATOM     30  C   UNL     1       1.385 -10.208   4.087  0.00  0.00    +0.038 A 
ATOM     31  C   UNL     1       0.453 -11.219   3.924  0.00  0.00    +0.123 A 
ATOM     32  C   UNL     1      -0.747 -10.956   3.285  0.00  0.00    +0.038 A 
ATOM     33  C   UNL     1      -1.016  -9.684   2.816  0.00  0.00    +0.004 A 
ATOM     34  F   UNL     1       0.715 -12.461   4.387  0.00  0.00    -0.205 F 
ENDBRANCH  27  28
ENDBRANCH  25  27
BRANCH  25  35
ATOM     35  C   UNL     1      -2.218  -6.961   3.957  0.00  0.00    -0.002 C 
BRANCH  35  36
ATOM     36  C   UNL     1      -3.220  -6.676   2.867  0.00  0.00    +0.089 A 
ATOM     37  C   UNL     1      -3.605  -7.537   1.908  0.00  0.00    +0.042 A 
ATOM     38  C   UNL     1      -4.551  -6.859   1.105  0.00  0.00    +0.041 A 
ATOM     39  C   UNL     1      -4.688  -5.624   1.622  0.00  0.00    +0.195 A 
ATOM     40  O   UNL     1      -3.883  -5.521   2.693  0.00  0.00    -0.470 OA
ENDBRANCH  35  36
ENDBRANCH  25  35
ENDBRANCH   1  25
TORSDOF 8
