REMARK  Name = ZINC09751045
REMARK  11 active torsions:
REMARK  status: ('A' for Active; 'I' for Inactive)
REMARK    1  A    between atoms: C_1  and  C_2
REMARK    2  A    between atoms: C_9  and  N_14
REMARK    3  A    between atoms: C_10  and  C_11
REMARK    4  A    between atoms: C_15  and  C_17
REMARK    5  A    between atoms: N_22  and  C_24
REMARK    6  A    between atoms: C_24  and  C_25
REMARK    7  A    between atoms: C_25  and  C_26
REMARK    8  A    between atoms: C_29  and  O_34
REMARK    9  A    between atoms: C_30  and  O_32
REMARK   10  A    between atoms: O_32  and  C_33
REMARK   11  A    between atoms: O_34  and  C_35
REMARK                            x       y       z     vdW  Elec       q    Type
REMARK                         _______ _______ _______ _____ _____    ______ ____
ROOT
ATOM      1  N   UNL     1       2.442  -8.746  -1.361  0.00  0.00    -0.279 N 
ATOM      2  C   UNL     1       2.774  -7.449  -1.209  0.00  0.00    +0.223 C 
ATOM      3  O   UNL     1       3.701  -7.140  -0.490  0.00  0.00    -0.275 OA
ATOM      4  H   UNL     1       1.701  -8.993  -1.936  0.00  0.00    +0.155 HD
ENDROOT
BRANCH   1  12
ATOM      5  C   UNL     1       6.800 -13.982   2.485  0.00  0.00    +0.008 C 
ATOM      6  C   UNL     1       5.965 -13.316   1.390  0.00  0.00    -0.009 C 
ATOM      7  C   UNL     1       4.554 -13.913   1.385  0.00  0.00    +0.008 C 
ATOM      8  C   UNL     1       3.794 -13.441   0.145  0.00  0.00    +0.037 C 
ATOM      9  C   UNL     1       3.872 -11.921   0.071  0.00  0.00    -0.023 A 
ATOM     10  C   UNL     1       4.808 -11.238   0.764  0.00  0.00    -0.004 A 
ATOM     11  S   UNL     1       4.510  -9.537   0.373  0.00  0.00    -0.077 S 
ATOM     12  C   UNL     1       3.160  -9.728  -0.696  0.00  0.00    +0.084 A 
ATOM     13  C   UNL     1       2.969 -11.103  -0.721  0.00  0.00    +0.068 A 
ATOM     14  C   UNL     1       5.863 -11.808   1.662  0.00  0.00    +0.046 C 
BRANCH  13  15
ATOM     15  C   UNL     1       1.899 -11.707  -1.521  0.00  0.00    +0.244 C 
ATOM     16  O   UNL     1       2.111 -12.035  -2.674  0.00  0.00    -0.270 OA
ATOM     17  N   UNL     1       0.680 -11.900  -0.979  0.00  0.00    -0.325 N 
ATOM     18  H   UNL     1       0.511 -11.639  -0.060  0.00  0.00    +0.145 HD
ATOM     19  H   UNL     1      -0.028 -12.300  -1.508  0.00  0.00    +0.145 HD
ENDBRANCH  13  15
ENDBRANCH   1  12
BRANCH   2  20
ATOM     20  C   UNL     1       1.993  -6.382  -1.932  0.00  0.00    +0.101 C 
ATOM     21  C   UNL     1       0.510  -6.387  -1.492  0.00  0.00    +0.110 C 
ATOM     22  C   UNL     1       0.124  -4.925  -1.470  0.00  0.00    +0.216 C 
ATOM     23  O   UNL     1      -1.014  -4.507  -1.450  0.00  0.00    -0.276 OA
ATOM     24  N   UNL     1       1.227  -4.156  -1.476  0.00  0.00    -0.300 N 
ATOM     25  C   UNL     1       2.446  -4.972  -1.498  0.00  0.00    +0.121 C 
BRANCH  24  26
ATOM     26  C   UNL     1       1.212  -2.691  -1.468  0.00  0.00    +0.112 C 
BRANCH  26  27
ATOM     27  C   UNL     1       1.222  -2.189  -0.022  0.00  0.00    +0.054 C 
BRANCH  27  28
ATOM     28  C   UNL     1       1.207  -0.682  -0.014  0.00  0.00    -0.042 A 
ATOM     29  C   UNL     1       0.002  -0.004   0.002  0.00  0.00    +0.007 A 
ATOM     30  C   UNL     1      -0.017   1.378   0.010  0.00  0.00    +0.049 A 
ATOM     31  C   UNL     1       1.174   2.087   0.002  0.00  0.00    +0.161 A 
ATOM     32  C   UNL     1       2.386   1.405  -0.014  0.00  0.00    +0.162 A 
ATOM     33  C   UNL     1       2.398   0.019  -0.022  0.00  0.00    +0.053 A 
BRANCH  32  34
ATOM     34  O   UNL     1       3.557   2.096  -0.021  0.00  0.00    -0.491 OA
ATOM     35  C   UNL     1       4.763   1.330  -0.037  0.00  0.00    +0.277 C 
ENDBRANCH  32  34
BRANCH  31  36
ATOM     36  O   UNL     1       1.157   3.447   0.009  0.00  0.00    -0.491 OA
ATOM     37  C   UNL     1      -0.124   4.080   0.025  0.00  0.00    +0.277 C 
ENDBRANCH  31  36
ENDBRANCH  27  28
ENDBRANCH  26  27
ENDBRANCH  24  26
ENDBRANCH   2  20
TORSDOF 8
