REMARK  Name = ZINC43223234
REMARK  7 active torsions:
REMARK  status: ('A' for Active; 'I' for Inactive)
REMARK    1  A    between atoms: C_1  and  S_2
REMARK    2  A    between atoms: S_2  and  C_3
REMARK    3  A    between atoms: C_3  and  C_4
REMARK    4  A    between atoms: C_4  and  N_5
REMARK    5  A    between atoms: C_6  and  C_8
REMARK    6  A    between atoms: C_13  and  C_15
REMARK    7  A    between atoms: N_17  and  C_18
REMARK                            x       y       z     vdW  Elec       q    Type
REMARK                         _______ _______ _______ _____ _____    ______ ____
ROOT
ATOM      1  C   UNL     1       2.594  -3.921  -4.514  0.00  0.00    +0.068 C 
ATOM      2  C   UNL     1       4.042  -3.390  -4.470  0.00  0.00    -0.069 C 
ATOM      3  N   UNL     1       4.849  -4.542  -3.991  0.00  0.00    +0.380 N 
ATOM      4  C   UNL     1       4.252  -5.716  -4.679  0.00  0.00    -0.069 C 
ATOM      5  C   UNL     1       2.729  -5.451  -4.652  0.00  0.00    +0.068 C 
ATOM      6  H   UNL     1       5.816  -4.431  -4.258  0.00  0.00    -0.086 HD
ATOM      7  H   UNL     1       4.766  -4.639  -2.990  0.00  0.00    -0.086 HD
ENDROOT
BRANCH   1   9
ATOM      8  N   UNL     1       1.669  -2.282  -2.908  0.00  0.00    -0.314 N 
ATOM      9  C   UNL     1       1.870  -3.573  -3.239  0.00  0.00    +0.215 C 
ATOM     10  O   UNL     1       1.467  -4.455  -2.510  0.00  0.00    -0.276 OA
ATOM     11  H   UNL     1       1.991  -1.577  -3.491  0.00  0.00    +0.149 HD
BRANCH   8  12
ATOM     12  C   UNL     1       0.966  -1.944  -1.668  0.00  0.00    +0.115 C 
BRANCH  12  13
ATOM     13  C   UNL     1       0.873  -0.423  -1.533  0.00  0.00    +0.087 C 
BRANCH  13  15
ATOM     14  C   UNL     1      -0.022   1.810   0.012  0.00  0.00    +0.084 C 
ATOM     15  S   UNL     1       0.002  -0.004   0.002  0.00  0.00    -0.163 S 
ENDBRANCH  13  15
ENDBRANCH  12  13
ENDBRANCH   8  12
ENDBRANCH   1   9
BRANCH   5  16
ATOM     16  C   UNL     1       2.093  -5.919  -5.936  0.00  0.00    +0.215 C 
ATOM     17  O   UNL     1       1.574  -5.117  -6.683  0.00  0.00    -0.276 OA
ATOM     18  N   UNL     1       2.100  -7.229  -6.254  0.00  0.00    -0.308 N 
ATOM     19  H   UNL     1       2.515  -7.870  -5.656  0.00  0.00    +0.149 HD
BRANCH  18  20
ATOM     20  C   UNL     1       1.481  -7.683  -7.501  0.00  0.00    +0.104 C 
ATOM     21  C   UNL     1       1.082  -9.170  -7.390  0.00  0.00    +0.032 C 
ATOM     22  C   UNL     1       2.325  -9.890  -7.954  0.00  0.00    +0.037 C 
ATOM     23  C   UNL     1       2.967  -8.895  -8.895  0.00  0.00    -0.042 A 
ATOM     24  C   UNL     1       2.482  -7.624  -8.636  0.00  0.00    -0.024 A 
ATOM     25  C   UNL     1       2.930  -6.546  -9.380  0.00  0.00    +0.006 A 
ATOM     26  C   UNL     1       3.862  -6.734 -10.383  0.00  0.00    +0.000 A 
ATOM     27  C   UNL     1       4.348  -8.001 -10.645  0.00  0.00    +0.000 A 
ATOM     28  C   UNL     1       3.901  -9.083  -9.900  0.00  0.00    +0.004 A 
ENDBRANCH  18  20
ENDBRANCH   5  16
TORSDOF 6
