REMARK  Name = ZINC63361860
REMARK  13 active torsions:
REMARK  status: ('A' for Active; 'I' for Inactive)
REMARK    1  A    between atoms: C_1  and  C_2
REMARK    2  A    between atoms: C_2  and  C_4
REMARK    3  A    between atoms: C_2  and  N_10
REMARK    4  A    between atoms: C_4  and  C_5
REMARK    5  A    between atoms: C_5  and  C_6
REMARK    6  A    between atoms: C_6  and  C_7
REMARK    7  A    between atoms: C_7  and  C_8
REMARK    8  A    between atoms: C_7  and  C_9
REMARK    9  A    between atoms: C_11  and  C_13
REMARK   10  A    between atoms: C_18  and  N_19
REMARK   11  A    between atoms: C_22  and  C_40
REMARK   12  A    between atoms: C_28  and  O_33
REMARK   13  A    between atoms: O_33  and  C_34
REMARK                            x       y       z     vdW  Elec       q    Type
REMARK                         _______ _______ _______ _____ _____    ______ ____
ROOT
ATOM      1  N   UNL     1      -3.167  -0.886   3.899  0.00  0.00    -0.192 N 
ATOM      2  C   UNL     1      -2.246  -1.624   4.553  0.00  0.00    +0.253 C 
ATOM      3  O   UNL     1      -1.901  -2.758   4.299  0.00  0.00    -0.272 OA
ATOM      4  C   UNL     1      -1.734  -0.741   5.669  0.00  0.00    +0.137 C 
ATOM      5  C   UNL     1      -1.980  -1.395   7.029  0.00  0.00    +0.139 C 
ATOM      6  C   UNL     1      -3.047  -0.575   7.739  0.00  0.00    -0.034 C 
ATOM      7  C   UNL     1      -4.024  -1.423   8.046  0.00  0.00    +0.003 A 
ATOM      8  C   UNL     1      -5.282  -1.242   8.787  0.00  0.00    +0.055 A 
ATOM      9  C   UNL     1      -6.078  -2.339   8.915  0.00  0.00    +0.121 A 
ATOM     10  C   UNL     1      -5.765  -3.601   8.389  0.00  0.00    +0.047 A 
ATOM     11  C   UNL     1      -4.632  -3.879   7.694  0.00  0.00    +0.029 A 
ATOM     12  C   UNL     1      -3.688  -2.771   7.495  0.00  0.00    +0.043 A 
ATOM     13  N   UNL     1      -2.521  -2.749   6.892  0.00  0.00    -0.375 N 
ATOM     14  C   UNL     1      -2.958   0.918   7.940  0.00  0.00    +0.052 C 
ATOM     15  C   UNL     1      -2.646   1.540   6.564  0.00  0.00    +0.115 C 
ATOM     16  N   UNL     1      -2.597   0.454   5.581  0.00  0.00    -0.268 N 
ATOM     17  C   UNL     1      -3.332   0.316   4.468  0.00  0.00    +0.317 C 
ATOM     18  O   UNL     1      -4.064   1.179   4.027  0.00  0.00    -0.252 OA
ATOM     19  C   UNL     1      -0.261  -0.383   5.465  0.00  0.00    +0.044 C 
ATOM     20  H   UNL     1      -2.091  -3.488   6.434  0.00  0.00    +0.160 HD
ENDROOT
BRANCH   1  26
ATOM     21  C   UNL     1      -3.320  -1.110   1.488  0.00  0.00    +0.059 A 
ATOM     22  C   UNL     1      -4.019  -1.552   0.363  0.00  0.00    +0.015 A 
ATOM     23  C   UNL     1      -5.233  -2.186   0.514  0.00  0.00    +0.001 A 
ATOM     24  C   UNL     1      -5.765  -2.386   1.777  0.00  0.00    +0.002 A 
ATOM     25  C   UNL     1      -5.085  -1.954   2.898  0.00  0.00    +0.025 A 
ATOM     26  C   UNL     1      -3.859  -1.319   2.766  0.00  0.00    +0.058 A 
BRANCH  21  28
ATOM     27  N   UNL     1      -1.456  -0.321   0.115  0.00  0.00    -0.309 N 
ATOM     28  C   UNL     1      -2.018  -0.431   1.335  0.00  0.00    +0.246 C 
ATOM     29  O   UNL     1      -1.454   0.030   2.308  0.00  0.00    -0.270 OA
ATOM     30  H   UNL     1      -1.938  -0.622  -0.671  0.00  0.00    +0.149 HD
BRANCH  27  32
ATOM     31  C   UNL     1      -0.218   1.774  -0.126  0.00  0.00    +0.028 C 
ATOM     32  C   UNL     1      -0.114   0.251  -0.024  0.00  0.00    +0.070 C 
BRANCH  32  33
ATOM     33  C   UNL     1       0.547  -0.301  -1.289  0.00  0.00    +0.022 C 
BRANCH  33  34
ATOM     34  C   UNL     1       0.764  -1.807  -1.135  0.00  0.00    +0.002 C 
BRANCH  34  35
ATOM     35  C   UNL     1       1.426  -2.359  -2.399  0.00  0.00    +0.003 C 
BRANCH  35  36
ATOM     36  C   UNL     1       1.643  -3.866  -2.245  0.00  0.00    -0.017 C 
ATOM     37  C   UNL     1       2.189  -4.439  -3.554  0.00  0.00    +0.007 C 
ATOM     38  C   UNL     1       2.645  -4.124  -1.118  0.00  0.00    +0.007 C 
ENDBRANCH  35  36
ENDBRANCH  34  35
ENDBRANCH  33  34
ENDBRANCH  32  33
ENDBRANCH  27  32
ENDBRANCH  21  28
ENDBRANCH   1  26
BRANCH   9  39
ATOM     39  O   UNL     1      -7.247  -2.204   9.595  0.00  0.00    -0.495 OA
ATOM     40  C   UNL     1      -8.066  -3.369   9.717  0.00  0.00    +0.277 C 
ENDBRANCH   9  39
TORSDOF 8
