REMARK  Name = ZINC61417130
REMARK  3 active torsions:
REMARK  status: ('A' for Active; 'I' for Inactive)
REMARK    1  A    between atoms: C_7  and  C_10
REMARK    2  A    between atoms: C_10  and  C_12
REMARK    3  A    between atoms: C_10  and  O_22
REMARK                            x       y       z     vdW  Elec       q    Type
REMARK                         _______ _______ _______ _____ _____    ______ ____
ROOT
ATOM      1  C   UNL     1       0.282  -3.100  -0.017  0.00  0.00    +0.176 C 
ENDROOT
BRANCH   1   2
ATOM      2  C   UNL     1      -0.200  -3.314  -1.429  0.00  0.00    -0.013 A 
ATOM      3  C   UNL     1       0.410  -4.283  -2.223  0.00  0.00    +0.009 A 
ATOM      4  C   UNL     1      -0.001  -4.501  -3.502  0.00  0.00    +0.030 A 
ATOM      5  C   UNL     1      -1.057  -3.740  -4.033  0.00  0.00    +0.089 A 
ATOM      6  C   UNL     1      -1.678  -2.754  -3.225  0.00  0.00    +0.090 A 
ATOM      7  C   UNL     1      -1.228  -2.562  -1.907  0.00  0.00    +0.036 A 
ATOM      8  N   UNL     1      -2.683  -2.027  -3.725  0.00  0.00    -0.252 NA
ATOM      9  C   UNL     1      -3.084  -2.233  -4.959  0.00  0.00    +0.131 A 
ATOM     10  C   UNL     1      -2.473  -3.204  -5.755  0.00  0.00    +0.131 A 
ATOM     11  N   UNL     1      -1.484  -3.931  -5.286  0.00  0.00    -0.252 NA
ENDBRANCH   1   2
BRANCH   1  18
ATOM     12  C   UNL     1      -0.016   1.355   0.009  0.00  0.00    +0.001 A 
ATOM     13  C   UNL     1       1.157   2.097   0.002  0.00  0.00    +0.001 A 
ATOM     14  C   UNL     1       2.374   1.445  -0.013  0.00  0.00    +0.015 A 
ATOM     15  C   UNL     1       2.406   0.067  -0.020  0.00  0.00    +0.020 A 
ATOM     16  C   UNL     1       1.228  -0.711  -0.013  0.00  0.00    -0.005 A 
ATOM     17  C   UNL     1       0.002  -0.004   0.002  0.00  0.00    +0.009 A 
ATOM     18  C   UNL     1       1.451  -2.149  -0.023  0.00  0.00    -0.000 A 
ATOM     19  C   UNL     1       2.706  -2.619  -0.038  0.00  0.00    +0.053 A 
ATOM     20  S   UNL     1       3.704  -1.142  -0.039  0.00  0.00    -0.096 S 
ENDBRANCH   1  18
BRANCH   1  21
ATOM     21  O   UNL     1       0.689  -4.351   0.542  0.00  0.00    -0.382 OA
ATOM     22  H   UNL     1       1.405  -4.783   0.058  0.00  0.00    +0.211 HD
ENDBRANCH   1  21
TORSDOF 3
