REMARK  Name = ZINC40021834
REMARK  9 active torsions:
REMARK  status: ('A' for Active; 'I' for Inactive)
REMARK    1  A    between atoms: C_1  and  C_2
REMARK    2  A    between atoms: C_7  and  C_8
REMARK    3  A    between atoms: C_14  and  C_22
REMARK    4  A    between atoms: N_16  and  C_19
REMARK    5  A    between atoms: C_19  and  C_20
REMARK    6  A    between atoms: C_20  and  O_21
REMARK    7  A    between atoms: C_25  and  O_30
REMARK    8  A    between atoms: C_26  and  O_28
REMARK    9  A    between atoms: O_28  and  C_29
REMARK                            x       y       z     vdW  Elec       q    Type
REMARK                         _______ _______ _______ _____ _____    ______ ____
ROOT
ATOM      1  C   UNL     1      -0.018   1.503   0.010  0.00  0.00    +0.044 C 
ATOM      2  C   UNL     1       0.002  -0.004   0.002  0.00  0.00    -0.047 A 
ATOM      3  C   UNL     1       0.006  -0.685  -1.195  0.00  0.00    +0.019 A 
ATOM      4  C   UNL     1       0.024  -2.080  -1.194  0.00  0.00    +0.065 A 
ATOM      5  C   UNL     1       0.033  -2.793   0.016  0.00  0.00    +0.140 A 
ATOM      6  C   UNL     1       0.033  -2.080   1.214  0.00  0.00    +0.050 A 
ATOM      7  C   UNL     1       0.023  -0.703   1.200  0.00  0.00    -0.044 A 
ATOM      8  C   UNL     1       0.029   0.053   2.503  0.00  0.00    +0.044 C 
ATOM      9  O   UNL     1       0.037  -4.145   0.057  0.00  0.00    -0.450 OA
ATOM     10  C   UNL     1       0.273  -4.846  -1.070  0.00  0.00    +0.199 A 
ATOM     11  C   UNL     1       0.280  -4.269  -2.308  0.00  0.00    +0.072 A 
ATOM     12  C   UNL     1       0.036  -2.832  -2.474  0.00  0.00    +0.199 A 
ATOM     13  O   UNL     1      -0.140  -2.306  -3.559  0.00  0.00    -0.287 OA
ATOM     14  C   UNL     1       0.566  -5.340  -3.308  0.00  0.00    +0.145 C 
ATOM     15  N   UNL     1       0.729  -6.581  -2.533  0.00  0.00    -0.281 N 
ATOM     16  C   UNL     1       0.557  -6.283  -1.228  0.00  0.00    +0.283 C 
ATOM     17  O   UNL     1       0.627  -7.083  -0.317  0.00  0.00    -0.267 OA
ENDROOT
BRANCH  14  18
ATOM     18  C   UNL     1      -0.586  -5.474  -4.271  0.00  0.00    -0.019 A 
ATOM     19  C   UNL     1      -1.729  -6.150  -3.887  0.00  0.00    +0.009 A 
ATOM     20  C   UNL     1      -2.789  -6.276  -4.766  0.00  0.00    +0.049 A 
ATOM     21  C   UNL     1      -2.707  -5.724  -6.034  0.00  0.00    +0.158 A 
ATOM     22  C   UNL     1      -1.556  -5.043  -6.420  0.00  0.00    +0.162 A 
ATOM     23  C   UNL     1      -0.499  -4.916  -5.532  0.00  0.00    +0.055 A 
BRANCH  22  24
ATOM     24  O   UNL     1      -1.470  -4.499  -7.663  0.00  0.00    -0.491 OA
ATOM     25  C   UNL     1      -0.259  -3.815  -7.990  0.00  0.00    +0.277 C 
ENDBRANCH  22  24
BRANCH  21  26
ATOM     26  O   UNL     1      -3.748  -5.847  -6.900  0.00  0.00    -0.503 OA
ATOM     27  H   UNL     1      -4.393  -5.128  -6.845  0.00  0.00    +0.292 HD
ENDBRANCH  21  26
ENDBRANCH  14  18
BRANCH  15  28
ATOM     28  C   UNL     1       1.025  -7.907  -3.081  0.00  0.00    +0.137 C 
BRANCH  28  29
ATOM     29  C   UNL     1       2.541  -8.104  -3.146  0.00  0.00    +0.175 C 
BRANCH  29  30
ATOM     30  O   UNL     1       3.077  -8.114  -1.822  0.00  0.00    -0.393 OA
ATOM     31  H   UNL     1       4.036  -8.236  -1.786  0.00  0.00    +0.209 HD
ENDBRANCH  29  30
ENDBRANCH  28  29
ENDBRANCH  15  28
TORSDOF 6
