REMARK  Name = ZINC06996266
REMARK  6 active torsions:
REMARK  status: ('A' for Active; 'I' for Inactive)
REMARK    1  A    between atoms: C_4  and  O_7
REMARK    2  A    between atoms: O_7  and  P_8
REMARK    3  A    between atoms: P_8  and  N_10
REMARK    4  A    between atoms: P_8  and  O_12
REMARK    5  A    between atoms: N_10  and  N_11
REMARK    6  A    between atoms: O_12  and  C_13
REMARK                            x       y       z     vdW  Elec       q    Type
REMARK                         _______ _______ _______ _____ _____    ______ ____
ROOT
ATOM      1  P   UNL     1      -1.230   2.882   3.894  0.00  0.00    +0.475 P 
ATOM      2  O   UNL     1       0.215   2.843   4.215  0.00  0.00    -0.227 OA
ENDROOT
BRANCH   1   3
ATOM      3  N   UNL     1      -1.837   1.313   3.851  0.00  0.00    -0.151 NA
ATOM      4  H   UNL     1      -1.264   0.719   3.271  0.00  0.00    +0.154 HD
BRANCH   3   5
ATOM      5  N   UNL     1      -3.220   1.302   3.402  0.00  0.00    -0.260 NA
ATOM      6  H   UNL     1      -3.311   1.750   2.502  0.00  0.00    +0.137 HD
ATOM      7  H   UNL     1      -3.584   0.361   3.376  0.00  0.00    +0.137 HD
ENDBRANCH   3   5
ENDBRANCH   1   3
BRANCH   1   8
ATOM      8  O   UNL     1      -2.007   3.728   5.021  0.00  0.00    -0.412 OA
BRANCH   8  12
ATOM      9  C   UNL     1      -0.890   2.803   8.883  0.00  0.00    +0.000 A 
ATOM     10  C   UNL     1      -0.226   3.800   8.193  0.00  0.00    +0.004 A 
ATOM     11  C   UNL     1      -0.598   4.111   6.899  0.00  0.00    +0.046 A 
ATOM     12  C   UNL     1      -1.639   3.423   6.294  0.00  0.00    +0.131 A 
ATOM     13  C   UNL     1      -2.308   2.427   6.991  0.00  0.00    +0.046 A 
ATOM     14  C   UNL     1      -1.928   2.116   8.282  0.00  0.00    +0.004 A 
ENDBRANCH   8  12
ENDBRANCH   1   8
BRANCH   1  15
ATOM     15  O   UNL     1      -1.441   3.579   2.458  0.00  0.00    -0.280 OA
BRANCH  15  16
ATOM     16  C   UNL     1      -0.630   3.280   1.321  0.00  0.00    +0.082 C 
ATOM     17  C   UNL     1      -0.454   1.764   1.204  0.00  0.00    +0.039 C 
ATOM     18  C   UNL     1       0.415   1.444  -0.014  0.00  0.00    -0.008 C 
ATOM     19  C   UNL     1      -0.262   1.978  -1.278  0.00  0.00    +0.007 C 
ATOM     20  C   UNL     1      -0.438   3.493  -1.161  0.00  0.00    -0.008 C 
ATOM     21  C   UNL     1      -1.307   3.813   0.057  0.00  0.00    +0.039 C 
ATOM     22  C   UNL     1       0.932   4.155  -0.998  0.00  0.00    +0.007 C 
ATOM     23  C   UNL     1       1.609   3.621   0.266  0.00  0.00    -0.008 C 
ATOM     24  C   UNL     1       1.785   2.105   0.149  0.00  0.00    +0.007 C 
ATOM     25  C   UNL     1       0.740   3.941   1.484  0.00  0.00    +0.039 C 
ENDBRANCH  15  16
ENDBRANCH   1  15
TORSDOF 6
