REMARK  Name = ZINC66436657
REMARK  6 active torsions:
REMARK  status: ('A' for Active; 'I' for Inactive)
REMARK    1  A    between atoms: C_1  and  O_2
REMARK    2  A    between atoms: O_2  and  C_3
REMARK    3  A    between atoms: C_9  and  C_13
REMARK    4  A    between atoms: N_16  and  C_19
REMARK    5  A    between atoms: C_19  and  C_20
REMARK    6  A    between atoms: C_22  and  C_25
REMARK                            x       y       z     vdW  Elec       q    Type
REMARK                         _______ _______ _______ _____ _____    ______ ____
ROOT
ATOM      1  C   UNL     1       1.138  -5.237   1.747  0.00  0.00    +0.018 C 
ATOM      2  C   UNL     1       0.224  -6.104   2.618  0.00  0.00    -0.011 C 
ATOM      3  C   UNL     1      -0.146  -7.375   1.850  0.00  0.00    -0.078 C 
ATOM      4  N   UNL     1       1.072  -8.124   1.520  0.00  0.00    +0.386 N 
ATOM      5  C   UNL     1       1.921  -7.326   0.627  0.00  0.00    -0.078 C 
ATOM      6  C   UNL     1       2.370  -6.053   1.348  0.00  0.00    -0.011 C 
ATOM      7  H   UNL     1       1.578  -8.331   2.368  0.00  0.00    -0.081 HD
ENDROOT
BRANCH   1  14
ATOM      8  C   UNL     1       0.626  -0.619   1.042  0.00  0.00    +0.121 A 
ATOM      9  C   UNL     1       1.204   0.145   2.054  0.00  0.00    +0.047 A 
ATOM     10  C   UNL     1       1.839  -0.461   3.114  0.00  0.00    +0.030 A 
ATOM     11  C   UNL     1       1.909  -1.849   3.182  0.00  0.00    +0.047 A 
ATOM     12  C   UNL     1       1.327  -2.623   2.162  0.00  0.00    +0.007 A 
ATOM     13  C   UNL     1       0.680  -1.997   1.094  0.00  0.00    +0.056 A 
ATOM     14  C   UNL     1       1.570  -4.021   2.526  0.00  0.00    -0.019 A 
ATOM     15  C   UNL     1       2.249  -4.014   3.683  0.00  0.00    +0.087 A 
ATOM     16  N   UNL     1       2.461  -2.726   4.092  0.00  0.00    -0.360 N 
ATOM     17  H   UNL     1       2.931  -2.467   4.900  0.00  0.00    +0.165 HD
BRANCH   8  19
ATOM     18  C   UNL     1      -0.017   1.425   0.010  0.00  0.00    +0.277 C 
ATOM     19  O   UNL     1       0.002  -0.004   0.002  0.00  0.00    -0.495 OA
ENDBRANCH   8  19
ENDBRANCH   1  14
BRANCH   4  20
ATOM     20  C   UNL     1       0.707  -9.381   0.853  0.00  0.00    +0.022 C 
BRANCH  20  21
ATOM     21  C   UNL     1       1.946 -10.207   0.624  0.00  0.00    +0.211 A 
ATOM     22  N   UNL     1       2.436 -11.089   1.448  0.00  0.00    -0.193 NA
ATOM     23  C   UNL     1       3.549 -11.638   0.927  0.00  0.00    +0.202 A 
ATOM     24  N   UNL     1       3.772 -11.098  -0.247  0.00  0.00    -0.056 NA
ATOM     25  O   UNL     1       2.727 -10.161  -0.463  0.00  0.00    -0.340 OA
BRANCH  23  26
ATOM     26  C   UNL     1       4.382 -12.680   1.573  0.00  0.00    +0.029 A 
ATOM     27  C   UNL     1       5.523 -13.177   0.942  0.00  0.00    +0.019 A 
ATOM     28  C   UNL     1       6.216 -14.124   1.614  0.00  0.00    +0.046 A 
ATOM     29  S   UNL     1       5.263 -14.303   3.109  0.00  0.00    -0.104 S 
ATOM     30  C   UNL     1       4.059 -13.173   2.800  0.00  0.00    +0.057 A 
ENDBRANCH  23  26
ENDBRANCH  20  21
ENDBRANCH   4  20
TORSDOF 5
