REMARK  Name = ZINC01152732
REMARK  7 active torsions:
REMARK  status: ('A' for Active; 'I' for Inactive)
REMARK    1  A    between atoms: C_1  and  S_2
REMARK    2  A    between atoms: S_2  and  N_5
REMARK    3  A    between atoms: N_5  and  C_6
REMARK    4  A    between atoms: N_5  and  C_17
REMARK    5  A    between atoms: C_6  and  C_7
REMARK    6  A    between atoms: N_9  and  C_10
REMARK    7  A    between atoms: C_21  and  N_23
REMARK                            x       y       z     vdW  Elec       q    Type
REMARK                         _______ _______ _______ _____ _____    ______ ____
ROOT
ATOM      1  N   UNL     1       2.353   3.888   0.001  0.00  0.00    -0.199 N 
ENDROOT
BRANCH   1   2
ATOM      2  C   UNL     1       1.154   3.171   0.008  0.00  0.00    +0.054 A 
ATOM      3  C   UNL     1       1.174   1.782   0.000  0.00  0.00    +0.025 A 
ATOM      4  C   UNL     1      -0.013   1.076   0.008  0.00  0.00    +0.004 A 
ATOM      5  C   UNL     1      -1.220   1.750   0.017  0.00  0.00    +0.033 A 
ATOM      6  C   UNL     1      -1.243   3.133   0.031  0.00  0.00    +0.128 A 
ATOM      7  C   UNL     1      -0.060   3.845   0.023  0.00  0.00    +0.057 A 
BRANCH   6   8
ATOM      8  N   UNL     1      -2.538   3.850   0.047  0.00  0.00    +0.056 N 
ATOM      9  O   UNL     1      -2.559   5.068   0.054  0.00  0.00    -0.126 OA
ATOM     10  O   UNL     1      -3.582   3.223   0.054  0.00  0.00    -0.126 OA
ENDBRANCH   6   8
ENDBRANCH   1   2
BRANCH   1  12
ATOM     11  C   UNL     1       2.036   6.494   0.830  0.00  0.00    +0.218 C 
ATOM     12  S   UNL     1       2.391   5.432  -0.597  0.00  0.00    +0.043 S 
ATOM     13  O   UNL     1       3.732   5.621  -1.027  0.00  0.00    -0.155 OA
ATOM     14  O   UNL     1       1.318   5.487  -1.527  0.00  0.00    -0.155 OA
ENDBRANCH   1  12
BRANCH   1  15
ATOM     15  C   UNL     1       3.577   3.274   0.523  0.00  0.00    +0.226 C 
BRANCH  15  16
ATOM     16  C   UNL     1       4.229   2.454  -0.561  0.00  0.00    +0.232 C 
ATOM     17  O   UNL     1       3.721   2.389  -1.660  0.00  0.00    -0.274 OA
ATOM     18  N   UNL     1       5.376   1.794  -0.307  0.00  0.00    -0.311 N 
ATOM     19  H   UNL     1       5.782   1.846   0.572  0.00  0.00    +0.149 HD
BRANCH  18  20
ATOM     20  C   UNL     1       6.010   0.996  -1.361  0.00  0.00    +0.073 C 
ATOM     21  C   UNL     1       5.321  -0.382  -1.427  0.00  0.00    +0.022 C 
ATOM     22  C   UNL     1       5.591  -0.987  -2.778  0.00  0.00    +0.002 C 
ATOM     23  C   UNL     1       6.817  -1.920  -2.771  0.00  0.00    +0.000 C 
ATOM     24  C   UNL     1       7.994  -1.354  -1.953  0.00  0.00    +0.000 C 
ATOM     25  C   UNL     1       8.195   0.120  -2.178  0.00  0.00    +0.002 C 
ATOM     26  C   UNL     1       7.434   0.891  -1.079  0.00  0.00    +0.022 C 
ENDBRANCH  18  20
ENDBRANCH  15  16
ENDBRANCH   1  15
TORSDOF 6
