REMARK  Name = ZINC05923752
REMARK  5 active torsions:
REMARK  status: ('A' for Active; 'I' for Inactive)
REMARK    1  A    between atoms: C_1  and  C_2
REMARK    2  A    between atoms: C_2  and  C_3
REMARK    3  A    between atoms: C_3  and  S_4
REMARK    4  A    between atoms: S_4  and  C_5
REMARK    5  A    between atoms: C_16  and  C_18
REMARK                            x       y       z     vdW  Elec       q    Type
REMARK                         _______ _______ _______ _____ _____    ______ ____
ROOT
ATOM      1  C   UNL     1       4.661   5.568  -1.151  0.00  0.00    +0.171 A 
ATOM      2  N   UNL     1       3.519   6.309  -1.149  0.00  0.00    -0.302 N 
ATOM      3  H   UNL     1       3.548   7.365  -1.456  0.00  0.00    +0.171 HD
ATOM      4  C   UNL     1       2.349   5.751  -0.772  0.00  0.00    +0.258 A 
ATOM      5  O   UNL     1       1.320   6.408  -0.764  0.00  0.00    -0.267 OA
ATOM      6  C   UNL     1       2.339   4.405  -0.389  0.00  0.00    +0.069 A 
ATOM      7  C   UNL     1       3.526   3.694  -0.413  0.00  0.00    +0.135 A 
ATOM      8  N   UNL     1       4.657   4.300  -0.793  0.00  0.00    -0.208 NA
ATOM      9  N   UNL     1       3.535   2.363  -0.045  0.00  0.00    -0.302 N 
ATOM     10  C   UNL     1       2.376   1.635  -0.037  0.00  0.00    +0.017 C 
ATOM     11  C   UNL     1       1.173   2.247   0.003  0.00  0.00    +0.024 C 
ATOM     12  C   UNL     1       1.062   3.750   0.046  0.00  0.00    +0.092 C 
ATOM     13  C   UNL     1      -0.018   1.500   0.010  0.00  0.00    +0.162 C 
ATOM     14  O   UNL     1      -1.085   2.081   0.018  0.00  0.00    -0.292 OA
ATOM     15  C   UNL     1       0.002  -0.004   0.002  0.00  0.00    +0.080 C 
ATOM     16  C   UNL     1       1.296  -0.488   0.666  0.00  0.00    +0.014 C 
ATOM     17  C   UNL     1       2.481   0.130  -0.078  0.00  0.00    +0.051 C 
ATOM     18  H   UNL     1       4.479   1.879   0.246  0.00  0.00    +0.153 HD
ENDROOT
BRANCH  12  19
ATOM     19  C   UNL     1       0.742   4.179   1.455  0.00  0.00    -0.032 A 
ATOM     20  C   UNL     1       1.618   3.908   2.495  0.00  0.00    +0.024 A 
ATOM     21  C   UNL     1       1.293   4.322   3.774  0.00  0.00    +0.111 A 
ATOM     22  N   UNL     1       0.162   4.957   4.010  0.00  0.00    -0.263 NA
ATOM     23  C   UNL     1      -0.697   5.227   3.046  0.00  0.00    +0.111 A 
ATOM     24  C   UNL     1      -0.437   4.849   1.742  0.00  0.00    +0.024 A 
ENDBRANCH  12  19
BRANCH   1  25
ATOM     25  S   UNL     1       6.177   6.320  -1.643  0.00  0.00    -0.088 S 
BRANCH  25  26
ATOM     26  C   UNL     1       7.301   4.914  -1.454  0.00  0.00    +0.077 C 
BRANCH  26  28
ATOM     27  C   UNL     1       9.670   4.152  -1.676  0.00  0.00    +0.004 C 
ATOM     28  C   UNL     1       8.720   5.341  -1.836  0.00  0.00    +0.008 C 
ENDBRANCH  26  28
ENDBRANCH  25  26
ENDBRANCH   1  25
TORSDOF 4
