REMARK  Name = ZINC08819647
REMARK  8 active torsions:
REMARK  status: ('A' for Active; 'I' for Inactive)
REMARK    1  A    between atoms: C_4  and  S_7
REMARK    2  A    between atoms: S_7  and  N_10
REMARK    3  A    between atoms: N_10  and  N_11
REMARK    4  A    between atoms: C_12  and  C_14
REMARK    5  A    between atoms: C_14  and  C_15
REMARK    6  A    between atoms: C_15  and  C_16
REMARK    7  A    between atoms: C_16  and  N_17
REMARK    8  A    between atoms: C_21  and  C_22
REMARK                            x       y       z     vdW  Elec       q    Type
REMARK                         _______ _______ _______ _____ _____    ______ ____
ROOT
ATOM      1  C   UNL     1       5.548   0.483   0.192  0.00  0.00    +0.115 C 
ENDROOT
BRANCH   1   2
ATOM      2  N   UNL     1       6.556   1.544   0.131  0.00  0.00    -0.255 N 
ATOM      3  C   UNL     1       6.836   2.233   1.225  0.00  0.00    +0.258 C 
ATOM      4  O   UNL     1       6.277   2.008   2.282  0.00  0.00    -0.269 OA
ATOM      5  C   UNL     1       7.861   3.288   1.098  0.00  0.00    +0.077 C 
ATOM      6  C   UNL     1       8.345   4.142   2.036  0.00  0.00    +0.028 C 
ATOM      7  S   UNL     1       8.288   3.134  -0.631  0.00  0.00    -0.061 S 
ATOM      8  C   UNL     1       7.181   1.793  -1.038  0.00  0.00    +0.121 C 
ATOM      9  S   UNL     1       6.964   1.014  -2.547  0.00  0.00    -0.027 S 
BRANCH   6  10
ATOM     10  C   UNL     1       9.491   5.005   1.722  0.00  0.00    -0.020 A 
ATOM     11  C   UNL     1      10.200   4.824   0.528  0.00  0.00    +0.012 A 
ATOM     12  C   UNL     1      11.271   5.639   0.234  0.00  0.00    +0.050 A 
ATOM     13  C   UNL     1      11.658   6.634   1.123  0.00  0.00    +0.166 A 
ATOM     14  C   UNL     1      10.960   6.816   2.317  0.00  0.00    +0.167 A 
ATOM     15  C   UNL     1       9.881   6.008   2.617  0.00  0.00    +0.057 A 
ATOM     16  O   UNL     1      11.534   7.847   3.004  0.00  0.00    -0.453 OA
ATOM     17  C   UNL     1      12.836   8.023   2.415  0.00  0.00    +0.466 C 
ATOM     18  O   UNL     1      12.668   7.550   1.065  0.00  0.00    -0.453 OA
ENDBRANCH   6  10
ENDBRANCH   1   2
BRANCH   1  19
ATOM     19  C   UNL     1       4.171   1.069  -0.126  0.00  0.00    +0.029 C 
BRANCH  19  20
ATOM     20  C   UNL     1       3.118  -0.039  -0.062  0.00  0.00    +0.098 C 
BRANCH  20  22
ATOM     21  N   UNL     1       0.674  -0.258  -0.378  0.00  0.00    -0.232 N 
ATOM     22  C   UNL     1       1.761   0.539  -0.375  0.00  0.00    +0.228 C 
ATOM     23  O   UNL     1       1.648   1.720  -0.624  0.00  0.00    -0.274 OA
ATOM     24  H   UNL     1       0.765  -1.203  -0.179  0.00  0.00    +0.171 HD
BRANCH  21  25
ATOM     25  N   UNL     1      -0.586   0.278  -0.674  0.00  0.00    -0.108 NA
ATOM     26  H   UNL     1      -0.925   1.030  -0.165  0.00  0.00    +0.172 HD
BRANCH  25  27
ATOM     27  S   UNL     1      -1.496  -0.373  -1.895  0.00  0.00    +0.074 S 
ATOM     28  O   UNL     1      -2.757   0.280  -1.854  0.00  0.00    -0.152 OA
ATOM     29  O   UNL     1      -0.677  -0.375  -3.056  0.00  0.00    -0.152 OA
BRANCH  27  33
ATOM     30  C   UNL     1      -2.251  -4.709  -0.836  0.00  0.00    +0.000 A 
ATOM     31  C   UNL     1      -3.136  -3.732  -0.420  0.00  0.00    +0.002 A 
ATOM     32  C   UNL     1      -2.905  -2.408  -0.744  0.00  0.00    +0.028 A 
ATOM     33  C   UNL     1      -1.790  -2.061  -1.483  0.00  0.00    +0.107 A 
ATOM     34  C   UNL     1      -0.908  -3.039  -1.904  0.00  0.00    +0.028 A 
ATOM     35  C   UNL     1      -1.135  -4.362  -1.576  0.00  0.00    +0.002 A 
ENDBRANCH  27  33
ENDBRANCH  25  27
ENDBRANCH  21  25
ENDBRANCH  20  22
ENDBRANCH  19  20
ENDBRANCH   1  19
TORSDOF 8
