REMARK  Name = ZINC39655621
REMARK  6 active torsions:
REMARK  status: ('A' for Active; 'I' for Inactive)
REMARK    1  A    between atoms: C_4  and  N_7
REMARK    2  A    between atoms: N_7  and  C_8
REMARK    3  A    between atoms: C_8  and  C_9
REMARK    4  A    between atoms: C_9  and  N_10
REMARK    5  A    between atoms: C_11  and  C_13
REMARK    6  A    between atoms: C_24  and  C_26
REMARK                            x       y       z     vdW  Elec       q    Type
REMARK                         _______ _______ _______ _____ _____    ______ ____
ROOT
ATOM      1  C   UNL     1       6.312  -6.230  -0.093  0.00  0.00    +0.100 C 
ATOM      2  C   UNL     1       5.540  -6.773  -1.316  0.00  0.00    +0.121 C 
ATOM      3  N   UNL     1       6.581  -7.000  -2.345  0.00  0.00    -0.300 N 
ATOM      4  C   UNL     1       7.734  -7.547  -1.590  0.00  0.00    +0.115 C 
ATOM      5  C   UNL     1       7.751  -6.744  -0.274  0.00  0.00    -0.004 C 
ATOM      6  C   UNL     1       8.141  -7.647   0.891  0.00  0.00    -0.010 C 
ATOM      7  C   UNL     1       9.594  -8.098   0.718  0.00  0.00    -0.082 C 
ATOM      8  N   UNL     1      10.471  -6.921   0.670  0.00  0.00    +0.379 N 
ATOM      9  C   UNL     1      10.150  -6.105  -0.507  0.00  0.00    -0.082 C 
ATOM     10  C   UNL     1       8.720  -5.571  -0.386  0.00  0.00    -0.010 C 
ATOM     11  C   UNL     1       6.499  -6.764  -3.670  0.00  0.00    +0.219 C 
ATOM     12  O   UNL     1       7.446  -7.005  -4.389  0.00  0.00    -0.275 OA
ATOM     13  H   UNL     1      10.338  -6.370   1.505  0.00  0.00    -0.086 HD
ATOM     14  H   UNL     1      11.432  -7.222   0.618  0.00  0.00    -0.086 HD
ENDROOT
BRANCH  11  15
ATOM     15  C   UNL     1       5.231  -6.200  -4.257  0.00  0.00    +0.079 C 
ATOM     16  C   UNL     1       5.393  -6.037  -5.774  0.00  0.00    +0.017 C 
ATOM     17  C   UNL     1       4.165  -5.301  -6.315  0.00  0.00    +0.027 C 
ATOM     18  C   UNL     1       2.910  -5.946  -5.806  0.00  0.00    -0.031 C 
ATOM     19  C   UNL     1       2.868  -6.753  -4.794  0.00  0.00    -0.030 C 
ATOM     20  C   UNL     1       4.069  -7.161  -3.991  0.00  0.00    +0.039 C 
ENDBRANCH  11  15
BRANCH   1  22
ATOM     21  N   UNL     1       6.370  -4.055   1.083  0.00  0.00    -0.314 N 
ATOM     22  C   UNL     1       6.290  -4.724  -0.085  0.00  0.00    +0.218 C 
ATOM     23  O   UNL     1       6.201  -4.113  -1.128  0.00  0.00    -0.275 OA
ATOM     24  H   UNL     1       6.441  -4.543   1.918  0.00  0.00    +0.149 HD
BRANCH  21  25
ATOM     25  C   UNL     1       6.348  -2.590   1.091  0.00  0.00    +0.123 C 
BRANCH  25  26
ATOM     26  C   UNL     1       6.451  -2.086   2.532  0.00  0.00    +0.120 C 
BRANCH  26  27
ATOM     27  N   UNL     1       6.429  -0.622   2.540  0.00  0.00    -0.342 N 
ATOM     28  H   UNL     1       6.357  -0.133   1.705  0.00  0.00    +0.146 HD
BRANCH  27  32
ATOM     29  C   UNL     1       6.673   1.444   6.147  0.00  0.00    +0.000 A 
ATOM     30  C   UNL     1       6.572   2.143   4.957  0.00  0.00    +0.002 A 
ATOM     31  C   UNL     1       6.491   1.460   3.759  0.00  0.00    +0.023 A 
ATOM     32  C   UNL     1       6.511   0.072   3.750  0.00  0.00    +0.027 A 
ATOM     33  C   UNL     1       6.614  -0.626   4.947  0.00  0.00    +0.023 A 
ATOM     34  C   UNL     1       6.694   0.062   6.141  0.00  0.00    +0.002 A 
ENDBRANCH  27  32
ENDBRANCH  26  27
ENDBRANCH  25  26
ENDBRANCH  21  25
ENDBRANCH   1  22
TORSDOF 6
