REMARK  Name = ZINC08629193
REMARK  8 active torsions:
REMARK  status: ('A' for Active; 'I' for Inactive)
REMARK    1  A    between atoms: C_2  and  C_3
REMARK    2  A    between atoms: C_3  and  N_4
REMARK    3  A    between atoms: C_8  and  C_10
REMARK    4  A    between atoms: C_10  and  O_11
REMARK    5  A    between atoms: O_11  and  C_12
REMARK    6  A    between atoms: C_12  and  C_14
REMARK    7  A    between atoms: C_27  and  C_28
REMARK    8  A    between atoms: C_31  and  O_34
REMARK                            x       y       z     vdW  Elec       q    Type
REMARK                         _______ _______ _______ _____ _____    ______ ____
ROOT
ATOM      1  C   UNL     1      -1.422   1.760  -0.000  0.00  0.00    +0.073 A 
ATOM      2  C   UNL     1      -2.075   2.174  -1.243  0.00  0.00    +0.015 A 
ATOM      3  C   UNL     1      -1.545   1.847  -2.494  0.00  0.00    +0.011 A 
ATOM      4  C   UNL     1      -2.188   2.255  -3.626  0.00  0.00    +0.001 A 
ATOM      5  C   UNL     1      -3.366   2.994  -3.549  0.00  0.00    +0.002 A 
ATOM      6  C   UNL     1      -3.915   3.320  -2.347  0.00  0.00    +0.028 A 
ATOM      7  C   UNL     1      -3.277   2.921  -1.157  0.00  0.00    +0.072 A 
ATOM      8  N   UNL     1      -3.781   3.239   0.033  0.00  0.00    -0.247 NA
ATOM      9  C   UNL     1      -3.209   2.883   1.179  0.00  0.00    +0.072 A 
ATOM     10  C   UNL     1      -2.019   2.136   1.194  0.00  0.00    -0.007 A 
ATOM     11  C   UNL     1      -1.599   1.875   2.620  0.00  0.00    +0.043 C 
ATOM     12  C   UNL     1      -2.658   2.541   3.509  0.00  0.00    +0.042 C 
ATOM     13  C   UNL     1      -3.651   3.162   2.559  0.00  0.00    -0.021 C 
ATOM     14  C   UNL     1      -4.751   3.852   2.909  0.00  0.00    +0.013 C 
ENDROOT
BRANCH  14  15
ATOM     15  C   UNL     1      -5.145   3.940   4.325  0.00  0.00    -0.024 A 
ATOM     16  C   UNL     1      -6.372   4.511   4.678  0.00  0.00    +0.011 A 
ATOM     17  C   UNL     1      -6.738   4.587   6.003  0.00  0.00    +0.046 A 
ATOM     18  C   UNL     1      -5.886   4.107   6.990  0.00  0.00    +0.117 A 
ATOM     19  C   UNL     1      -4.663   3.544   6.645  0.00  0.00    +0.046 A 
ATOM     20  C   UNL     1      -4.290   3.459   5.322  0.00  0.00    +0.011 A 
BRANCH  18  21
ATOM     21  O   UNL     1      -6.249   4.189   8.296  0.00  0.00    -0.507 OA
ATOM     22  H   UNL     1      -5.972   5.007   8.731  0.00  0.00    +0.292 HD
ENDBRANCH  18  21
ENDBRANCH  14  15
BRANCH   1  23
ATOM     23  C   UNL     1      -0.170   0.975  -0.018  0.00  0.00    +0.341 C 
ATOM     24  O   UNL     1      -0.214  -0.239  -0.023  0.00  0.00    -0.245 OA
BRANCH  23  25
ATOM     25  O   UNL     1       1.020   1.606  -0.033  0.00  0.00    -0.452 OA
BRANCH  25  26
ATOM     26  C   UNL     1       2.208   0.771  -0.055  0.00  0.00    +0.328 C 
BRANCH  26  31
ATOM     27  N   UNL     1       6.985   1.307  -0.126  0.00  0.00    -0.296 N 
ATOM     28  C   UNL     1       5.759   1.867  -0.105  0.00  0.00    +0.306 C 
ATOM     29  O   UNL     1       5.644   3.077  -0.097  0.00  0.00    -0.252 OA
ATOM     30  N   UNL     1       4.661   1.085  -0.092  0.00  0.00    -0.237 N 
ATOM     31  C   UNL     1       3.436   1.645  -0.070  0.00  0.00    +0.258 C 
ATOM     32  O   UNL     1       3.321   2.852  -0.062  0.00  0.00    -0.272 OA
ATOM     33  H   UNL     1       7.077   0.341  -0.133  0.00  0.00    +0.151 HD
ATOM     34  H   UNL     1       4.753   0.120  -0.098  0.00  0.00    +0.159 HD
BRANCH  27  35
ATOM     35  C   UNL     1       8.178   2.157  -0.141  0.00  0.00    +0.132 C 
BRANCH  35  37
ATOM     36  C   UNL     1      10.307   1.451  -1.107  0.00  0.00    +0.005 C 
ATOM     37  C   UNL     1       9.411   1.290  -0.164  0.00  0.00    -0.016 C 
ENDBRANCH  35  37
ENDBRANCH  27  35
ENDBRANCH  26  31
ENDBRANCH  25  26
ENDBRANCH  23  25
ENDBRANCH   1  23
TORSDOF 8
