REMARK  Name = ZINC37657022
REMARK  6 active torsions:
REMARK  status: ('A' for Active; 'I' for Inactive)
REMARK    1  A    between atoms: C_1  and  C_2
REMARK    2  A    between atoms: C_2  and  C_4
REMARK    3  A    between atoms: C_2  and  N_10
REMARK    4  A    between atoms: N_10  and  S_11
REMARK    5  A    between atoms: S_11  and  N_14
REMARK    6  A    between atoms: C_18  and  C_21
REMARK                            x       y       z     vdW  Elec       q    Type
REMARK                         _______ _______ _______ _____ _____    ______ ____
ROOT
ATOM      1  S   UNL     1      -2.332  -0.913   1.436  0.00  0.00    +0.098 S 
ATOM      2  O   UNL     1      -3.523  -1.317   0.774  0.00  0.00    -0.141 OA
ATOM      3  O   UNL     1      -1.659  -1.748   2.369  0.00  0.00    -0.141 OA
ENDROOT
BRANCH   1   4
ATOM      4  N   UNL     1      -2.687   0.496   2.231  0.00  0.00    -0.166 NA
ATOM      5  C   UNL     1      -1.823   0.981   3.316  0.00  0.00    +0.110 C 
ATOM      6  C   UNL     1      -1.409   2.423   3.010  0.00  0.00    +0.018 C 
ATOM      7  C   UNL     1      -2.662   3.271   2.776  0.00  0.00    +0.017 C 
ATOM      8  C   UNL     1      -3.434   2.724   1.573  0.00  0.00    +0.118 C 
ATOM      9  C   UNL     1      -3.867   1.288   1.860  0.00  0.00    +0.125 C 
BRANCH   8  10
ATOM     10  C   UNL     1      -4.649   3.579   1.325  0.00  0.00    +0.360 C 
ATOM     11  O   UNL     1      -4.519   4.765   1.076  0.00  0.00    -0.246 OA
ATOM     12  O   UNL     1      -5.763   3.084   1.372  0.00  0.00    -0.246 OA
ENDBRANCH   8  10
ENDBRANCH   1   4
BRANCH   1  13
ATOM     13  N   UNL     1      -1.234  -0.545   0.253  0.00  0.00    -0.172 NA
ATOM     14  H   UNL     1      -0.337  -0.912   0.292  0.00  0.00    +0.150 HD
BRANCH  13  16
ATOM     15  C   UNL     1      -2.046  -0.512  -2.054  0.00  0.00    +0.031 C 
ATOM     16  C   UNL     1      -1.617   0.335  -0.854  0.00  0.00    +0.111 C 
BRANCH  16  17
ATOM     17  C   UNL     1      -0.442   1.196  -1.241  0.00  0.00    +0.010 A 
ATOM     18  C   UNL     1      -0.422   2.506  -1.585  0.00  0.00    +0.014 A 
ATOM     19  C   UNL     1       0.787   3.097  -1.906  0.00  0.00    +0.028 A 
ATOM     20  C   UNL     1       1.916   2.345  -1.868  0.00  0.00    +0.078 A 
ATOM     21  S   UNL     1       1.284   0.755  -1.359  0.00  0.00    -0.080 S 
ATOM     22 CL   UNL     1       3.551   2.811  -2.217  0.00  0.00    -0.076 Cl
ENDBRANCH  16  17
ENDBRANCH  13  16
ENDBRANCH   1  13
TORSDOF 5
