REMARK  Name = ZINC09168777
REMARK  5 active torsions:
REMARK  status: ('A' for Active; 'I' for Inactive)
REMARK    1  A    between atoms: C_1  and  C_2
REMARK    2  A    between atoms: C_2  and  C_28
REMARK    3  A    between atoms: C_7  and  N_14
REMARK    4  A    between atoms: N_14  and  S_15
REMARK    5  A    between atoms: S_15  and  C_18
REMARK                            x       y       z     vdW  Elec       q    Type
REMARK                         _______ _______ _______ _____ _____    ______ ____
ROOT
ATOM      1  C   UNL     1       3.681   0.801  -6.288  0.00  0.00    +0.024 C 
ATOM      2  C   UNL     1       4.934   1.333  -6.986  0.00  0.00    +0.076 C 
ATOM      3  C   UNL     1       5.988   0.230  -7.045  0.00  0.00    +0.244 C 
ATOM      4  O   UNL     1       6.606   0.062  -5.771  0.00  0.00    -0.489 OA
ATOM      5  C   UNL     1       5.792   0.058  -4.682  0.00  0.00    +0.143 A 
ATOM      6  C   UNL     1       5.492  -1.129  -4.036  0.00  0.00    +0.072 A 
ATOM      7  C   UNL     1       4.652  -1.121  -2.931  0.00  0.00    +0.052 A 
ATOM      8  C   UNL     1       4.108   0.074  -2.477  0.00  0.00    +0.026 A 
ATOM      9  C   UNL     1       4.413   1.260  -3.116  0.00  0.00    +0.029 A 
ATOM     10  C   UNL     1       5.252   1.257  -4.219  0.00  0.00    +0.076 A 
ATOM     11  N   UNL     1       5.571   2.455  -4.877  0.00  0.00    -0.282 N 
ATOM     12  C   UNL     1       5.466   2.518  -6.223  0.00  0.00    +0.226 C 
ATOM     13  O   UNL     1       5.799   3.524  -6.814  0.00  0.00    -0.275 OA
ATOM     14  C   UNL     1       4.576   1.765  -8.410  0.00  0.00    +0.024 C 
ATOM     15  H   UNL     1       5.862   3.229  -4.371  0.00  0.00    +0.155 HD
ENDROOT
BRANCH   7  16
ATOM     16  N   UNL     1       4.346  -2.320  -2.278  0.00  0.00    -0.216 N 
ATOM     17  H   UNL     1       3.470  -2.721  -2.384  0.00  0.00    +0.174 HD
BRANCH  16  18
ATOM     18  S   UNL     1       5.482  -3.054  -1.322  0.00  0.00    +0.072 S 
ATOM     19  O   UNL     1       6.672  -3.135  -2.094  0.00  0.00    -0.150 OA
ATOM     20  O   UNL     1       4.859  -4.201  -0.759  0.00  0.00    -0.150 OA
BRANCH  18  21
ATOM     21  C   UNL     1       5.824  -1.959   0.016  0.00  0.00    +0.112 A 
ATOM     22  C   UNL     1       5.013  -1.963   1.135  0.00  0.00    +0.032 A 
ATOM     23  C   UNL     1       5.277  -1.105   2.186  0.00  0.00    +0.051 A 
ATOM     24  C   UNL     1       6.356  -0.236   2.119  0.00  0.00    +0.162 A 
ATOM     25  C   UNL     1       7.173  -0.234   0.995  0.00  0.00    +0.164 A 
ATOM     26  C   UNL     1       6.902  -1.097  -0.056  0.00  0.00    +0.078 A 
ATOM     27  O   UNL     1       8.242   0.604   0.912  0.00  0.00    -0.485 OA
ATOM     28  C   UNL     1       8.263   1.712   1.819  0.00  0.00    +0.270 C 
ATOM     29  C   UNL     1       7.904   1.195   3.218  0.00  0.00    +0.270 C 
ATOM     30  O   UNL     1       6.599   0.609   3.158  0.00  0.00    -0.485 OA
ENDBRANCH  18  21
ENDBRANCH  16  18
ENDBRANCH   7  16
TORSDOF 3
