REMARK  Name = ZINC39666390
REMARK  8 active torsions:
REMARK  status: ('A' for Active; 'I' for Inactive)
REMARK    1  A    between atoms: C_1  and  C_2
REMARK    2  A    between atoms: C_2  and  C_4
REMARK    3  A    between atoms: C_2  and  O_31
REMARK    4  A    between atoms: C_4  and  N_5
REMARK    5  A    between atoms: C_6  and  C_8
REMARK    6  A    between atoms: C_19  and  C_21
REMARK    7  A    between atoms: C_26  and  C_27
REMARK    8  A    between atoms: O_31  and  C_32
REMARK                            x       y       z     vdW  Elec       q    Type
REMARK                         _______ _______ _______ _____ _____    ______ ____
ROOT
ATOM      1  C   UNL     1      -3.676  -5.668  -0.560  0.00  0.00    +0.100 C 
ATOM      2  C   UNL     1      -2.844  -6.120  -1.782  0.00  0.00    +0.121 C 
ATOM      3  N   UNL     1      -3.771  -6.958  -2.577  0.00  0.00    -0.296 N 
ATOM      4  C   UNL     1      -5.075  -6.260  -2.481  0.00  0.00    +0.115 C 
ATOM      5  C   UNL     1      -5.140  -5.761  -1.023  0.00  0.00    -0.004 C 
ATOM      6  C   UNL     1      -5.800  -4.387  -0.965  0.00  0.00    -0.010 C 
ATOM      7  C   UNL     1      -7.270  -4.515  -1.374  0.00  0.00    -0.082 C 
ATOM      8  N   UNL     1      -7.953  -5.447  -0.468  0.00  0.00    +0.379 N 
ATOM      9  C   UNL     1      -7.372  -6.788  -0.599  0.00  0.00    -0.082 C 
ATOM     10  C   UNL     1      -5.906  -6.757  -0.158  0.00  0.00    -0.010 C 
ATOM     11  C   UNL     1      -3.492  -8.099  -3.238  0.00  0.00    +0.247 C 
ATOM     12  O   UNL     1      -4.345  -8.629  -3.924  0.00  0.00    -0.270 OA
ATOM     13  H   UNL     1      -7.848  -5.127   0.483  0.00  0.00    -0.086 HD
ATOM     14  H   UNL     1      -8.934  -5.482  -0.702  0.00  0.00    -0.086 HD
ENDROOT
BRANCH  11  15
ATOM     15  C   UNL     1      -2.149  -8.707  -3.130  0.00  0.00    +0.049 A 
ATOM     16  C   UNL     1      -1.008  -7.919  -3.293  0.00  0.00    +0.013 A 
ATOM     17  C   UNL     1       0.242  -8.492  -3.191  0.00  0.00    +0.001 A 
ATOM     18  C   UNL     1       0.367  -9.845  -2.926  0.00  0.00    +0.001 A 
ATOM     19  C   UNL     1      -0.759 -10.631  -2.763  0.00  0.00    +0.013 A 
ATOM     20  C   UNL     1      -2.016 -10.069  -2.858  0.00  0.00    +0.067 A 
BRANCH  20  21
ATOM     21  C   UNL     1      -3.242 -10.926  -2.674  0.00  0.00    +0.418 C 
ATOM     22  F   UNL     1      -2.854 -12.245  -2.413  0.00  0.00    -0.166 F 
ATOM     23  F   UNL     1      -3.994 -10.440  -1.599  0.00  0.00    -0.166 F 
ATOM     24  F   UNL     1      -4.015 -10.889  -3.839  0.00  0.00    -0.166 F 
ENDBRANCH  20  21
ENDBRANCH  11  15
BRANCH   1  26
ATOM     25  N   UNL     1      -3.438  -3.846   1.095  0.00  0.00    -0.312 N 
ATOM     26  C   UNL     1      -3.333  -4.250  -0.186  0.00  0.00    +0.218 C 
ATOM     27  O   UNL     1      -2.961  -3.471  -1.039  0.00  0.00    -0.275 OA
ATOM     28  H   UNL     1      -3.736  -4.468   1.777  0.00  0.00    +0.149 HD
BRANCH  25  29
ATOM     29  C   UNL     1      -3.105  -2.466   1.458  0.00  0.00    +0.148 C 
BRANCH  29  31
ATOM     30  C   UNL     1      -2.960  -0.831   3.341  0.00  0.00    +0.053 C 
ATOM     31  C   UNL     1      -3.309  -2.271   2.962  0.00  0.00    +0.187 C 
BRANCH  31  32
ATOM     32  O   UNL     1      -4.673  -2.535   3.295  0.00  0.00    -0.486 OA
BRANCH  32  33
ATOM     33  C   UNL     1      -4.928  -2.964   4.560  0.00  0.00    +0.139 A 
ATOM     34  C   UNL     1      -3.895  -3.064   5.480  0.00  0.00    +0.047 A 
ATOM     35  C   UNL     1      -4.156  -3.501   6.765  0.00  0.00    +0.004 A 
ATOM     36  C   UNL     1      -5.445  -3.837   7.134  0.00  0.00    +0.002 A 
ATOM     37  C   UNL     1      -6.477  -3.739   6.219  0.00  0.00    +0.023 A 
ATOM     38  C   UNL     1      -6.222  -3.297   4.934  0.00  0.00    +0.083 A 
ATOM     39 CL   UNL     1      -7.519  -3.166   3.787  0.00  0.00    -0.080 Cl
ENDBRANCH  32  33
ENDBRANCH  31  32
ENDBRANCH  29  31
ENDBRANCH  25  29
ENDBRANCH   1  26
TORSDOF 7
