REMARK  Name = ZINC35586906
REMARK  9 active torsions:
REMARK  status: ('A' for Active; 'I' for Inactive)
REMARK    1  A    between atoms: C_1  and  C_2
REMARK    2  A    between atoms: C_2  and  C_3
REMARK    3  A    between atoms: C_3  and  N_4
REMARK    4  A    between atoms: N_4  and  C_5
REMARK    5  A    between atoms: C_5  and  C_7
REMARK    6  A    between atoms: C_5  and  C_16
REMARK    7  A    between atoms: C_10  and  O_14
REMARK    8  A    between atoms: C_11  and  C_13
REMARK    9  A    between atoms: O_14  and  C_15
REMARK                            x       y       z     vdW  Elec       q    Type
REMARK                         _______ _______ _______ _____ _____    ______ ____
ROOT
ATOM      1  C   UNL     1      -2.792  -2.511   0.015  0.00  0.00    +0.027 C 
ENDROOT
BRANCH   1   2
ATOM      2  C   UNL     1      -2.772  -4.013   0.131  0.00  0.00    -0.054 A 
ATOM      3  C   UNL     1      -1.826  -4.747  -0.562  0.00  0.00    +0.006 A 
ATOM      4  C   UNL     1      -1.806  -6.124  -0.458  0.00  0.00    +0.046 A 
ATOM      5  C   UNL     1      -2.736  -6.771   0.343  0.00  0.00    +0.123 A 
ATOM      6  C   UNL     1      -3.684  -6.034   1.037  0.00  0.00    -0.009 A 
ATOM      7  C   UNL     1      -3.696  -4.656   0.933  0.00  0.00    +0.009 A 
ATOM      8  C   UNL     1      -4.695  -6.734   1.907  0.00  0.00    +0.047 C 
BRANCH   5   9
ATOM      9  O   UNL     1      -2.719  -8.126   0.446  0.00  0.00    -0.495 OA
ATOM     10  C   UNL     1      -1.715  -8.821  -0.297  0.00  0.00    +0.277 C 
ENDBRANCH   5   9
ENDBRANCH   1   2
BRANCH   1  11
ATOM     11  C   UNL     1      -3.483  -2.115  -1.264  0.00  0.00    +0.097 A 
ATOM     12  C   UNL     1      -4.755  -1.692  -1.372  0.00  0.00    +0.044 A 
ATOM     13  C   UNL     1      -4.986  -1.431  -2.742  0.00  0.00    +0.057 A 
ATOM     14  C   UNL     1      -3.839  -1.710  -3.390  0.00  0.00    +0.170 A 
ATOM     15  O   UNL     1      -2.931  -2.118  -2.489  0.00  0.00    -0.454 OA
ATOM     16 BR   UNL     1      -3.553  -1.547  -5.252  0.00  0.00    -0.008 Br
ENDBRANCH   1  11
BRANCH   1  17
ATOM     17  N   UNL     1      -1.413  -2.002   0.005  0.00  0.00    +0.388 N 
ATOM     18  H   UNL     1      -0.941  -2.328  -0.825  0.00  0.00    -0.084 HD
ATOM     19  H   UNL     1      -0.925  -2.337   0.822  0.00  0.00    -0.084 HD
BRANCH  17  20
ATOM     20  C   UNL     1      -1.433  -0.534   0.013  0.00  0.00    -0.081 C 
BRANCH  20  22
ATOM     21  C   UNL     1      -0.019   1.526   0.010  0.00  0.00    +0.002 C 
ATOM     22  C   UNL     1       0.002  -0.004   0.002  0.00  0.00    -0.022 C 
ENDBRANCH  20  22
ENDBRANCH  17  20
ENDBRANCH   1  17
TORSDOF 6
