REMARK  Name = ZINC63608937
REMARK  6 active torsions:
REMARK  status: ('A' for Active; 'I' for Inactive)
REMARK    1  A    between atoms: C_8  and  C_30
REMARK    2  A    between atoms: N_10  and  C_16
REMARK    3  A    between atoms: C_16  and  N_18
REMARK    4  A    between atoms: N_18  and  C_19
REMARK    5  A    between atoms: C_22  and  O_25
REMARK    6  A    between atoms: O_25  and  C_26
REMARK                            x       y       z     vdW  Elec       q    Type
REMARK                         _______ _______ _______ _____ _____    ______ ____
ROOT
ATOM      1  C   UNL     1      -0.142   1.408   0.274  0.00  0.00    +0.001 A 
ATOM      2  C   UNL     1       1.044   2.106   0.004  0.00  0.00    +0.002 A 
ATOM      3  C   UNL     1       2.205   1.482  -0.286  0.00  0.00    +0.026 A 
ATOM      4  C   UNL     1       2.269   0.063  -0.330  0.00  0.00    +0.043 A 
ATOM      5  N   UNL     1       3.268  -0.759  -0.564  0.00  0.00    -0.375 N 
ATOM      6  C   UNL     1       2.754  -2.127  -0.558  0.00  0.00    +0.135 C 
ATOM      7  C   UNL     1       3.478  -3.005   0.468  0.00  0.00    +0.206 C 
ATOM      8  N   UNL     1       2.657  -4.205   0.695  0.00  0.00    -0.299 N 
ATOM      9  C   UNL     1       1.286  -4.086   1.203  0.00  0.00    +0.112 C 
ATOM     10  C   UNL     1       0.461  -3.212   0.240  0.00  0.00    +0.052 C 
ATOM     11  C   UNL     1       1.303  -2.011  -0.122  0.00  0.00    -0.035 C 
ATOM     12  C   UNL     1       1.030  -0.701  -0.041  0.00  0.00    -0.001 A 
ATOM     13  C   UNL     1      -0.191   0.057   0.262  0.00  0.00    +0.010 A 
ATOM     14  H   UNL     1       4.190  -0.501  -0.715  0.00  0.00    +0.160 HD
ENDROOT
BRANCH   7  15
ATOM     15  C   UNL     1       4.850  -3.411  -0.075  0.00  0.00    +0.410 C 
ATOM     16  F   UNL     1       5.456  -2.307  -0.684  0.00  0.00    -0.169 F 
ATOM     17  F   UNL     1       5.654  -3.861   0.979  0.00  0.00    -0.169 F 
ATOM     18  F   UNL     1       4.696  -4.436  -1.014  0.00  0.00    -0.169 F 
ENDBRANCH   7  15
BRANCH   8  19
ATOM     19  C   UNL     1       3.169  -5.424   0.434  0.00  0.00    +0.138 C 
ATOM     20  S   UNL     1       4.861  -5.675   0.508  0.00  0.00    -0.018 S 
BRANCH  19  21
ATOM     21  N   UNL     1       2.349  -6.445   0.116  0.00  0.00    -0.297 N 
ATOM     22  H   UNL     1       2.307  -6.766  -0.799  0.00  0.00    +0.154 HD
BRANCH  21  23
ATOM     23  C   UNL     1       1.558  -7.043   1.105  0.00  0.00    +0.033 A 
ATOM     24  C   UNL     1       1.704  -6.665   2.433  0.00  0.00    +0.027 A 
ATOM     25  C   UNL     1       0.923  -7.255   3.408  0.00  0.00    +0.048 A 
ATOM     26  C   UNL     1      -0.004  -8.226   3.061  0.00  0.00    +0.130 A 
ATOM     27  C   UNL     1      -0.150  -8.605   1.735  0.00  0.00    +0.048 A 
ATOM     28  C   UNL     1       0.625  -8.011   0.758  0.00  0.00    +0.027 A 
BRANCH  26  29
ATOM     29  O   UNL     1      -0.772  -8.807   4.022  0.00  0.00    -0.406 OA
BRANCH  29  30
ATOM     30  C   UNL     1      -1.707  -9.799   3.593  0.00  0.00    +0.575 C 
ATOM     31  F   UNL     1      -1.021 -10.849   2.974  0.00  0.00    -0.133 F 
ATOM     32  F   UNL     1      -2.408 -10.288   4.701  0.00  0.00    -0.133 F 
ATOM     33  F   UNL     1      -2.607  -9.230   2.686  0.00  0.00    -0.133 F 
ENDBRANCH  29  30
ENDBRANCH  26  29
ENDBRANCH  21  23
ENDBRANCH  19  21
ENDBRANCH   8  19
TORSDOF 6
