REMARK  Name = ZINC43360335
REMARK  4 active torsions:
REMARK  status: ('A' for Active; 'I' for Inactive)
REMARK    1  A    between atoms: C_1  and  C_2
REMARK    2  A    between atoms: C_7  and  N_12
REMARK    3  A    between atoms: C_9  and  C_11
REMARK    4  A    between atoms: C_19  and  C_21
REMARK                            x       y       z     vdW  Elec       q    Type
REMARK                         _______ _______ _______ _____ _____    ______ ____
ROOT
ATOM      1  N   UNL     1      -0.612  -2.548   1.244  0.00  0.00    -0.296 N 
ATOM      2  C   UNL     1      -0.873  -3.776   1.733  0.00  0.00    +0.306 C 
ATOM      3  O   UNL     1       0.032  -4.463   2.165  0.00  0.00    -0.252 OA
ATOM      4  N   UNL     1      -2.137  -4.243   1.742  0.00  0.00    -0.247 N 
ATOM      5  C   UNL     1      -2.407  -5.510   2.247  0.00  0.00    +0.189 A 
ATOM      6  N   UNL     1      -1.575  -6.395   2.760  0.00  0.00    -0.126 NA
ATOM      7  N   UNL     1      -1.972  -7.518   3.183  0.00  0.00    -0.144 NA
ATOM      8  C   UNL     1      -3.255  -7.814   3.110  0.00  0.00    +0.107 A 
ATOM      9  S   UNL     1      -3.884  -6.314   2.370  0.00  0.00    -0.035 S 
ATOM     10  H   UNL     1      -1.333  -2.000   0.898  0.00  0.00    +0.151 HD
ATOM     11  H   UNL     1      -2.859  -3.694   1.397  0.00  0.00    +0.158 HD
ENDROOT
BRANCH   1  17
ATOM     12  C   UNL     1      -0.019   1.526   0.010  0.00  0.00    +0.008 C 
ATOM     13  C   UNL     1       0.002  -0.004   0.002  0.00  0.00    -0.009 C 
ATOM     14  C   UNL     1       0.718  -0.497  -1.257  0.00  0.00    +0.003 C 
ATOM     15  C   UNL     1       0.739  -2.027  -1.265  0.00  0.00    +0.002 C 
ATOM     16  C   UNL     1       1.479  -2.534  -0.026  0.00  0.00    +0.022 C 
ATOM     17  C   UNL     1       0.763  -2.041   1.233  0.00  0.00    +0.078 C 
ATOM     18  C   UNL     1       0.742  -0.511   1.242  0.00  0.00    +0.009 C 
ATOM     19  C   UNL     1       0.026  -0.018   2.500  0.00  0.00    +0.009 C 
ENDBRANCH   1  17
BRANCH   8  20
ATOM     20  C   UNL     1      -3.984  -9.062   3.534  0.00  0.00    +0.047 C 
ATOM     21  C   UNL     1      -3.139 -10.264   3.962  0.00  0.00    +0.011 C 
ATOM     22  C   UNL     1      -3.908  -9.458   5.010  0.00  0.00    +0.011 C 
ENDBRANCH   8  20
TORSDOF 2
