REMARK  Name = ZINC39325457
REMARK  9 active torsions:
REMARK  status: ('A' for Active; 'I' for Inactive)
REMARK    1  A    between atoms: C_1  and  C_2
REMARK    2  A    between atoms: C_2  and  O_3
REMARK    3  A    between atoms: O_3  and  C_4
REMARK    4  A    between atoms: C_11  and  C_16
REMARK    5  A    between atoms: C_16  and  N_17
REMARK    6  A    between atoms: N_17  and  C_18
REMARK    7  A    between atoms: N_17  and  S_26
REMARK    8  A    between atoms: C_18  and  C_19
REMARK    9  A    between atoms: S_26  and  C_29
REMARK                            x       y       z     vdW  Elec       q    Type
REMARK                         _______ _______ _______ _____ _____    ______ ____
ROOT
ATOM      1  N   UNL     1       3.738  -7.683  -4.172  0.00  0.00    -0.171 NA
ENDROOT
BRANCH   1   2
ATOM      2  S   UNL     1       3.769  -8.728  -2.888  0.00  0.00    +0.061 S 
ATOM      3  O   UNL     1       4.477  -9.882  -3.320  0.00  0.00    -0.153 OA
ATOM      4  O   UNL     1       4.168  -7.968  -1.756  0.00  0.00    -0.153 OA
BRANCH   2   5
ATOM      5  C   UNL     1       2.108  -9.238  -2.592  0.00  0.00    +0.109 A 
ATOM      6  C   UNL     1       1.354  -8.605  -1.622  0.00  0.00    +0.032 A 
ATOM      7  C   UNL     1       0.052  -9.003  -1.386  0.00  0.00    +0.051 A 
ATOM      8  C   UNL     1      -0.502 -10.039  -2.124  0.00  0.00    +0.162 A 
ATOM      9  C   UNL     1       0.255 -10.674  -3.101  0.00  0.00    +0.164 A 
ATOM     10  C   UNL     1       1.560 -10.267  -3.334  0.00  0.00    +0.078 A 
ATOM     11  O   UNL     1      -0.272 -11.688  -3.841  0.00  0.00    -0.485 OA
ATOM     12  C   UNL     1      -1.455 -12.310  -3.329  0.00  0.00    +0.270 C 
ATOM     13  C   UNL     1      -2.427 -11.207  -2.889  0.00  0.00    +0.270 C 
ATOM     14  O   UNL     1      -1.785 -10.422  -1.878  0.00  0.00    -0.485 OA
ENDBRANCH   2   5
ENDBRANCH   1   2
BRANCH   1  15
ATOM     15  C   UNL     1       3.710  -6.237  -3.939  0.00  0.00    +0.126 C 
BRANCH  15  23
ATOM     16  C   UNL     1       0.520  -1.455  -2.918  0.00  0.00    +0.121 A 
ATOM     17  C   UNL     1      -0.521  -2.211  -2.366  0.00  0.00    +0.047 A 
ATOM     18  C   UNL     1      -0.582  -3.562  -2.478  0.00  0.00    +0.027 A 
ATOM     19  C   UNL     1       0.420  -4.270  -3.168  0.00  0.00    +0.041 A 
ATOM     20  N   UNL     1       0.347  -5.597  -3.270  0.00  0.00    -0.284 N 
ATOM     21  C   UNL     1       1.253  -6.324  -3.903  0.00  0.00    +0.225 C 
ATOM     22  O   UNL     1       1.132  -7.533  -3.964  0.00  0.00    -0.275 OA
ATOM     23  C   UNL     1       2.439  -5.646  -4.552  0.00  0.00    +0.114 C 
ATOM     24  C   UNL     1       2.527  -4.137  -4.439  0.00  0.00    -0.003 C 
ATOM     25  C   UNL     1       1.529  -3.501  -3.760  0.00  0.00    -0.004 A 
ATOM     26  C   UNL     1       1.534  -2.046  -3.610  0.00  0.00    +0.055 A 
ATOM     27  H   UNL     1      -0.406  -6.051  -2.861  0.00  0.00    +0.155 HD
BRANCH  16  28
ATOM     28  O   UNL     1       0.516  -0.104  -2.767  0.00  0.00    -0.492 OA
BRANCH  28  30
ATOM     29  C   UNL     1      -0.405   1.983  -1.968  0.00  0.00    +0.048 C 
ATOM     30  C   UNL     1      -0.571   0.463  -2.033  0.00  0.00    +0.225 C 
ENDBRANCH  28  30
ENDBRANCH  16  28
ENDBRANCH  15  23
ENDBRANCH   1  15
BRANCH   1  31
ATOM     31  C   UNL     1       3.740  -8.204  -5.541  0.00  0.00    +0.144 C 
BRANCH  31  32
ATOM     32  C   UNL     1       5.152  -8.238  -6.065  0.00  0.00    -0.031 A 
ATOM     33  C   UNL     1       5.672  -7.139  -6.723  0.00  0.00    +0.008 A 
ATOM     34  C   UNL     1       6.967  -7.169  -7.203  0.00  0.00    +0.038 A 
ATOM     35  C   UNL     1       7.745  -8.300  -7.024  0.00  0.00    +0.123 A 
ATOM     36  C   UNL     1       7.224  -9.400  -6.364  0.00  0.00    +0.038 A 
ATOM     37  C   UNL     1       5.930  -9.366  -5.881  0.00  0.00    +0.008 A 
ATOM     38  F   UNL     1       9.012  -8.330  -7.493  0.00  0.00    -0.205 F 
ENDBRANCH  31  32
ENDBRANCH   1  31
TORSDOF 8
