REMARK  Name = ZINC04973410
REMARK  6 active torsions:
REMARK  status: ('A' for Active; 'I' for Inactive)
REMARK    1  A    between atoms: C_1  and  C_2
REMARK    2  A    between atoms: C_5  and  C_8
REMARK    3  A    between atoms: C_8  and  N_9
REMARK    4  A    between atoms: C_10  and  C_12
REMARK    5  A    between atoms: C_12  and  N_13
REMARK    6  A    between atoms: C_17  and  C_30
REMARK                            x       y       z     vdW  Elec       q    Type
REMARK                         _______ _______ _______ _____ _____    ______ ____
ROOT
ATOM      1  N   UNL     1       2.466   3.649  -0.002  0.00  0.00    -0.325 N 
ATOM      2  C   UNL     1       1.164   3.196   0.008  0.00  0.00    +0.052 A 
ATOM      3  C   UNL     1      -0.063   3.857   0.024  0.00  0.00    +0.027 A 
ATOM      4  C   UNL     1      -1.233   3.131   0.032  0.00  0.00    +0.005 A 
ATOM      5  C   UNL     1      -1.204   1.744   0.017  0.00  0.00    -0.050 A 
ATOM      6  C   UNL     1      -0.013   1.076   0.008  0.00  0.00    +0.015 A 
ATOM      7  C   UNL     1       1.186   1.791   0.000  0.00  0.00    +0.026 A 
ATOM      8  C   UNL     1       2.600   1.397  -0.015  0.00  0.00    +0.105 A 
ATOM      9  C   UNL     1       3.344   2.575  -0.016  0.00  0.00    +0.134 A 
ATOM     10  C   UNL     1       4.746   2.487  -0.030  0.00  0.00    +0.279 A 
ATOM     11  O   UNL     1       5.419   3.504  -0.031  0.00  0.00    -0.265 OA
ATOM     12  N   UNL     1       5.360   1.261  -0.042  0.00  0.00    -0.285 N 
ATOM     13  C   UNL     1       4.555   0.159  -0.041  0.00  0.00    +0.172 A 
ATOM     14  N   UNL     1       3.244   0.221  -0.028  0.00  0.00    -0.221 NA
ATOM     15  S   UNL     1       5.628  -1.262  -0.059  0.00  0.00    -0.086 S 
ATOM     16  C   UNL     1       7.248  -0.410  -0.069  0.00  0.00    +0.099 C 
ATOM     17  C   UNL     1       6.809   1.061  -0.057  0.00  0.00    +0.138 C 
ATOM     18  C   UNL     1      -2.497   0.969   0.019  0.00  0.00    +0.044 C 
ENDROOT
BRANCH   1  19
ATOM     19  C   UNL     1       2.864   5.059   0.002  0.00  0.00    +0.218 C 
BRANCH  19  21
ATOM     20  N   UNL     1       3.376   6.808   1.675  0.00  0.00    -0.310 N 
ATOM     21  C   UNL     1       3.013   5.534   1.425  0.00  0.00    +0.233 C 
ATOM     22  O   UNL     1       2.808   4.771   2.344  0.00  0.00    -0.274 OA
ATOM     23  H   UNL     1       3.540   7.419   0.939  0.00  0.00    +0.149 HD
BRANCH  20  24
ATOM     24  C   UNL     1       3.521   7.270   3.057  0.00  0.00    +0.139 C 
BRANCH  24  29
ATOM     25  C   UNL     1       5.091  12.832   3.074  0.00  0.00    +0.044 C 
ATOM     26  C   UNL     1       4.682  11.381   3.070  0.00  0.00    -0.050 A 
ATOM     27  C   UNL     1       3.342  11.041   3.080  0.00  0.00    +0.003 A 
ATOM     28  C   UNL     1       2.966   9.711   3.076  0.00  0.00    +0.005 A 
ATOM     29  C   UNL     1       3.930   8.721   3.061  0.00  0.00    -0.030 A 
ATOM     30  C   UNL     1       5.270   9.061   3.057  0.00  0.00    +0.005 A 
ATOM     31  C   UNL     1       5.646  10.391   3.056  0.00  0.00    +0.003 A 
ENDBRANCH  24  29
ENDBRANCH  20  24
ENDBRANCH  19  21
ENDBRANCH   1  19
TORSDOF 4
