REMARK  Name = ZINC38132029
REMARK  6 active torsions:
REMARK  status: ('A' for Active; 'I' for Inactive)
REMARK    1  A    between atoms: C_1  and  N_2
REMARK    2  A    between atoms: N_2  and  C_3
REMARK    3  A    between atoms: C_3  and  C_5
REMARK    4  A    between atoms: C_3  and  C_15
REMARK    5  A    between atoms: C_5  and  C_6
REMARK    6  A    between atoms: C_11  and  N_12
REMARK                            x       y       z     vdW  Elec       q    Type
REMARK                         _______ _______ _______ _____ _____    ______ ____
ROOT
ATOM      1  C   UNL     1      -1.395  -0.229   0.122  0.00  0.00    -0.034 C 
ENDROOT
BRANCH   1   2
ATOM      2  C   UNL     1      -1.487  -1.579   0.785  0.00  0.00    -0.024 A 
ATOM      3  C   UNL     1      -0.818  -2.662   0.245  0.00  0.00    +0.044 A 
ATOM      4  C   UNL     1      -0.903  -3.901   0.854  0.00  0.00    +0.020 A 
ATOM      5  C   UNL     1      -1.657  -4.057   2.002  0.00  0.00    +0.003 A 
ATOM      6  C   UNL     1      -2.326  -2.975   2.542  0.00  0.00    +0.020 A 
ATOM      7  C   UNL     1      -2.237  -1.734   1.937  0.00  0.00    +0.044 A 
ATOM      8 CL   UNL     1      -3.072  -0.374   2.620  0.00  0.00    -0.083 Cl
ATOM      9 CL   UNL     1       0.129  -2.467  -1.197  0.00  0.00    -0.083 Cl
ENDBRANCH   1   2
BRANCH   1  11
ATOM     10  C   UNL     1       0.118   1.486  -0.602  0.00  0.00    -0.100 C 
ATOM     11  N   UNL     1       0.015   0.102  -0.122  0.00  0.00    +0.382 N 
ATOM     12  H   UNL     1       0.392  -0.524  -0.817  0.00  0.00    -0.085 HD
ATOM     13  H   UNL     1       0.537   0.005   0.737  0.00  0.00    -0.085 HD
ENDBRANCH   1  11
BRANCH   1  14
ATOM     14  C   UNL     1      -2.148  -0.262  -1.210  0.00  0.00    +0.026 C 
BRANCH  14  15
ATOM     15  C   UNL     1      -3.607  -0.541  -0.955  0.00  0.00    -0.018 A 
ATOM     16  C   UNL     1      -4.114  -1.811  -1.157  0.00  0.00    +0.006 A 
ATOM     17  C   UNL     1      -5.452  -2.067  -0.923  0.00  0.00    +0.000 A 
ATOM     18  C   UNL     1      -6.284  -1.052  -0.486  0.00  0.00    +0.002 A 
ATOM     19  C   UNL     1      -5.777   0.217  -0.283  0.00  0.00    +0.033 A 
ATOM     20  C   UNL     1      -4.438   0.472  -0.513  0.00  0.00    +0.129 A 
BRANCH  20  21
ATOM     21  N   UNL     1      -3.894   1.831  -0.290  0.00  0.00    +0.057 N 
ATOM     22  O   UNL     1      -4.604   2.700   0.161  0.00  0.00    -0.126 OA
ATOM     23  O   UNL     1      -2.740   2.072  -0.559  0.00  0.00    -0.126 OA
ENDBRANCH  20  21
ENDBRANCH  14  15
ENDBRANCH   1  14
TORSDOF 5
