REMARK  Name = ZINC05798873
REMARK  8 active torsions:
REMARK  status: ('A' for Active; 'I' for Inactive)
REMARK    1  A    between atoms: C_1  and  C_2
REMARK    2  A    between atoms: C_5  and  C_8
REMARK    3  A    between atoms: C_10  and  C_31
REMARK    4  A    between atoms: C_11  and  N_30
REMARK    5  A    between atoms: C_18  and  C_21
REMARK    6  A    between atoms: C_24  and  N_27
REMARK    7  A    between atoms: N_27  and  C_28
REMARK    8  A    between atoms: N_27  and  C_29
REMARK                            x       y       z     vdW  Elec       q    Type
REMARK                         _______ _______ _______ _____ _____    ______ ____
ROOT
ATOM      1  C   UNL     1       0.069  -4.272  -0.037  0.00  0.00    +0.101 C 
ATOM      2  C   UNL     1      -1.153  -4.802   0.658  0.00  0.00    +0.098 C 
ATOM      3  C   UNL     1      -1.072  -5.282   1.923  0.00  0.00    +0.198 C 
ATOM      4  O   UNL     1       0.096  -5.294   2.586  0.00  0.00    -0.445 OA
ATOM      5  C   UNL     1       1.261  -5.242   1.912  0.00  0.00    +0.115 C 
ATOM      6  C   UNL     1       1.316  -4.760   0.660  0.00  0.00    +0.046 C 
ATOM      7  C   UNL     1       2.536  -4.693  -0.039  0.00  0.00    +0.164 C 
ATOM      8  O   UNL     1       2.550  -4.265  -1.176  0.00  0.00    -0.292 OA
ATOM      9  C   UNL     1       3.824  -5.143   0.595  0.00  0.00    +0.088 C 
ATOM     10  C   UNL     1       3.717  -4.965   2.114  0.00  0.00    +0.034 C 
ATOM     11  C   UNL     1       2.506  -5.745   2.603  0.00  0.00    +0.083 C 
ENDROOT
BRANCH   1  16
ATOM     12  C   UNL     1      -0.038   1.505   0.051  0.00  0.00    +0.044 C 
ATOM     13  C   UNL     1      -0.010  -0.002   0.028  0.00  0.00    -0.050 A 
ATOM     14  C   UNL     1       0.003  -0.674  -1.179  0.00  0.00    +0.003 A 
ATOM     15  C   UNL     1       0.029  -2.056  -1.200  0.00  0.00    +0.005 A 
ATOM     16  C   UNL     1       0.042  -2.765  -0.014  0.00  0.00    -0.035 A 
ATOM     17  C   UNL     1       0.030  -2.093   1.194  0.00  0.00    +0.005 A 
ATOM     18  C   UNL     1       0.008  -0.711   1.215  0.00  0.00    +0.003 A 
ENDBRANCH   1  16
BRANCH  10  19
ATOM     19  C   UNL     1       4.965  -5.493   2.774  0.00  0.00    -0.043 A 
ATOM     20  C   UNL     1       5.322  -6.819   2.614  0.00  0.00    +0.006 A 
ATOM     21  C   UNL     1       6.464  -7.306   3.218  0.00  0.00    +0.023 A 
ATOM     22  C   UNL     1       7.255  -6.462   3.987  0.00  0.00    +0.029 A 
ATOM     23  C   UNL     1       6.894  -5.130   4.146  0.00  0.00    +0.023 A 
ATOM     24  C   UNL     1       5.753  -4.648   3.534  0.00  0.00    +0.006 A 
BRANCH  22  25
ATOM     25  N   UNL     1       8.411  -6.951   4.600  0.00  0.00    -0.336 N 
ATOM     26  C   UNL     1       8.725  -8.381   4.537  0.00  0.00    +0.129 C 
ATOM     27  C   UNL     1       9.310  -6.034   5.305  0.00  0.00    +0.129 C 
ENDBRANCH  22  25
ENDBRANCH  10  19
BRANCH   3  28
ATOM     28  N   UNL     1      -2.202  -5.762   2.537  0.00  0.00    -0.328 N 
ATOM     29  H   UNL     1      -3.050  -5.756   2.066  0.00  0.00    +0.145 HD
ATOM     30  H   UNL     1      -2.153  -6.107   3.442  0.00  0.00    +0.145 HD
ENDBRANCH   3  28
BRANCH   2  31
ATOM     31  C   UNL     1      -2.414  -4.801  -0.022  0.00  0.00    +0.101 C 
ATOM     32  N   UNL     1      -3.414  -4.799  -0.561  0.00  0.00    -0.191 NA
ENDBRANCH   2  31
TORSDOF 5
