REMARK  Name = ZINC40568289
REMARK  5 active torsions:
REMARK  status: ('A' for Active; 'I' for Inactive)
REMARK    1  A    between atoms: C_9  and  C_12
REMARK    2  A    between atoms: C_12  and  N_13
REMARK    3  A    between atoms: C_14  and  C_16
REMARK    4  A    between atoms: C_17  and  N_34
REMARK    5  A    between atoms: C_21  and  C_25
REMARK                            x       y       z     vdW  Elec       q    Type
REMARK                         _______ _______ _______ _____ _____    ______ ____
ROOT
ATOM      1  C   UNL     1       8.331  -2.020   1.426  0.00  0.00    +0.097 A 
ATOM      2  C   UNL     1       9.680  -2.242   1.246  0.00  0.00    +0.054 A 
ATOM      3  C   UNL     1      10.619  -1.486   2.058  0.00  0.00    +0.033 A 
ATOM      4  C   UNL     1      12.042  -1.548   2.046  0.00  0.00    -0.031 A 
ATOM      5  C   UNL     1      12.749  -0.751   2.882  0.00  0.00    -0.017 A 
ATOM      6  C   UNL     1      12.072   0.120   3.759  0.00  0.00    +0.082 A 
ATOM      7  N   UNL     1      10.747   0.174   3.771  0.00  0.00    -0.239 NA
ATOM      8  C   UNL     1      10.030  -0.580   2.969  0.00  0.00    +0.112 A 
ATOM      9  S   UNL     1       8.286  -0.772   2.698  0.00  0.00    -0.062 S 
ATOM     10  C   UNL     1      14.256  -0.745   2.915  0.00  0.00    +0.037 C 
ATOM     11  C   UNL     1      14.812  -2.008   2.261  0.00  0.00    +0.005 C 
ATOM     12  C   UNL     1      14.157  -2.169   0.884  0.00  0.00    +0.005 C 
ATOM     13  C   UNL     1      12.684  -2.518   1.092  0.00  0.00    +0.036 C 
ENDROOT
BRANCH   6  14
ATOM     14  C   UNL     1      12.846   0.981   4.673  0.00  0.00    +0.038 A 
ATOM     15  C   UNL     1      12.610   1.273   5.992  0.00  0.00    +0.017 A 
ATOM     16  C   UNL     1      13.480   2.112   6.649  0.00  0.00    +0.008 A 
ATOM     17  C   UNL     1      14.542   2.625   5.974  0.00  0.00    +0.046 A 
ATOM     18  S   UNL     1      14.338   1.908   4.352  0.00  0.00    -0.095 S 
ENDBRANCH   6  14
BRANCH   1  20
ATOM     19  N   UNL     1       5.979  -2.280   1.065  0.00  0.00    -0.307 N 
ATOM     20  C   UNL     1       7.243  -2.631   0.757  0.00  0.00    +0.253 C 
ATOM     21  O   UNL     1       7.450  -3.475  -0.096  0.00  0.00    -0.270 OA
ATOM     22  H   UNL     1       5.814  -1.608   1.745  0.00  0.00    +0.149 HD
BRANCH  19  23
ATOM     23  C   UNL     1       4.854  -2.913   0.373  0.00  0.00    +0.152 C 
BRANCH  23  32
ATOM     24  C   UNL     1      -0.266   0.831   0.963  0.00  0.00    +0.004 A 
ATOM     25  C   UNL     1       0.874   1.606   0.854  0.00  0.00    +0.004 A 
ATOM     26  C   UNL     1       2.111   1.005   0.718  0.00  0.00    +0.049 A 
ATOM     27  C   UNL     1       2.212  -0.378   0.691  0.00  0.00    +0.163 A 
ATOM     28  C   UNL     1       1.067  -1.157   0.802  0.00  0.00    +0.162 A 
ATOM     29  C   UNL     1      -0.172  -0.547   0.937  0.00  0.00    +0.049 A 
ATOM     30  O   UNL     1       1.144  -2.516   0.785  0.00  0.00    -0.485 OA
ATOM     31  C   UNL     1       2.355  -3.085   0.276  0.00  0.00    +0.275 C 
ATOM     32  C   UNL     1       3.539  -2.339   0.906  0.00  0.00    +0.228 C 
ATOM     33  O   UNL     1       3.437  -0.955   0.552  0.00  0.00    -0.480 OA
ENDBRANCH  23  32
ENDBRANCH  19  23
ENDBRANCH   1  20
BRANCH   2  34
ATOM     34  N   UNL     1      10.130  -3.166   0.312  0.00  0.00    -0.356 N 
ATOM     35  H   UNL     1       9.601  -3.353  -0.479  0.00  0.00    +0.142 HD
ATOM     36  H   UNL     1      10.974  -3.624   0.451  0.00  0.00    +0.142 HD
ENDBRANCH   2  34
TORSDOF 5
