REMARK  Name = ZINC67004035
REMARK  4 active torsions:
REMARK  status: ('A' for Active; 'I' for Inactive)
REMARK    1  A    between atoms: C_3  and  C_6
REMARK    2  A    between atoms: C_6  and  N_7
REMARK    3  A    between atoms: N_13  and  C_16
REMARK    4  A    between atoms: C_16  and  C_17
REMARK                            x       y       z     vdW  Elec       q    Type
REMARK                         _______ _______ _______ _____ _____    ______ ____
ROOT
ATOM      1  N   UNL     1       6.297   2.752   0.559  0.00  0.00    -0.295 N 
ATOM      2  C   UNL     1       5.483   2.450   1.589  0.00  0.00    +0.303 C 
ATOM      3  O   UNL     1       4.328   2.135   1.380  0.00  0.00    -0.253 OA
ATOM      4  N   UNL     1       5.949   2.499   2.853  0.00  0.00    -0.283 N 
ATOM      5  C   UNL     1       5.114   2.064   3.983  0.00  0.00    +0.124 C 
ATOM      6  C   UNL     1       5.917   1.067   4.826  0.00  0.00    +0.104 C 
ATOM      7  N   UNL     1       7.203   1.670   5.200  0.00  0.00    -0.294 NA
ATOM      8  C   UNL     1       8.023   1.955   4.014  0.00  0.00    +0.104 C 
ATOM      9  C   UNL     1       7.309   2.983   3.138  0.00  0.00    +0.124 C 
ATOM     10  H   UNL     1       7.196   3.075   0.729  0.00  0.00    +0.151 HD
ENDROOT
BRANCH   1  11
ATOM     11  C   UNL     1       5.825   2.592  -0.819  0.00  0.00    +0.148 C 
BRANCH  11  14
ATOM     12  C   UNL     1       8.801   2.820  -3.186  0.00  0.00    +0.008 A 
ATOM     13  C   UNL     1       7.895   2.231  -2.324  0.00  0.00    +0.013 A 
ATOM     14  C   UNL     1       6.919   2.994  -1.775  0.00  0.00    +0.007 A 
ATOM     15  S   UNL     1       7.264   4.598  -2.478  0.00  0.00    -0.100 S 
ATOM     16  C   UNL     1       8.686   4.143  -3.457  0.00  0.00    +0.045 A 
ENDBRANCH  11  14
ENDBRANCH   1  11
BRANCH   7  17
ATOM     17  C   UNL     1       7.929   0.816   6.149  0.00  0.00    +0.141 C 
BRANCH  17  18
ATOM     18  C   UNL     1       9.115   1.568   6.696  0.00  0.00    +0.074 A 
ATOM     19  C   UNL     1       9.142   2.262   7.855  0.00  0.00    +0.117 A 
ATOM     20  N   UNL     1      10.398   2.790   7.981  0.00  0.00    -0.305 N 
ATOM     21  C   UNL     1      10.980   3.567   8.940  0.00  0.00    +0.112 A 
ATOM     22  C   UNL     1      12.267   3.960   8.819  0.00  0.00    +0.058 A 
ATOM     23  C   UNL     1      13.023   3.572   7.699  0.00  0.00    +0.025 A 
ATOM     24  C   UNL     1      12.454   2.797   6.737  0.00  0.00    +0.048 A 
ATOM     25  C   UNL     1      11.111   2.396   6.879  0.00  0.00    +0.138 A 
ATOM     26  N   UNL     1      10.316   1.654   6.120  0.00  0.00    -0.231 NA
ATOM     27 CL   UNL     1      12.989   4.949  10.049  0.00  0.00    -0.082 Cl
ENDBRANCH  17  18
ENDBRANCH   7  17
TORSDOF 4
