REMARK  Name = ZINC39467084
REMARK  7 active torsions:
REMARK  status: ('A' for Active; 'I' for Inactive)
REMARK    1  A    between atoms: C_1  and  C_2
REMARK    2  A    between atoms: C_2  and  O_3
REMARK    3  A    between atoms: O_3  and  C_4
REMARK    4  A    between atoms: C_16  and  C_17
REMARK    5  A    between atoms: C_17  and  C_18
REMARK    6  A    between atoms: P_26  and  C_29
REMARK    7  A    between atoms: C_34  and  O_35
REMARK                            x       y       z     vdW  Elec       q    Type
REMARK                         _______ _______ _______ _____ _____    ______ ____
ROOT
ATOM      1  C   UNL     1       0.802  -1.824   1.306  0.00  0.00    +0.120 C 
ATOM      2  C   UNL     1       0.280  -2.646   0.386  0.00  0.00    +0.021 C 
ATOM      3  C   UNL     1       0.431  -4.130   0.575  0.00  0.00    +0.008 C 
ATOM      4  C   UNL     1       0.307  -4.881  -0.745  0.00  0.00    -0.046 C 
ATOM      5  N   UNL     1       0.419  -6.331  -0.506  0.00  0.00    +0.398 N 
ATOM      6  C   UNL     1       1.706  -6.676   0.096  0.00  0.00    -0.020 C 
ATOM      7  C   UNL     1       1.923  -5.916   1.413  0.00  0.00    -0.003 C 
ATOM      8  C   UNL     1       1.823  -4.416   1.153  0.00  0.00    +0.016 C 
ATOM      9  C   UNL     1       1.996  -3.624   2.420  0.00  0.00    -0.016 C 
ATOM     10  C   UNL     1       1.502  -2.390   2.476  0.00  0.00    -0.005 C 
ATOM     11  C   UNL     1       1.784  -8.169   0.437  0.00  0.00    +0.157 C 
ATOM     12  O   UNL     1       1.665  -8.941  -0.772  0.00  0.00    -0.316 OA
ATOM     13  P   UNL     1       0.427  -8.597  -1.771  0.00  0.00    +0.291 P 
ATOM     14  O   UNL     1      -0.816  -9.238  -1.286  0.00  0.00    -0.269 OA
ATOM     15  N   UNL     1       0.287  -6.937  -1.738  0.00  0.00    -0.288 NA
ATOM     16  H   UNL     1       0.106  -6.417  -2.537  0.00  0.00    +0.111 HD
ATOM     17  H   UNL     1      -0.330  -6.631   0.099  0.00  0.00    -0.055 HD
ENDROOT
BRANCH  13  18
ATOM     18  C   UNL     1       0.804  -9.155  -3.455  0.00  0.00    +0.091 A 
ATOM     19  C   UNL     1       1.444  -8.306  -4.338  0.00  0.00    +0.018 A 
ATOM     20  C   UNL     1       1.732  -8.730  -5.621  0.00  0.00    +0.001 A 
ATOM     21  C   UNL     1       1.380 -10.005  -6.026  0.00  0.00    +0.004 A 
ATOM     22  C   UNL     1       0.741 -10.858  -5.147  0.00  0.00    +0.046 A 
ATOM     23  C   UNL     1       0.456 -10.436  -3.856  0.00  0.00    +0.131 A 
BRANCH  23  24
ATOM     24  O   UNL     1      -0.167 -11.276  -2.988  0.00  0.00    -0.506 OA
ATOM     25  H   UNL     1      -1.132 -11.219  -3.011  0.00  0.00    +0.292 HD
ENDBRANCH  23  24
ENDBRANCH  13  18
BRANCH   1  26
ATOM     26  O   UNL     1       0.693  -0.477   1.160  0.00  0.00    -0.492 OA
BRANCH  26  28
ATOM     27  C   UNL     1      -0.019   1.526   0.010  0.00  0.00    +0.048 C 
ATOM     28  C   UNL     1       0.002  -0.004   0.002  0.00  0.00    +0.225 C 
ENDBRANCH  26  28
ENDBRANCH   1  26
BRANCH  10  29
ATOM     29  C   UNL     1       1.654  -1.574   3.734  0.00  0.00    +0.073 C 
BRANCH  29  30
ATOM     30  C   UNL     1       2.869  -0.691   3.617  0.00  0.00    -0.043 A 
ATOM     31  C   UNL     1       4.103  -1.153   4.037  0.00  0.00    +0.004 A 
ATOM     32  C   UNL     1       5.218  -0.343   3.929  0.00  0.00    +0.000 A 
ATOM     33  C   UNL     1       5.099   0.929   3.401  0.00  0.00    +0.000 A 
ATOM     34  C   UNL     1       3.866   1.390   2.980  0.00  0.00    +0.000 A 
ATOM     35  C   UNL     1       2.752   0.579   3.083  0.00  0.00    +0.004 A 
ENDBRANCH  29  30
ENDBRANCH  10  29
TORSDOF 6
