REMARK  Name = ZINC39227640
REMARK  12 active torsions:
REMARK  status: ('A' for Active; 'I' for Inactive)
REMARK    1  A    between atoms: C_1  and  C_2
REMARK    2  A    between atoms: C_2  and  C_3
REMARK    3  A    between atoms: C_2  and  C_4
REMARK    4  A    between atoms: C_4  and  N_5
REMARK    5  A    between atoms: N_5  and  C_6
REMARK    6  A    between atoms: C_6  and  C_7
REMARK    7  A    between atoms: C_7  and  C_8
REMARK    8  A    between atoms: C_7  and  C_9
REMARK    9  A    between atoms: C_10  and  C_12
REMARK   10  A    between atoms: C_15  and  C_18
REMARK   11  A    between atoms: C_24  and  O_35
REMARK   12  A    between atoms: N_31  and  C_34
REMARK                            x       y       z     vdW  Elec       q    Type
REMARK                         _______ _______ _______ _____ _____    ______ ____
ROOT
ATOM      1  C   UNL     1      -2.885   2.462   7.907  0.00  0.00    -0.017 A 
ATOM      2  C   UNL     1      -3.837   1.565   8.392  0.00  0.00    +0.012 A 
ATOM      3  C   UNL     1      -4.561   1.879   9.520  0.00  0.00    +0.046 A 
ATOM      4  C   UNL     1      -4.349   3.088  10.180  0.00  0.00    +0.127 A 
ATOM      5  C   UNL     1      -3.407   3.982   9.697  0.00  0.00    +0.023 A 
ATOM      6  C   UNL     1      -2.672   3.668   8.569  0.00  0.00    +0.018 A 
ATOM      7  C   UNL     1      -3.159   5.306  10.376  0.00  0.00    +0.152 C 
ATOM      8  C   UNL     1      -3.715   5.266  11.802  0.00  0.00    +0.084 C 
ATOM      9  C   UNL     1      -5.139   4.703  11.750  0.00  0.00    +0.110 C 
ATOM     10  O   UNL     1      -5.081   3.353  11.293  0.00  0.00    -0.485 OA
ATOM     11  C   UNL     1      -5.987   5.540  10.791  0.00  0.00    +0.029 C 
ATOM     12  C   UNL     1      -7.428   5.022  10.808  0.00  0.00    -0.075 C 
ATOM     13  N   UNL     1      -7.972   5.123  12.167  0.00  0.00    +0.378 N 
ATOM     14  C   UNL     1      -7.207   4.262  13.076  0.00  0.00    -0.075 C 
ATOM     15  C   UNL     1      -5.758   4.750  13.149  0.00  0.00    +0.029 C 
ATOM     16  C   UNL     1      -9.379   4.699  12.162  0.00  0.00    -0.096 C 
ATOM     17  H   UNL     1      -7.913   6.080  12.482  0.00  0.00    -0.082 HD
ENDROOT
BRANCH   1  21
ATOM     18  C   UNL     1      -0.634   1.508   4.425  0.00  0.00    +0.037 A 
ATOM     19  C   UNL     1      -1.590   0.611   4.906  0.00  0.00    +0.013 A 
ATOM     20  C   UNL     1      -2.318   0.920   6.032  0.00  0.00    +0.009 A 
ATOM     21  C   UNL     1      -2.101   2.129   6.694  0.00  0.00    -0.018 A 
ATOM     22  C   UNL     1      -1.146   3.027   6.214  0.00  0.00    +0.009 A 
ATOM     23  C   UNL     1      -0.413   2.717   5.091  0.00  0.00    +0.013 A 
BRANCH  18  25
ATOM     24  N   UNL     1      -0.422   0.478   2.215  0.00  0.00    -0.297 N 
ATOM     25  C   UNL     1       0.148   1.177   3.216  0.00  0.00    +0.247 C 
ATOM     26  O   UNL     1       1.306   1.536   3.124  0.00  0.00    -0.270 OA
BRANCH  24  27
ATOM     27  C   UNL     1       0.354   0.147   1.018  0.00  0.00    +0.111 C 
BRANCH  27  29
ATOM     28  C   UNL     1       0.818   2.553   0.526  0.00  0.00    +0.009 C 
ATOM     29  C   UNL     1       0.197   1.264  -0.017  0.00  0.00    +0.000 C 
ATOM     30  C   UNL     1       0.904   0.863  -1.312  0.00  0.00    +0.009 C 
ENDBRANCH  27  29
ENDBRANCH  24  27
BRANCH  24  31
ATOM     31  C   UNL     1      -1.819   0.048   2.325  0.00  0.00    +0.111 C 
BRANCH  31  32
ATOM     32  C   UNL     1      -1.869  -1.415   2.769  0.00  0.00    +0.000 C 
ATOM     33  C   UNL     1      -3.317  -1.809   3.063  0.00  0.00    +0.009 C 
ATOM     34  C   UNL     1      -1.313  -2.305   1.656  0.00  0.00    +0.009 C 
ENDBRANCH  31  32
ENDBRANCH  24  31
ENDBRANCH  18  25
ENDBRANCH   1  21
BRANCH   7  35
ATOM     35  O   UNL     1      -1.754   5.561  10.421  0.00  0.00    -0.387 OA
ATOM     36  H   UNL     1      -1.333   5.603   9.552  0.00  0.00    +0.210 HD
ENDBRANCH   7  35
TORSDOF 7
