REMARK  Name = ZINC15073919
REMARK  4 active torsions:
REMARK  status: ('A' for Active; 'I' for Inactive)
REMARK    1  A    between atoms: C_1  and  C_2
REMARK    2  A    between atoms: C_9  and  C_11
REMARK    3  A    between atoms: C_11  and  N_12
REMARK    4  A    between atoms: C_15  and  C_19
REMARK                            x       y       z     vdW  Elec       q    Type
REMARK                         _______ _______ _______ _____ _____    ______ ____
ROOT
ATOM      1  N   UNL     1      -0.011   0.966   0.007  0.00  0.00    -0.307 N 
ATOM      2  C   UNL     1       1.178   1.674  -0.000  0.00  0.00    +0.236 A 
ATOM      3  N   UNL     1       2.330   1.019  -0.009  0.00  0.00    -0.209 NA
ATOM      4  C   UNL     1       3.474   1.707  -0.021  0.00  0.00    +0.129 A 
ATOM      5  C   UNL     1       3.412   3.107  -0.013  0.00  0.00    +0.166 A 
ATOM      6  N   UNL     1       2.232   3.698   0.001  0.00  0.00    -0.152 NA
ATOM      7  N   UNL     1       1.151   3.001   0.007  0.00  0.00    -0.113 NA
ATOM      8  H   UNL     1       0.002  -0.004   0.002  0.00  0.00    +0.149 HD
ENDROOT
BRANCH   4   9
ATOM      9  C   UNL     1       4.775   1.009  -0.037  0.00  0.00    +0.156 A 
ATOM     10  C   UNL     1       5.984   1.614   0.047  0.00  0.00    +0.060 A 
ATOM     11  C   UNL     1       6.979   0.541  -0.004  0.00  0.00    +0.021 A 
ATOM     12  C   UNL     1       8.374   0.504   0.038  0.00  0.00    +0.011 A 
ATOM     13  C   UNL     1       9.022  -0.696  -0.040  0.00  0.00    +0.001 A 
ATOM     14  C   UNL     1       8.303  -1.877  -0.161  0.00  0.00    +0.004 A 
ATOM     15  C   UNL     1       6.925  -1.861  -0.204  0.00  0.00    +0.047 A 
ATOM     16  C   UNL     1       6.245  -0.652  -0.127  0.00  0.00    +0.136 A 
ATOM     17  O   UNL     1       4.937  -0.325  -0.142  0.00  0.00    -0.453 OA
ENDBRANCH   4   9
BRANCH   1  18
ATOM     18  C   UNL     1      -1.290   1.681   0.017  0.00  0.00    +0.161 C 
BRANCH  18  27
ATOM     19  C   UNL     1      -5.048  -1.325   2.838  0.00  0.00    +0.064 C 
ATOM     20  C   UNL     1      -4.954  -1.401   1.336  0.00  0.00    +0.022 A 
ATOM     21  C   UNL     1      -5.791  -2.211   0.654  0.00  0.00    +0.021 A 
ATOM     22  C   UNL     1      -5.714  -2.292  -0.746  0.00  0.00    +0.005 A 
ATOM     23  C   UNL     1      -4.790  -1.551  -1.414  0.00  0.00    +0.047 A 
ATOM     24  C   UNL     1      -3.923  -0.710  -0.688  0.00  0.00    +0.138 A 
ATOM     25  N   UNL     1      -4.023  -0.651   0.678  0.00  0.00    -0.304 N 
ATOM     26  C   UNL     1      -3.068   0.228   1.111  0.00  0.00    +0.117 A 
ATOM     27  C   UNL     1      -2.422   0.686   0.017  0.00  0.00    +0.077 A 
ATOM     28  N   UNL     1      -2.949   0.107  -1.064  0.00  0.00    -0.231 NA
ENDBRANCH  18  27
ENDBRANCH   1  18
TORSDOF 3
