REMARK  Name = ZINC39545890
REMARK  9 active torsions:
REMARK  status: ('A' for Active; 'I' for Inactive)
REMARK    1  A    between atoms: C_1  and  C_2
REMARK    2  A    between atoms: C_2  and  C_3
REMARK    3  A    between atoms: C_2  and  S_4
REMARK    4  A    between atoms: S_4  and  N_7
REMARK    5  A    between atoms: N_7  and  S_31
REMARK    6  A    between atoms: C_8  and  C_10
REMARK    7  A    between atoms: C_13  and  C_24
REMARK    8  A    between atoms: C_29  and  O_30
REMARK    9  A    between atoms: S_31  and  C_32
REMARK                            x       y       z     vdW  Elec       q    Type
REMARK                         _______ _______ _______ _____ _____    ______ ____
ROOT
ATOM      1  C   UNL     1      -3.568  -0.535  -3.350  0.00  0.00    +0.151 C 
ATOM      2  C   UNL     1      -2.862   0.559  -4.172  0.00  0.00    +0.069 C 
ATOM      3  C   UNL     1      -2.746  -0.034  -5.558  0.00  0.00    -0.000 C 
ATOM      4  C   UNL     1      -3.273  -1.250  -5.557  0.00  0.00    +0.079 C 
ATOM      5  N   UNL     1      -3.385  -2.103  -6.663  0.00  0.00    -0.303 N 
ATOM      6  C   UNL     1      -4.560  -2.873  -6.699  0.00  0.00    +0.037 A 
ATOM      7  C   UNL     1      -4.832  -3.666  -7.805  0.00  0.00    +0.023 A 
ATOM      8  C   UNL     1      -5.982  -4.430  -7.836  0.00  0.00    +0.002 A 
ATOM      9  C   UNL     1      -6.857  -4.400  -6.765  0.00  0.00    +0.000 A 
ATOM     10  C   UNL     1      -6.589  -3.607  -5.666  0.00  0.00    +0.007 A 
ATOM     11  C   UNL     1      -5.441  -2.833  -5.628  0.00  0.00    -0.010 A 
ATOM     12  C   UNL     1      -5.188  -1.959  -4.427  0.00  0.00    +0.124 C 
ATOM     13  N   UNL     1      -3.764  -1.641  -4.301  0.00  0.00    -0.369 NA
ATOM     14  H   UNL     1      -2.704  -2.159  -7.351  0.00  0.00    +0.153 HD
ATOM     15  H   UNL     1      -3.265  -2.457  -3.980  0.00  0.00    +0.128 HD
ENDROOT
BRANCH   3  16
ATOM     16  C   UNL     1      -2.143   0.636  -6.726  0.00  0.00    +0.023 A 
ATOM     17  C   UNL     1      -2.957   1.158  -7.733  0.00  0.00    +0.012 A 
ATOM     18  C   UNL     1      -2.386   1.783  -8.823  0.00  0.00    +0.001 A 
ATOM     19  C   UNL     1      -1.011   1.894  -8.922  0.00  0.00    +0.004 A 
ATOM     20  C   UNL     1      -0.195   1.380  -7.931  0.00  0.00    +0.046 A 
ATOM     21  C   UNL     1      -0.751   0.756  -6.828  0.00  0.00    +0.124 A 
BRANCH  21  22
ATOM     22  O   UNL     1       0.050   0.256  -5.851  0.00  0.00    -0.506 OA
ATOM     23  H   UNL     1       0.318  -0.663  -5.993  0.00  0.00    +0.292 HD
ENDBRANCH  21  22
ENDBRANCH   3  16
BRANCH   1  25
ATOM     24  N   UNL     1      -2.759  -0.328  -1.022  0.00  0.00    -0.114 N 
ATOM     25  C   UNL     1      -2.698  -0.977  -2.201  0.00  0.00    +0.264 C 
ATOM     26  O   UNL     1      -1.943  -1.916  -2.339  0.00  0.00    -0.271 OA
BRANCH  24  27
ATOM     27  S   UNL     1      -1.902  -0.891   0.279  0.00  0.00    +0.059 S 
ATOM     28  O   UNL     1      -1.675  -2.265  -0.005  0.00  0.00    -0.154 OA
ATOM     29  O   UNL     1      -2.665  -0.502   1.412  0.00  0.00    -0.154 OA
BRANCH  27  31
ATOM     30  C   UNL     1      -0.614   1.520   0.378  0.00  0.00    +0.033 C 
ATOM     31  C   UNL     1      -0.335   0.022   0.236  0.00  0.00    +0.146 C 
ATOM     32  C   UNL     1       0.557  -0.442   1.389  0.00  0.00    +0.033 C 
ENDBRANCH  27  31
ENDBRANCH  24  27
BRANCH  24  33
ATOM     33  S   UNL     1      -3.690   1.034  -0.873  0.00  0.00    -0.036 S 
ATOM     34  C   UNL     1      -5.288   0.410  -0.282  0.00  0.00    +0.108 C 
ENDBRANCH  24  33
ENDBRANCH   1  25
TORSDOF 6
