REMARK  Name = ZINC37365912
REMARK  3 active torsions:
REMARK  status: ('A' for Active; 'I' for Inactive)
REMARK    1  A    between atoms: C_3  and  C_9
REMARK    2  A    between atoms: C_9  and  C_11
REMARK    3  A    between atoms: C_9  and  N_22
REMARK                            x       y       z     vdW  Elec       q    Type
REMARK                         _______ _______ _______ _____ _____    ______ ____
ROOT
ATOM      1  C   UNL     1       3.671   2.185  -0.023  0.00  0.00    -0.011 C 
ENDROOT
BRANCH   1   2
ATOM      2  C   UNL     1       4.181   2.329   1.388  0.00  0.00    -0.040 A 
ATOM      3  C   UNL     1       3.799   3.416   2.152  0.00  0.00    +0.052 A 
ATOM      4  C   UNL     1       4.265   3.551   3.451  0.00  0.00    +0.162 A 
ATOM      5  C   UNL     1       5.115   2.589   3.984  0.00  0.00    +0.163 A 
ATOM      6  C   UNL     1       5.496   1.501   3.213  0.00  0.00    +0.065 A 
ATOM      7  C   UNL     1       5.024   1.371   1.919  0.00  0.00    +0.023 A 
ATOM      8 BR   UNL     1       5.539  -0.118   0.873  0.00  0.00    -0.050 Br
ATOM      9  O   UNL     1       5.578   2.698   5.260  0.00  0.00    -0.485 OA
ATOM     10  C   UNL     1       5.474   3.987   5.873  0.00  0.00    +0.270 C 
ATOM     11  C   UNL     1       4.066   4.535   5.606  0.00  0.00    +0.270 C 
ATOM     12  O   UNL     1       3.883   4.629   4.190  0.00  0.00    -0.485 OA
ENDBRANCH   1   2
BRANCH   1  15
ATOM     13  C   UNL     1       0.628   0.283   1.148  0.00  0.00    +0.015 A 
ATOM     14  C   UNL     1       1.757   1.081   1.151  0.00  0.00    +0.005 A 
ATOM     15  C   UNL     1       2.441   1.315  -0.026  0.00  0.00    -0.039 A 
ATOM     16  C   UNL     1       1.997   0.750  -1.209  0.00  0.00    +0.044 A 
ATOM     17  C   UNL     1       0.868  -0.049  -1.212  0.00  0.00    +0.035 A 
ATOM     18  C   UNL     1       0.183  -0.282  -0.034  0.00  0.00    +0.019 A 
ATOM     19 BR   UNL     1      -1.361  -1.374  -0.037  0.00  0.00    -0.050 Br
ATOM     20 CL   UNL     1       2.856   1.044  -2.688  0.00  0.00    -0.083 Cl
ENDBRANCH   1  15
BRANCH   1  21
ATOM     21  N   UNL     1       3.335   3.510  -0.559  0.00  0.00    +0.385 N 
ATOM     22  H   UNL     1       2.994   3.414  -1.504  0.00  0.00    -0.089 HD
ATOM     23  H   UNL     1       2.621   3.934   0.014  0.00  0.00    -0.089 HD
ATOM     24  H   UNL     1       4.159   4.093  -0.557  0.00  0.00    -0.089 HD
ENDBRANCH   1  21
TORSDOF 3
