REMARK  Name = ZINC12996757
REMARK  3 active torsions:
REMARK  status: ('A' for Active; 'I' for Inactive)
REMARK    1  A    between atoms: N_14  and  C_18
REMARK    2  A    between atoms: C_18  and  C_19
REMARK    3  A    between atoms: N_21  and  C_22
REMARK                            x       y       z     vdW  Elec       q    Type
REMARK                         _______ _______ _______ _____ _____    ______ ____
ROOT
ATOM      1  C   UNL     1      -3.859   7.579   1.524  0.00  0.00    +0.000 A 
ATOM      2  C   UNL     1      -4.044   7.137   0.228  0.00  0.00    +0.000 A 
ATOM      3  C   UNL     1      -4.428   5.831  -0.002  0.00  0.00    +0.006 A 
ATOM      4  C   UNL     1      -4.626   4.962   1.064  0.00  0.00    -0.012 A 
ATOM      5  C   UNL     1      -4.427   5.392   2.348  0.00  0.00    -0.042 A 
ATOM      6  C   UNL     1      -4.052   6.713   2.580  0.00  0.00    +0.004 A 
ATOM      7  C   UNL     1      -4.583   4.504   3.562  0.00  0.00    +0.035 C 
ATOM      8  C   UNL     1      -6.019   4.028   3.730  0.00  0.00    +0.005 C 
ATOM      9  C   UNL     1      -6.368   2.885   2.791  0.00  0.00    +0.003 C 
ATOM     10  C   UNL     1      -6.468   3.352   1.345  0.00  0.00    +0.040 C 
ATOM     11  C   UNL     1      -5.065   3.554   0.759  0.00  0.00    +0.138 C 
ATOM     12  C   UNL     1      -4.078   2.530   1.238  0.00  0.00    +0.251 C 
ATOM     13  O   UNL     1      -3.754   2.214   2.361  0.00  0.00    -0.272 OA
ATOM     14  N   UNL     1      -3.563   1.959   0.120  0.00  0.00    -0.215 N 
ATOM     15  C   UNL     1      -4.179   2.399  -0.980  0.00  0.00    +0.310 C 
ATOM     16  O   UNL     1      -3.911   2.024  -2.105  0.00  0.00    -0.252 OA
ATOM     17  N   UNL     1      -5.130   3.304  -0.694  0.00  0.00    -0.281 N 
ATOM     18  H   UNL     1      -5.749   3.721  -1.314  0.00  0.00    +0.152 HD
ENDROOT
BRANCH  14  19
ATOM     19  C   UNL     1      -2.482   0.972   0.131  0.00  0.00    +0.214 C 
BRANCH  19  20
ATOM     20  C   UNL     1      -1.155   1.678   0.018  0.00  0.00    +0.235 C 
ATOM     21  O   UNL     1      -1.117   2.888  -0.064  0.00  0.00    -0.274 OA
ATOM     22  N   UNL     1      -0.011   0.966   0.007  0.00  0.00    -0.283 N 
ATOM     23  H   UNL     1      -0.043  -0.004  -0.011  0.00  0.00    +0.155 HD
BRANCH  22  24
ATOM     24  C   UNL     1       1.225   1.626   0.016  0.00  0.00    +0.056 A 
ATOM     25  C   UNL     1       1.324   2.908   0.539  0.00  0.00    +0.074 A 
ATOM     26  C   UNL     1       2.546   3.558   0.552  0.00  0.00    +0.168 A 
ATOM     27  C   UNL     1       3.674   2.928   0.031  0.00  0.00    +0.168 A 
ATOM     28  C   UNL     1       3.571   1.650  -0.495  0.00  0.00    +0.071 A 
ATOM     29  C   UNL     1       2.351   0.999  -0.503  0.00  0.00    +0.066 A 
ATOM     30 CL   UNL     1       2.226  -0.602  -1.162  0.00  0.00    -0.082 Cl
ATOM     31  O   UNL     1       4.742   3.771   0.155  0.00  0.00    -0.453 OA
ATOM     32  C   UNL     1       4.342   4.757   1.125  0.00  0.00    +0.466 C 
ATOM     33  O   UNL     1       2.908   4.795   1.002  0.00  0.00    -0.453 OA
ENDBRANCH  22  24
ENDBRANCH  19  20
ENDBRANCH  14  19
TORSDOF 3
