REMARK  Name = ZINC12686778
REMARK  3 active torsions:
REMARK  status: ('A' for Active; 'I' for Inactive)
REMARK    1  A    between atoms: C_4  and  C_7
REMARK    2  A    between atoms: C_10  and  C_12
REMARK    3  A    between atoms: C_12  and  N_13
REMARK                            x       y       z     vdW  Elec       q    Type
REMARK                         _______ _______ _______ _____ _____    ______ ____
ROOT
ATOM      1  N   UNL     1       2.012  -2.241   1.351  0.00  0.00    -0.215 N 
ATOM      2  C   UNL     1       1.063  -2.875   2.072  0.00  0.00    +0.252 C 
ATOM      3  O   UNL     1      -0.062  -3.156   1.718  0.00  0.00    -0.272 OA
ATOM      4  C   UNL     1       1.699  -3.158   3.411  0.00  0.00    +0.139 C 
ATOM      5  C   UNL     1       1.737  -4.652   3.694  0.00  0.00    +0.040 C 
ATOM      6  C   UNL     1       0.325  -5.172   3.983  0.00  0.00    +0.008 C 
ATOM      7  C   UNL     1      -0.148  -4.603   5.329  0.00  0.00    +0.043 C 
ATOM      8  C   UNL     1       0.121  -3.134   5.345  0.00  0.00    -0.005 A 
ATOM      9  C   UNL     1       0.938  -2.434   4.509  0.00  0.00    -0.005 A 
ATOM     10  C   UNL     1       1.020  -1.059   4.728  0.00  0.00    +0.014 A 
ATOM     11  C   UNL     1       0.312  -0.488   5.729  0.00  0.00    +0.046 A 
ATOM     12  S   UNL     1      -0.531  -1.896   6.433  0.00  0.00    -0.101 S 
ATOM     13  N   UNL     1       3.052  -2.607   3.292  0.00  0.00    -0.281 N 
ATOM     14  C   UNL     1       3.145  -2.095   2.049  0.00  0.00    +0.310 C 
ATOM     15  O   UNL     1       4.144  -1.559   1.612  0.00  0.00    -0.252 OA
ATOM     16  H   UNL     1       3.744  -2.613   3.972  0.00  0.00    +0.152 HD
ENDROOT
BRANCH   1  17
ATOM     17  C   UNL     1       1.827  -1.776  -0.026  0.00  0.00    +0.215 C 
BRANCH  17  21
ATOM     18  C   UNL     1      -0.016   1.344   0.009  0.00  0.00    +0.248 A 
ATOM     19  N   UNL     1       1.232   1.750  -0.000  0.00  0.00    -0.107 NA
ATOM     20  N   UNL     1       2.011   0.726  -0.013  0.00  0.00    -0.110 NA
ATOM     21  C   UNL     1       1.297  -0.365  -0.012  0.00  0.00    +0.235 A 
ATOM     22  O   UNL     1       0.002  -0.004   0.002  0.00  0.00    -0.419 OA
BRANCH  18  26
ATOM     23  C   UNL     1      -3.470   3.817   0.039  0.00  0.00    +0.000 A 
ATOM     24  C   UNL     1      -2.211   4.391   0.036  0.00  0.00    +0.001 A 
ATOM     25  C   UNL     1      -1.085   3.594   0.027  0.00  0.00    +0.013 A 
ATOM     26  C   UNL     1      -1.218   2.204   0.020  0.00  0.00    +0.038 A 
ATOM     27  C   UNL     1      -2.491   1.631   0.017  0.00  0.00    +0.013 A 
ATOM     28  C   UNL     1      -3.608   2.440   0.033  0.00  0.00    +0.001 A 
ENDBRANCH  18  26
ENDBRANCH  17  21
ENDBRANCH   1  17
TORSDOF 3
