REMARK  Name = ZINC06920308
REMARK  4 active torsions:
REMARK  status: ('A' for Active; 'I' for Inactive)
REMARK    1  A    between atoms: C_4  and  C_7
REMARK    2  A    between atoms: N_11  and  S_13
REMARK    3  A    between atoms: S_13  and  C_16
REMARK    4  A    between atoms: C_19  and  C_21
REMARK                            x       y       z     vdW  Elec       q    Type
REMARK                         _______ _______ _______ _____ _____    ______ ____
ROOT
ATOM      1  S   UNL     1       0.392   2.584  -3.722  0.00  0.00    +0.067 S 
ATOM      2  O   UNL     1      -0.855   3.264  -3.777  0.00  0.00    -0.152 OA
ATOM      3  O   UNL     1       1.627   3.234  -3.993  0.00  0.00    -0.152 OA
ENDROOT
BRANCH   1   7
ATOM      4  C   UNL     1      -0.013   1.086   0.008  0.00  0.00    +0.036 C 
ATOM      5  C   UNL     1       1.431   1.655  -0.003  0.00  0.00    +0.026 C 
ATOM      6  C   UNL     1       1.775   1.601  -1.512  0.00  0.00    +0.110 C 
ATOM      7  N   UNL     1       0.517   1.947  -2.199  0.00  0.00    -0.176 NA
ATOM      8  C   UNL     1      -0.609   1.631  -1.307  0.00  0.00    +0.117 C 
BRANCH   4  12
ATOM      9  C   UNL     1      -2.186   2.544   3.384  0.00  0.00    +0.000 A 
ATOM     10  C   UNL     1      -2.059   1.183   3.179  0.00  0.00    +0.000 A 
ATOM     11  C   UNL     1      -1.356   0.711   2.087  0.00  0.00    +0.004 A 
ATOM     12  C   UNL     1      -0.779   1.600   1.199  0.00  0.00    -0.043 A 
ATOM     13  C   UNL     1      -0.902   2.961   1.407  0.00  0.00    +0.004 A 
ATOM     14  C   UNL     1      -1.609   3.433   2.497  0.00  0.00    +0.000 A 
ENDBRANCH   4  12
ENDBRANCH   1   7
BRANCH   1  15
ATOM     15  C   UNL     1       0.278   1.232  -4.845  0.00  0.00    +0.143 A 
ATOM     16  C   UNL     1      -0.829   0.585  -5.293  0.00  0.00    +0.037 A 
ATOM     17  C   UNL     1      -0.684  -0.456  -6.184  0.00  0.00    +0.020 A 
ATOM     18  C   UNL     1       0.578  -0.813  -6.579  0.00  0.00    +0.041 A 
ATOM     19  S   UNL     1       1.588   0.353  -5.680  0.00  0.00    -0.067 S 
BRANCH  18  20
ATOM     20  C   UNL     1       0.994  -1.884  -7.507  0.00  0.00    +0.098 A 
ATOM     21  C   UNL     1       2.369  -2.082  -7.786  0.00  0.00    +0.036 A 
ATOM     22  C   UNL     1       2.715  -3.083  -8.644  0.00  0.00    +0.073 A 
ATOM     23  C   UNL     1       1.678  -3.856  -9.212  0.00  0.00    +0.265 A 
ATOM     24  O   UNL     1       1.941  -4.760  -9.989  0.00  0.00    -0.266 OA
ATOM     25  N   UNL     1       0.399  -3.590  -8.890  0.00  0.00    -0.243 N 
ATOM     26  H   UNL     1      -0.330  -4.141  -9.296  0.00  0.00    +0.192 HD
ATOM     27  N   UNL     1       0.088  -2.647  -8.077  0.00  0.00    -0.170 NA
ENDBRANCH  18  20
ENDBRANCH   1  15
TORSDOF 4
