REMARK  Name = ZINC49530647
REMARK  10 active torsions:
REMARK  status: ('A' for Active; 'I' for Inactive)
REMARK    1  A    between atoms: C_1  and  C_2
REMARK    2  A    between atoms: C_2  and  C_3
REMARK    3  A    between atoms: C_3  and  C_5
REMARK    4  A    between atoms: C_3  and  N_10
REMARK    5  A    between atoms: N_10  and  C_11
REMARK    6  A    between atoms: C_11  and  C_12
REMARK    7  A    between atoms: C_12  and  C_14
REMARK    8  A    between atoms: C_12  and  O_23
REMARK    9  A    between atoms: C_14  and  O_15
REMARK   10  A    between atoms: O_15  and  C_16
REMARK                            x       y       z     vdW  Elec       q    Type
REMARK                         _______ _______ _______ _____ _____    ______ ____
ROOT
ATOM      1  C   UNL     1       2.497   1.222   1.361  0.00  0.00    -0.047 C 
ENDROOT
BRANCH   1   2
ATOM      2  N   UNL     1       2.286  -0.214   1.135  0.00  0.00    +0.386 N 
ATOM      3  H   UNL     1       2.681  -0.738   1.901  0.00  0.00    -0.085 HD
ATOM      4  H   UNL     1       2.735  -0.488   0.274  0.00  0.00    -0.085 HD
BRANCH   2   5
ATOM      5  C   UNL     1       0.846  -0.490   1.044  0.00  0.00    -0.034 C 
BRANCH   5   6
ATOM      6  C   UNL     1       0.196  -0.208   2.375  0.00  0.00    -0.024 A 
ATOM      7  C   UNL     1      -1.000   0.374   2.634  0.00  0.00    +0.009 A 
ATOM      8  C   UNL     1      -1.398   0.531   3.949  0.00  0.00    +0.008 A 
ATOM      9  C   UNL     1      -0.579   0.100   4.939  0.00  0.00    +0.045 A 
ATOM     10  S   UNL     1       0.800  -0.560   4.018  0.00  0.00    -0.103 S 
ENDBRANCH   5   6
BRANCH   5  12
ATOM     11  C   UNL     1       1.169  -2.212  -0.737  0.00  0.00    +0.002 C 
ATOM     12  C   UNL     1       0.629  -1.958   0.672  0.00  0.00    -0.014 C 
ENDBRANCH   5  12
ENDBRANCH   2   5
ENDBRANCH   1   2
BRANCH   1  13
ATOM     13  C   UNL     1       3.995   1.528   1.329  0.00  0.00    +0.135 C 
BRANCH  13  14
ATOM     14  O   UNL     1       4.505   1.274   0.018  0.00  0.00    -0.390 OA
ATOM     15  H   UNL     1       4.090   1.804  -0.675  0.00  0.00    +0.210 HD
ENDBRANCH  13  14
BRANCH  13  16
ATOM     16  C   UNL     1       4.223   2.998   1.688  0.00  0.00    +0.258 C 
BRANCH  16  17
ATOM     17  O   UNL     1       5.626   3.256   1.772  0.00  0.00    -0.489 OA
BRANCH  17  18
ATOM     18  C   UNL     1       6.002   4.524   2.084  0.00  0.00    +0.122 A 
ATOM     19  C   UNL     1       5.041   5.498   2.311  0.00  0.00    +0.046 A 
ATOM     20  C   UNL     1       5.425   6.787   2.629  0.00  0.00    +0.005 A 
ATOM     21  C   UNL     1       6.768   7.106   2.720  0.00  0.00    +0.015 A 
ATOM     22  C   UNL     1       7.729   6.137   2.494  0.00  0.00    +0.021 A 
ATOM     23  C   UNL     1       7.348   4.845   2.182  0.00  0.00    +0.061 A 
ATOM     24 BR   UNL     1       9.563   6.578   2.619  0.00  0.00    -0.050 Br
ENDBRANCH  17  18
ENDBRANCH  16  17
ENDBRANCH  13  16
ENDBRANCH   1  13
TORSDOF 9
