REMARK  Name = ZINC18199069
REMARK  6 active torsions:
REMARK  status: ('A' for Active; 'I' for Inactive)
REMARK    1  A    between atoms: C_1  and  O_2
REMARK    2  A    between atoms: O_2  and  C_3
REMARK    3  A    between atoms: C_6  and  C_11
REMARK    4  A    between atoms: C_8  and  O_9
REMARK    5  A    between atoms: O_9  and  C_10
REMARK    6  A    between atoms: C_16  and  C_25
REMARK                            x       y       z     vdW  Elec       q    Type
REMARK                         _______ _______ _______ _____ _____    ______ ____
ROOT
ATOM      1  C   UNL     1      -6.682   5.924   0.313  0.00  0.00    +0.032 C 
ATOM      2  C   UNL     1      -5.209   5.888   0.724  0.00  0.00    +0.060 C 
ATOM      3  C   UNL     1      -4.616   4.545   0.371  0.00  0.00    +0.020 C 
ATOM      4  C   UNL     1      -5.375   3.428   0.375  0.00  0.00    +0.041 C 
ATOM      5  C   UNL     1      -4.808   2.070   0.026  0.00  0.00    +0.176 C 
ATOM      6  N   UNL     1      -3.352   2.121   0.028  0.00  0.00    -0.219 N 
ATOM      7  C   UNL     1      -2.646   3.279   0.034  0.00  0.00    +0.220 A 
ATOM      8  N   UNL     1      -1.375   2.980   0.031  0.00  0.00    -0.180 NA
ATOM      9  C   UNL     1      -1.229   1.647   0.017  0.00  0.00    +0.233 A 
ATOM     10  N   UNL     1      -2.418   1.085   0.019  0.00  0.00    -0.132 NA
ATOM     11  N   UNL     1      -0.011   0.966   0.007  0.00  0.00    -0.326 N 
ATOM     12  N   UNL     1      -3.279   4.511   0.053  0.00  0.00    -0.287 N 
ATOM     13  C   UNL     1      -6.741   3.486   0.704  0.00  0.00    +0.164 C 
ATOM     14  O   UNL     1      -7.392   2.460   0.720  0.00  0.00    -0.292 OA
ATOM     15  C   UNL     1      -7.413   4.789   1.037  0.00  0.00    +0.088 C 
ATOM     16  H   UNL     1       0.002  -0.004   0.002  0.00  0.00    +0.145 HD
ATOM     17  H   UNL     1       0.822   1.462   0.002  0.00  0.00    +0.145 HD
ATOM     18  H   UNL     1      -2.793   5.325  -0.152  0.00  0.00    +0.155 HD
ENDROOT
BRANCH   5  19
ATOM     19  C   UNL     1      -5.292   1.662  -1.341  0.00  0.00    -0.017 A 
ATOM     20  C   UNL     1      -6.046   0.513  -1.494  0.00  0.00    +0.006 A 
ATOM     21  C   UNL     1      -6.491   0.139  -2.748  0.00  0.00    +0.001 A 
ATOM     22  C   UNL     1      -6.182   0.913  -3.850  0.00  0.00    +0.015 A 
ATOM     23  C   UNL     1      -5.428   2.063  -3.699  0.00  0.00    +0.018 A 
ATOM     24  C   UNL     1      -4.988   2.440  -2.442  0.00  0.00    +0.021 A 
ATOM     25 BR   UNL     1      -5.005   3.123  -5.207  0.00  0.00    -0.050 Br
ENDBRANCH   5  19
BRANCH   1  29
ATOM     26  C   UNL     1      -8.394   9.682   1.427  0.00  0.00    +0.161 A 
ATOM     27  C   UNL     1      -7.856   8.848   2.394  0.00  0.00    +0.049 A 
ATOM     28  C   UNL     1      -7.303   7.634   2.031  0.00  0.00    +0.008 A 
ATOM     29  C   UNL     1      -7.286   7.248   0.703  0.00  0.00    -0.040 A 
ATOM     30  C   UNL     1      -7.817   8.078  -0.267  0.00  0.00    +0.053 A 
ATOM     31  C   UNL     1      -8.377   9.293   0.091  0.00  0.00    +0.162 A 
BRANCH  26  33
ATOM     32  C   UNL     1      -8.921  11.209   3.173  0.00  0.00    +0.277 C 
ATOM     33  O   UNL     1      -8.938  10.876   1.783  0.00  0.00    -0.491 OA
ENDBRANCH  26  33
BRANCH  31  34
ATOM     34  O   UNL     1      -8.904  10.108  -0.862  0.00  0.00    -0.491 OA
ATOM     35  C   UNL     1      -8.852   9.645  -2.213  0.00  0.00    +0.277 C 
ENDBRANCH  31  34
ENDBRANCH   1  29
TORSDOF 4
