REMARK  Name = ZINC39459783
REMARK  5 active torsions:
REMARK  status: ('A' for Active; 'I' for Inactive)
REMARK    1  A    between atoms: C_1  and  C_2
REMARK    2  A    between atoms: C_2  and  O_3
REMARK    3  A    between atoms: O_3  and  C_4
REMARK    4  A    between atoms: C_11  and  C_13
REMARK    5  A    between atoms: C_18  and  O_19
REMARK                            x       y       z     vdW  Elec       q    Type
REMARK                         _______ _______ _______ _____ _____    ______ ____
ROOT
ATOM      1  C   UNL     1       0.684  -1.808  -1.386  0.00  0.00    +0.220 A 
ATOM      2  C   UNL     1       1.271  -2.453  -2.424  0.00  0.00    +0.178 A 
ATOM      3  N   UNL     1       1.066  -3.767  -2.281  0.00  0.00    -0.232 NA
ATOM      4  C   UNL     1       0.362  -3.981  -1.179  0.00  0.00    +0.142 A 
ATOM      5  N   UNL     1       0.111  -2.763  -0.589  0.00  0.00    -0.257 N 
ATOM      6  C   UNL     1      -0.599  -2.685   0.579  0.00  0.00    +0.095 A 
ATOM      7  C   UNL     1      -1.065  -3.797   1.179  0.00  0.00    +0.042 A 
ATOM      8  C   UNL     1      -0.825  -5.070   0.607  0.00  0.00    -0.008 A 
ATOM      9  C   UNL     1      -0.117  -5.159  -0.577  0.00  0.00    +0.055 A 
ATOM     10 BR   UNL     1      -0.929  -0.995   1.359  0.00  0.00    -0.030 Br
ENDROOT
BRANCH   8  11
ATOM     11  C   UNL     1      -1.336  -6.294   1.265  0.00  0.00    +0.024 A 
ATOM     12  C   UNL     1      -0.465  -7.130   1.962  0.00  0.00    +0.012 A 
ATOM     13  C   UNL     1      -0.947  -8.270   2.574  0.00  0.00    +0.001 A 
ATOM     14  C   UNL     1      -2.292  -8.585   2.499  0.00  0.00    +0.004 A 
ATOM     15  C   UNL     1      -3.165  -7.763   1.811  0.00  0.00    +0.046 A 
ATOM     16  C   UNL     1      -2.697  -6.613   1.197  0.00  0.00    +0.125 A 
BRANCH  16  17
ATOM     17  O   UNL     1      -3.555  -5.801   0.526  0.00  0.00    -0.506 OA
ATOM     18  H   UNL     1      -3.658  -6.025  -0.409  0.00  0.00    +0.292 HD
ENDBRANCH  16  17
ENDBRANCH   8  11
BRANCH   1  19
ATOM     19  O   UNL     1       0.671  -0.465  -1.174  0.00  0.00    -0.476 OA
BRANCH  19  21
ATOM     20  C   UNL     1       1.026   1.831  -1.838  0.00  0.00    +0.048 C 
ATOM     21  C   UNL     1       1.240   0.359  -2.193  0.00  0.00    +0.227 C 
ENDBRANCH  19  21
ENDBRANCH   1  19
TORSDOF 4
