REMARK  Name = ZINC26802976
REMARK  7 active torsions:
REMARK  status: ('A' for Active; 'I' for Inactive)
REMARK    1  A    between atoms: C_1  and  C_2
REMARK    2  A    between atoms: C_2  and  C_3
REMARK    3  A    between atoms: C_3  and  C_22
REMARK    4  A    between atoms: C_14  and  S_16
REMARK    5  A    between atoms: S_16  and  C_17
REMARK    6  A    between atoms: C_17  and  C_18
REMARK    7  A    between atoms: C_17  and  C_19
REMARK                            x       y       z     vdW  Elec       q    Type
REMARK                         _______ _______ _______ _____ _____    ______ ____
ROOT
ATOM      1  C   UNL     1      -4.375  -0.304  -0.402  0.00  0.00    +0.071 C 
ATOM      2  C   UNL     1      -2.917  -0.118   0.028  0.00  0.00    +0.071 C 
ATOM      3  C   UNL     1      -2.614   1.378   0.035  0.00  0.00    -0.018 A 
ATOM      4  C   UNL     1      -3.633   2.265   0.050  0.00  0.00    +0.021 A 
ATOM      5  S   UNL     1      -2.857   3.856   0.052  0.00  0.00    -0.071 S 
ATOM      6  C   UNL     1      -1.163   3.326   0.032  0.00  0.00    +0.117 A 
ATOM      7  C   UNL     1      -1.258   1.923   0.018  0.00  0.00    +0.076 A 
ATOM      8  C   UNL     1      -0.015   1.215   0.009  0.00  0.00    +0.261 A 
ATOM      9  O   UNL     1       0.002  -0.004   0.002  0.00  0.00    -0.267 OA
ATOM     10  N   UNL     1       1.136   1.912   0.002  0.00  0.00    -0.301 N 
ATOM     11  H   UNL     1       2.100   1.383  -0.010  0.00  0.00    +0.171 HD
ATOM     12  C   UNL     1       1.137   3.277   0.009  0.00  0.00    +0.170 A 
ATOM     13  N   UNL     1       0.007   3.954   0.024  0.00  0.00    -0.216 NA
ATOM     14  C   UNL     1      -5.093   1.935   0.063  0.00  0.00    +0.203 C 
ATOM     15  O   UNL     1      -5.229   0.540   0.376  0.00  0.00    -0.368 OA
ATOM     16  C   UNL     1      -4.519   0.058  -1.881  0.00  0.00    +0.042 C 
ENDROOT
BRANCH   1  18
ATOM     17  C   UNL     1      -6.196  -1.982  -0.738  0.00  0.00    +0.007 C 
ATOM     18  C   UNL     1      -4.782  -1.765  -0.195  0.00  0.00    +0.032 C 
ENDBRANCH   1  18
BRANCH  12  19
ATOM     19  S   UNL     1       2.670   4.145  -0.002  0.00  0.00    -0.085 S 
BRANCH  19  20
ATOM     20  C   UNL     1       2.066   5.851   0.013  0.00  0.00    +0.048 C 
ATOM     21  C   UNL     1       3.251   6.812   0.132  0.00  0.00    +0.019 C 
ATOM     22  C   UNL     1       1.308   6.135  -1.285  0.00  0.00    +0.019 C 
ENDBRANCH  19  20
ENDBRANCH  12  19
TORSDOF 3
