REMARK  Name = ZINC00828301
REMARK  4 active torsions:
REMARK  status: ('A' for Active; 'I' for Inactive)
REMARK    1  A    between atoms: C_3  and  O_34
REMARK    2  A    between atoms: C_6  and  N_7
REMARK    3  A    between atoms: N_22  and  C_25
REMARK    4  A    between atoms: C_28  and  O_31
REMARK                            x       y       z     vdW  Elec       q    Type
REMARK                         _______ _______ _______ _____ _____    ______ ____
ROOT
ATOM      1  N   UNL     1      -1.203  -0.722   0.010  0.00  0.00    -0.202 N 
ATOM      2  C   UNL     1      -2.272  -0.180   0.624  0.00  0.00    +0.258 C 
ATOM      3  O   UNL     1      -2.178   0.909   1.155  0.00  0.00    -0.269 OA
ATOM      4  C   UNL     1      -3.558  -0.903   0.654  0.00  0.00    +0.046 A 
ATOM      5  C   UNL     1      -4.687  -0.388   1.271  0.00  0.00    +0.014 A 
ATOM      6  C   UNL     1      -5.884  -1.101   1.278  0.00  0.00    +0.014 A 
ATOM      7  C   UNL     1      -5.974  -2.343   0.668  0.00  0.00    +0.046 A 
ATOM      8  C   UNL     1      -4.833  -2.885   0.032  0.00  0.00    +0.008 A 
ATOM      9  C   UNL     1      -3.629  -2.168   0.025  0.00  0.00    +0.008 A 
ATOM     10  C   UNL     1      -2.488  -2.710  -0.611  0.00  0.00    +0.046 A 
ATOM     11  C   UNL     1      -2.579  -3.951  -1.222  0.00  0.00    +0.014 A 
ATOM     12  C   UNL     1      -3.776  -4.664  -1.215  0.00  0.00    +0.014 A 
ATOM     13  C   UNL     1      -4.905  -4.150  -0.597  0.00  0.00    +0.046 A 
ATOM     14  C   UNL     1      -6.191  -4.873  -0.567  0.00  0.00    +0.258 C 
ATOM     15  O   UNL     1      -6.285  -5.962  -1.098  0.00  0.00    -0.269 OA
ATOM     16  N   UNL     1      -7.260  -4.331   0.047  0.00  0.00    -0.202 N 
ATOM     17  C   UNL     1      -7.222  -3.129   0.653  0.00  0.00    +0.258 C 
ATOM     18  O   UNL     1      -8.220  -2.691   1.191  0.00  0.00    -0.269 OA
ATOM     19  C   UNL     1      -1.242  -1.921  -0.601  0.00  0.00    +0.258 C 
ATOM     20  O   UNL     1      -0.246  -2.357  -1.143  0.00  0.00    -0.269 OA
ENDROOT
BRANCH   1  26
ATOM     21  C   UNL     1       0.238   0.945  -0.984  0.00  0.00    +0.027 A 
ATOM     22  C   UNL     1       1.424   1.652  -0.991  0.00  0.00    +0.047 A 
ATOM     23  C   UNL     1       2.380   1.415  -0.013  0.00  0.00    +0.117 A 
ATOM     24  C   UNL     1       2.144   0.467   0.973  0.00  0.00    +0.047 A 
ATOM     25  C   UNL     1       0.958  -0.240   0.981  0.00  0.00    +0.027 A 
ATOM     26  C   UNL     1       0.002  -0.004   0.002  0.00  0.00    +0.045 A 
BRANCH  23  27
ATOM     27  O   UNL     1       3.547   2.111  -0.021  0.00  0.00    -0.507 OA
ATOM     28  H   UNL     1       3.518   2.934   0.486  0.00  0.00    +0.292 HD
ENDBRANCH  23  27
ENDBRANCH   1  26
BRANCH  16  29
ATOM     29  C   UNL     1      -8.465  -5.049   0.055  0.00  0.00    +0.045 A 
ATOM     30  C   UNL     1      -9.374  -4.890  -0.982  0.00  0.00    +0.027 A 
ATOM     31  C   UNL     1     -10.560  -5.597  -0.975  0.00  0.00    +0.047 A 
ATOM     32  C   UNL     1     -10.843  -6.466   0.069  0.00  0.00    +0.117 A 
ATOM     33  C   UNL     1      -9.935  -6.625   1.106  0.00  0.00    +0.047 A 
ATOM     34  C   UNL     1      -8.746  -5.923   1.096  0.00  0.00    +0.027 A 
BRANCH  32  35
ATOM     35  O   UNL     1     -12.011  -7.162   0.076  0.00  0.00    -0.507 OA
ATOM     36  H   UNL     1     -11.960  -8.021  -0.364  0.00  0.00    +0.292 HD
ENDBRANCH  32  35
ENDBRANCH  16  29
TORSDOF 4
