REMARK  Name = ZINC20220444
REMARK  5 active torsions:
REMARK  status: ('A' for Active; 'I' for Inactive)
REMARK    1  A    between atoms: C_1  and  O_2
REMARK    2  A    between atoms: O_2  and  C_3
REMARK    3  A    between atoms: C_3  and  C_5
REMARK    4  A    between atoms: C_9  and  C_10
REMARK    5  A    between atoms: C_26  and  C_28
REMARK                            x       y       z     vdW  Elec       q    Type
REMARK                         _______ _______ _______ _____ _____    ______ ____
ROOT
ATOM      1  C   UNL     1      -3.279   1.395  -1.226  0.00  0.00    +0.110 C 
ATOM      2  C   UNL     1      -4.476   2.043  -1.046  0.00  0.00    +0.224 A 
ATOM      3  N   UNL     1      -5.132   1.997   0.147  0.00  0.00    -0.242 N 
ATOM      4  C   UNL     1      -6.313   2.748   0.011  0.00  0.00    +0.138 A 
ATOM      5  C   UNL     1      -7.261   2.966   0.957  0.00  0.00    +0.041 C 
ATOM      6  C   UNL     1      -6.303   3.247  -1.370  0.00  0.00    +0.363 A 
ATOM      7  O   UNL     1      -7.149   3.944  -1.897  0.00  0.00    -0.243 OA
ATOM      8  O   UNL     1      -5.175   2.783  -1.937  0.00  0.00    -0.403 OA
ATOM      9  C   UNL     1      -4.652   1.304   1.261  0.00  0.00    +0.235 A 
ATOM     10  C   UNL     1      -3.490   0.625   1.223  0.00  0.00    +0.119 A 
ATOM     11  N   UNL     1      -3.290   0.064   2.429  0.00  0.00    -0.197 NA
ATOM     12  C   UNL     1      -4.298   0.381   3.204  0.00  0.00    +0.287 A 
ATOM     13  O   UNL     1      -5.155   1.147   2.507  0.00  0.00    -0.408 OA
ATOM     14  N   UNL     1      -4.455  -0.010   4.522  0.00  0.00    -0.313 N 
ATOM     15  C   UNL     1      -2.696   0.623  -0.062  0.00  0.00    +0.115 C 
ATOM     16  H   UNL     1      -5.341   0.311   5.089  0.00  0.00    +0.147 HD
ATOM     17  H   UNL     1      -3.692  -0.640   5.004  0.00  0.00    +0.147 HD
ENDROOT
BRANCH   5  18
ATOM     18  C   UNL     1      -8.517   3.639   0.597  0.00  0.00    -0.023 A 
ATOM     19  C   UNL     1      -9.072   4.597   1.453  0.00  0.00    +0.011 A 
ATOM     20  C   UNL     1     -10.247   5.228   1.105  0.00  0.00    +0.039 A 
ATOM     21  C   UNL     1     -10.886   4.907  -0.083  0.00  0.00    +0.123 A 
ATOM     22  C   UNL     1     -10.344   3.954  -0.933  0.00  0.00    +0.039 A 
ATOM     23  C   UNL     1      -9.167   3.320  -0.602  0.00  0.00    +0.011 A 
ATOM     24  F   UNL     1     -12.040   5.525  -0.414  0.00  0.00    -0.205 F 
ENDBRANCH   5  18
BRANCH  15  25
ATOM     25  C   UNL     1      -1.330   1.187   0.233  0.00  0.00    -0.033 A 
ATOM     26  C   UNL     1      -0.215   0.374   0.152  0.00  0.00    +0.007 A 
ATOM     27  C   UNL     1       1.039   0.891   0.418  0.00  0.00    +0.038 A 
ATOM     28  C   UNL     1       1.177   2.223   0.770  0.00  0.00    +0.123 A 
ATOM     29  C   UNL     1       0.059   3.035   0.856  0.00  0.00    +0.038 A 
ATOM     30  C   UNL     1      -1.194   2.515   0.590  0.00  0.00    +0.007 A 
ATOM     31  F   UNL     1       2.402   2.730   1.030  0.00  0.00    -0.205 F 
ENDBRANCH  15  25
BRANCH   1  32
ATOM     32  C   UNL     1      -2.612   1.449  -2.458  0.00  0.00    +0.341 C 
ATOM     33  O   UNL     1      -1.551   0.869  -2.602  0.00  0.00    -0.245 OA
BRANCH  32  35
ATOM     34  C   UNL     1      -2.414   2.155  -4.713  0.00  0.00    +0.280 C 
ATOM     35  O   UNL     1      -3.147   2.143  -3.486  0.00  0.00    -0.465 OA
ENDBRANCH  32  35
ENDBRANCH   1  32
TORSDOF 4
