REMARK  Name = ZINC05892875
REMARK  5 active torsions:
REMARK  status: ('A' for Active; 'I' for Inactive)
REMARK    1  A    between atoms: C_3  and  N_8
REMARK    2  A    between atoms: C_5  and  O_7
REMARK    3  A    between atoms: C_13  and  C_16
REMARK    4  A    between atoms: C_16  and  C_17
REMARK    5  A    between atoms: N_19  and  C_20
REMARK                            x       y       z     vdW  Elec       q    Type
REMARK                         _______ _______ _______ _____ _____    ______ ____
ROOT
ATOM      1  N   UNL     1       3.577   2.118  -0.004  0.00  0.00    -0.226 NA
ATOM      2  C   UNL     1       3.717   3.145  -0.809  0.00  0.00    +0.161 C 
ATOM      3  N   UNL     1       2.800   3.658  -1.702  0.00  0.00    -0.264 N 
ATOM      4  C   UNL     1       3.061   4.705  -2.465  0.00  0.00    +0.232 C 
ATOM      5  O   UNL     1       2.250   5.151  -3.248  0.00  0.00    -0.274 OA
ATOM      6  C   UNL     1       4.443   5.316  -2.299  0.00  0.00    +0.149 C 
ATOM      7  S   UNL     1       5.137   4.211  -1.001  0.00  0.00    -0.077 S 
ATOM      8  H   UNL     1       1.930   3.233  -1.774  0.00  0.00    +0.157 HD
ENDROOT
BRANCH   1  11
ATOM      9  C   UNL     1       0.001   1.367   0.027  0.00  0.00    +0.006 A 
ATOM     10  C   UNL     1       1.181   2.083   0.017  0.00  0.00    +0.028 A 
ATOM     11  C   UNL     1       2.404   1.411   0.007  0.00  0.00    +0.070 A 
ATOM     12  C   UNL     1       2.428   0.015   0.007  0.00  0.00    +0.073 A 
ATOM     13  C   UNL     1       1.239  -0.693   0.017  0.00  0.00    +0.119 A 
ATOM     14  C   UNL     1       0.026  -0.015   0.027  0.00  0.00    +0.045 A 
BRANCH  13  15
ATOM     15  O   UNL     1       1.257  -2.052   0.017  0.00  0.00    -0.507 OA
ATOM     16  H   UNL     1       1.270  -2.445   0.901  0.00  0.00    +0.292 HD
ENDBRANCH  13  15
ENDBRANCH   1  11
BRANCH   6  17
ATOM     17  C   UNL     1       5.248   5.230  -3.598  0.00  0.00    +0.120 C 
BRANCH  17  18
ATOM     18  C   UNL     1       6.558   5.954  -3.426  0.00  0.00    +0.219 C 
ATOM     19  O   UNL     1       6.823   6.486  -2.368  0.00  0.00    -0.275 OA
ATOM     20  N   UNL     1       7.436   6.009  -4.447  0.00  0.00    -0.285 N 
ATOM     21  H   UNL     1       7.255   5.528  -5.269  0.00  0.00    +0.155 HD
BRANCH  20  22
ATOM     22  C   UNL     1       8.610   6.762  -4.321  0.00  0.00    +0.034 A 
ATOM     23  C   UNL     1       9.126   7.436  -5.420  0.00  0.00    +0.026 A 
ATOM     24  C   UNL     1      10.284   8.178  -5.293  0.00  0.00    +0.040 A 
ATOM     25  C   UNL     1      10.931   8.250  -4.071  0.00  0.00    +0.124 A 
ATOM     26  C   UNL     1      10.418   7.579  -2.974  0.00  0.00    +0.040 A 
ATOM     27  C   UNL     1       9.257   6.841  -3.094  0.00  0.00    +0.026 A 
ATOM     28  F   UNL     1      12.064   8.975  -3.950  0.00  0.00    -0.205 F 
ENDBRANCH  20  22
ENDBRANCH  17  18
ENDBRANCH   6  17
TORSDOF 5
