REMARK  Name = ZINC12785425
REMARK  8 active torsions:
REMARK  status: ('A' for Active; 'I' for Inactive)
REMARK    1  A    between atoms: C_1  and  C_2
REMARK    2  A    between atoms: C_7  and  C_8
REMARK    3  A    between atoms: C_8  and  N_9
REMARK    4  A    between atoms: C_10  and  C_12
REMARK    5  A    between atoms: N_15  and  S_18
REMARK    6  A    between atoms: S_18  and  C_21
REMARK    7  A    between atoms: C_23  and  C_27
REMARK    8  A    between atoms: N_24  and  C_26
REMARK                            x       y       z     vdW  Elec       q    Type
REMARK                         _______ _______ _______ _____ _____    ______ ____
ROOT
ATOM      1  C   UNL     1      -3.360   2.635  -2.700  0.00  0.00    +0.077 C 
ATOM      2  C   UNL     1      -2.288   3.541  -2.090  0.00  0.00    +0.030 C 
ATOM      3  C   UNL     1      -0.960   2.781  -2.022  0.00  0.00    +0.110 C 
ATOM      4  N   UNL     1      -1.172   1.523  -1.294  0.00  0.00    -0.176 NA
ATOM      5  C   UNL     1      -2.236   0.616  -1.746  0.00  0.00    +0.110 C 
ATOM      6  C   UNL     1      -3.553   1.403  -1.814  0.00  0.00    +0.030 C 
ENDROOT
BRANCH   1   8
ATOM      7  N   UNL     1      -5.751   2.789  -3.312  0.00  0.00    -0.311 N 
ATOM      8  C   UNL     1      -4.659   3.391  -2.800  0.00  0.00    +0.216 C 
ATOM      9  O   UNL     1      -4.723   4.541  -2.421  0.00  0.00    -0.276 OA
ATOM     10  H   UNL     1      -5.701   1.869  -3.615  0.00  0.00    +0.149 HD
BRANCH   7  11
ATOM     11  C   UNL     1      -7.015   3.524  -3.409  0.00  0.00    +0.139 C 
BRANCH  11  18
ATOM     12  C   UNL     1      -8.362   1.569  -1.763  0.00  0.00    +0.044 C 
ATOM     13  C   UNL     1      -8.715   1.696  -3.223  0.00  0.00    -0.046 A 
ATOM     14  C   UNL     1      -9.683   0.878  -3.775  0.00  0.00    +0.003 A 
ATOM     15  C   UNL     1     -10.007   0.996  -5.113  0.00  0.00    +0.000 A 
ATOM     16  C   UNL     1      -9.362   1.931  -5.901  0.00  0.00    +0.000 A 
ATOM     17  C   UNL     1      -8.397   2.753  -5.348  0.00  0.00    +0.005 A 
ATOM     18  C   UNL     1      -8.070   2.632  -4.010  0.00  0.00    -0.027 A 
ENDBRANCH  11  18
ENDBRANCH   7  11
ENDBRANCH   1   8
BRANCH   4  19
ATOM     19  S   UNL     1      -0.226   1.131   0.008  0.00  0.00    +0.062 S 
ATOM     20  O   UNL     1      -0.269  -0.284   0.129  0.00  0.00    -0.153 OA
ATOM     21  O   UNL     1       0.992   1.846  -0.146  0.00  0.00    -0.153 OA
BRANCH  19  22
ATOM     22  C   UNL     1      -1.016   1.784   1.441  0.00  0.00    +0.124 A 
ATOM     23  C   UNL     1      -1.957   1.121   2.236  0.00  0.00    +0.061 A 
ATOM     24  C   UNL     1      -2.315   1.988   3.247  0.00  0.00    +0.106 A 
ATOM     25  N   UNL     1      -1.603   3.152   3.066  0.00  0.00    -0.344 N 
ATOM     26  C   UNL     1      -0.816   3.013   1.972  0.00  0.00    +0.114 A 
ATOM     27  C   UNL     1      -1.680   4.341   3.919  0.00  0.00    +0.149 C 
BRANCH  24  28
ATOM     28  C   UNL     1      -3.279   1.719   4.319  0.00  0.00    +0.258 C 
ATOM     29  O   UNL     1      -3.433   2.527   5.216  0.00  0.00    -0.269 OA
ATOM     30  N   UNL     1      -3.994   0.576   4.311  0.00  0.00    -0.324 N 
ATOM     31  H   UNL     1      -3.819  -0.101   3.639  0.00  0.00    +0.145 HD
ATOM     32  H   UNL     1      -4.682   0.430   4.979  0.00  0.00    +0.145 HD
ENDBRANCH  24  28
ENDBRANCH  19  22
ENDBRANCH   4  19
TORSDOF 6
