REMARK  Name = ZINC39863664
REMARK  7 active torsions:
REMARK  status: ('A' for Active; 'I' for Inactive)
REMARK    1  A    between atoms: C_1  and  C_2
REMARK    2  A    between atoms: C_6  and  N_8
REMARK    3  A    between atoms: N_10  and  C_25
REMARK    4  A    between atoms: C_14  and  C_15
REMARK    5  A    between atoms: C_18  and  O_23
REMARK    6  A    between atoms: C_19  and  O_21
REMARK    7  A    between atoms: O_21  and  C_22
REMARK                            x       y       z     vdW  Elec       q    Type
REMARK                         _______ _______ _______ _____ _____    ______ ____
ROOT
ATOM      1  N   UNL     1       1.997  -1.607   2.677  0.00  0.00    -0.206 NA
ATOM      2  C   UNL     1       1.454  -1.008   3.715  0.00  0.00    +0.170 C 
ATOM      3  N   UNL     1       0.963   0.275   3.802  0.00  0.00    -0.243 N 
ATOM      4  C   UNL     1       0.446   0.725   4.933  0.00  0.00    +0.259 C 
ATOM      5  O   UNL     1       0.006   1.856   5.027  0.00  0.00    -0.269 OA
ATOM      6  C   UNL     1       0.424  -0.208   6.076  0.00  0.00    +0.078 C 
ATOM      7  C   UNL     1      -0.041  -0.015   7.336  0.00  0.00    +0.028 C 
ATOM      8  S   UNL     1       1.169  -1.662   5.352  0.00  0.00    -0.049 S 
ENDROOT
BRANCH   1  14
ATOM      9  C   UNL     1       0.526  -0.076  -1.594  0.00  0.00    +0.065 C 
ATOM     10  C   UNL     1       1.590  -0.139  -0.529  0.00  0.00    +0.041 A 
ATOM     11  C   UNL     1       2.791   0.514  -0.727  0.00  0.00    +0.023 A 
ATOM     12  C   UNL     1       3.772   0.455   0.257  0.00  0.00    +0.005 A 
ATOM     13  C   UNL     1       3.509  -0.260   1.409  0.00  0.00    +0.048 A 
ATOM     14  C   UNL     1       2.272  -0.897   1.546  0.00  0.00    +0.155 A 
ATOM     15  N   UNL     1       1.359  -0.811   0.582  0.00  0.00    -0.233 NA
ENDBRANCH   1  14
BRANCH   7  16
ATOM     16  C   UNL     1       0.251  -1.001   8.385  0.00  0.00    -0.020 A 
ATOM     17  C   UNL     1       1.153  -2.043   8.139  0.00  0.00    +0.012 A 
ATOM     18  C   UNL     1       1.425  -2.966   9.125  0.00  0.00    +0.050 A 
ATOM     19  C   UNL     1       0.807  -2.865  10.364  0.00  0.00    +0.158 A 
ATOM     20  C   UNL     1      -0.092  -1.830  10.618  0.00  0.00    +0.162 A 
ATOM     21  C   UNL     1      -0.368  -0.898   9.637  0.00  0.00    +0.057 A 
BRANCH  20  22
ATOM     22  O   UNL     1      -0.695  -1.737  11.834  0.00  0.00    -0.491 OA
ATOM     23  C   UNL     1      -1.605  -0.651  12.024  0.00  0.00    +0.277 C 
ENDBRANCH  20  22
BRANCH  19  24
ATOM     24  O   UNL     1       1.079  -3.778  11.332  0.00  0.00    -0.503 OA
ATOM     25  H   UNL     1       1.822  -3.537  11.903  0.00  0.00    +0.292 HD
ENDBRANCH  19  24
ENDBRANCH   7  16
BRANCH   3  26
ATOM     26  C   UNL     1       1.014   1.152   2.629  0.00  0.00    +0.084 C 
ATOM     27  C   UNL     1       1.704   2.465   3.003  0.00  0.00    +0.023 C 
ATOM     28  C   UNL     1       1.757   3.380   1.779  0.00  0.00    +0.002 C 
ATOM     29  C   UNL     1       0.335   3.672   1.298  0.00  0.00    +0.000 C 
ATOM     30  C   UNL     1      -0.356   2.359   0.924  0.00  0.00    +0.002 C 
ATOM     31  C   UNL     1      -0.409   1.443   2.148  0.00  0.00    +0.023 C 
ENDBRANCH   3  26
TORSDOF 5
