REMARK  Name = ZINC38044415
REMARK  5 active torsions:
REMARK  status: ('A' for Active; 'I' for Inactive)
REMARK    1  A    between atoms: C_2  and  S_10
REMARK    2  A    between atoms: C_5  and  C_6
REMARK    3  A    between atoms: S_10  and  N_13
REMARK    4  A    between atoms: N_13  and  C_14
REMARK    5  A    between atoms: C_14  and  C_15
REMARK                            x       y       z     vdW  Elec       q    Type
REMARK                         _______ _______ _______ _____ _____    ______ ____
ROOT
ATOM      1  S   UNL     1       1.332   3.756   0.009  0.00  0.00    +0.060 S 
ATOM      2  O   UNL     1       2.244   4.104  -1.024  0.00  0.00    -0.153 OA
ATOM      3  O   UNL     1       0.002   4.255   0.051  0.00  0.00    -0.153 OA
ENDROOT
BRANCH   1   5
ATOM      4  C   UNL     1      -0.017   1.386   0.010  0.00  0.00    +0.052 A 
ATOM      5  C   UNL     1       1.211   1.998   0.001  0.00  0.00    +0.127 A 
ATOM      6  C   UNL     1       2.332   1.230  -0.014  0.00  0.00    +0.082 A 
ATOM      7  S   UNL     1       1.752  -0.346  -0.017  0.00  0.00    -0.073 S 
ATOM      8  C   UNL     1       0.002  -0.004   0.002  0.00  0.00    +0.103 A 
ATOM      9 BR   UNL     1       4.133   1.805  -0.028  0.00  0.00    -0.041 Br
BRANCH   8  10
ATOM     10  C   UNL     1      -1.085  -0.912   0.008  0.00  0.00    +0.393 C 
ATOM     11  O   UNL     1      -2.235  -0.490   0.022  0.00  0.00    -0.240 OA
ATOM     12  O   UNL     1      -0.876  -2.119  -0.001  0.00  0.00    -0.240 OA
ENDBRANCH   8  10
ENDBRANCH   1   5
BRANCH   1  13
ATOM     13  N   UNL     1       2.046   4.191   1.438  0.00  0.00    -0.190 NA
ATOM     14  H   UNL     1       1.548   4.706   2.092  0.00  0.00    +0.148 HD
BRANCH  13  15
ATOM     15  C   UNL     1       3.430   3.798   1.715  0.00  0.00    +0.111 C 
BRANCH  15  16
ATOM     16  C   UNL     1       3.967   4.616   2.891  0.00  0.00    +0.030 C 
ATOM     17  C   UNL     1       5.369   4.122   3.260  0.00  0.00    +0.009 C 
ATOM     18  C   UNL     1       5.927   4.999   4.386  0.00  0.00    +0.028 C 
ATOM     19  C   UNL     1       5.927   6.461   3.932  0.00  0.00    +0.160 C 
ATOM     20  O   UNL     1       4.598   6.847   3.575  0.00  0.00    -0.379 OA
ATOM     21  C   UNL     1       4.041   6.093   2.496  0.00  0.00    +0.164 C 
ENDBRANCH  15  16
ENDBRANCH  13  15
ENDBRANCH   1  13
TORSDOF 5
