REMARK  Name = ZINC16904382
REMARK  6 active torsions:
REMARK  status: ('A' for Active; 'I' for Inactive)
REMARK    1  A    between atoms: C_1  and  C_2
REMARK    2  A    between atoms: C_6  and  C_8
REMARK    3  A    between atoms: N_12  and  C_24
REMARK    4  A    between atoms: N_14  and  C_15
REMARK    5  A    between atoms: C_18  and  C_22
REMARK    6  A    between atoms: C_20  and  O_21
REMARK                            x       y       z     vdW  Elec       q    Type
REMARK                         _______ _______ _______ _____ _____    ______ ____
ROOT
ATOM      1  C   UNL     1       1.027   5.266   0.013  0.00  0.00    +0.028 C 
ATOM      2  C   UNL     1       0.738   4.056   0.554  0.00  0.00    +0.078 C 
ATOM      3  C   UNL     1      -0.510   3.589   1.192  0.00  0.00    +0.259 C 
ATOM      4  O   UNL     1      -1.481   4.314   1.298  0.00  0.00    -0.269 OA
ATOM      5  N   UNL     1      -0.525   2.344   1.637  0.00  0.00    -0.249 N 
ATOM      6  C   UNL     1       0.588   1.540   1.512  0.00  0.00    +0.168 C 
ATOM      7  N   UNL     1       0.743   0.294   1.899  0.00  0.00    -0.222 NA
ATOM      8  S   UNL     1       1.765   2.600   0.689  0.00  0.00    -0.049 S 
ATOM      9  C   UNL     1      -1.734   1.815   2.272  0.00  0.00    +0.140 C 
ENDROOT
BRANCH   1  15
ATOM     10  C   UNL     1       4.275   8.287  -2.262  0.00  0.00    +0.044 C 
ATOM     11  C   UNL     1       3.978   7.038  -1.472  0.00  0.00    -0.050 A 
ATOM     12  C   UNL     1       5.010   6.189  -1.111  0.00  0.00    +0.003 A 
ATOM     13  C   UNL     1       4.749   5.040  -0.385  0.00  0.00    +0.001 A 
ATOM     14  C   UNL     1       3.457   4.735  -0.011  0.00  0.00    +0.008 A 
ATOM     15  C   UNL     1       2.408   5.586  -0.377  0.00  0.00    -0.024 A 
ATOM     16  C   UNL     1       2.681   6.746  -1.111  0.00  0.00    +0.011 A 
ENDBRANCH   1  15
BRANCH   7  17
ATOM     17  C   UNL     1       1.967  -0.309   1.791  0.00  0.00    +0.108 A 
ATOM     18  C   UNL     1       3.125   0.384   2.144  0.00  0.00    +0.032 A 
ATOM     19  C   UNL     1       4.356  -0.230   2.033  0.00  0.00    +0.005 A 
ATOM     20  C   UNL     1       4.447  -1.531   1.570  0.00  0.00    -0.047 A 
ATOM     21  C   UNL     1       3.305  -2.228   1.217  0.00  0.00    +0.051 A 
ATOM     22  C   UNL     1       2.063  -1.629   1.329  0.00  0.00    +0.142 A 
ATOM     23  C   UNL     1       5.796  -2.192   1.452  0.00  0.00    +0.044 C 
BRANCH  22  24
ATOM     24  O   UNL     1       0.941  -2.315   0.988  0.00  0.00    -0.505 OA
ATOM     25  H   UNL     1       0.688  -2.219   0.060  0.00  0.00    +0.292 HD
ENDBRANCH  22  24
ENDBRANCH   7  17
TORSDOF 3
