REMARK  Name = ZINC05184898
REMARK  3 active torsions:
REMARK  status: ('A' for Active; 'I' for Inactive)
REMARK    1  A    between atoms: C_1  and  N_2
REMARK    2  A    between atoms: C_6  and  C_7
REMARK    3  A    between atoms: N_13  and  C_14
REMARK                            x       y       z     vdW  Elec       q    Type
REMARK                         _______ _______ _______ _____ _____    ______ ____
ROOT
ATOM      1  C   UNL     1      -1.152   2.241   0.027  0.00  0.00    +0.046 C 
ATOM      2  C   UNL     1      -2.401   1.704  -0.070  0.00  0.00    +0.079 C 
ATOM      3  C   UNL     1      -3.703   2.383  -0.169  0.00  0.00    +0.256 C 
ATOM      4  O   UNL     1      -3.788   3.598  -0.174  0.00  0.00    -0.269 OA
ATOM      5  N   UNL     1      -4.776   1.616  -0.258  0.00  0.00    -0.260 N 
ATOM      6  C   UNL     1      -4.660   0.243  -0.244  0.00  0.00    +0.166 C 
ATOM      7  N   UNL     1      -5.614  -0.659  -0.317  0.00  0.00    -0.224 NA
ATOM      8  S   UNL     1      -2.899  -0.012  -0.103  0.00  0.00    -0.049 S 
ATOM      9  H   UNL     1      -5.653   2.023  -0.329  0.00  0.00    +0.157 HD
ENDROOT
BRANCH   7  10
ATOM     10  C   UNL     1      -6.921  -0.267  -0.422  0.00  0.00    +0.086 A 
ATOM     11  C   UNL     1      -7.264   0.818  -1.232  0.00  0.00    +0.029 A 
ATOM     12  C   UNL     1      -8.583   1.209  -1.335  0.00  0.00    +0.004 A 
ATOM     13  C   UNL     1      -9.566   0.529  -0.637  0.00  0.00    +0.021 A 
ATOM     14  C   UNL     1      -9.234  -0.547   0.168  0.00  0.00    +0.061 A 
ATOM     15  C   UNL     1      -7.918  -0.953   0.276  0.00  0.00    +0.085 A 
ATOM     16 CL   UNL     1      -7.504  -2.307   1.280  0.00  0.00    -0.080 Cl
ATOM     17 CL   UNL     1     -10.476  -1.393   1.039  0.00  0.00    -0.082 Cl
ENDBRANCH   7  10
BRANCH   1  23
ATOM     18  C   UNL     1       1.766   3.191  -0.017  0.00  0.00    +0.149 C 
ATOM     19  N   UNL     1       1.300   1.802  -0.011  0.00  0.00    -0.350 N 
ATOM     20  C   UNL     1       2.094   0.699  -0.023  0.00  0.00    +0.086 A 
ATOM     21  C   UNL     1       1.310  -0.406  -0.013  0.00  0.00    +0.020 A 
ATOM     22  C   UNL     1      -0.024   0.013   0.005  0.00  0.00    +0.027 A 
ATOM     23  C   UNL     1      -0.016   1.397   0.006  0.00  0.00    +0.043 A 
ENDBRANCH   1  23
TORSDOF 2
