REMARK  Name = ZINC01182290
REMARK  5 active torsions:
REMARK  status: ('A' for Active; 'I' for Inactive)
REMARK    1  A    between atoms: C_1  and  C_2
REMARK    2  A    between atoms: C_2  and  C_3
REMARK    3  A    between atoms: C_15  and  C_17
REMARK    4  A    between atoms: C_20  and  N_23
REMARK    5  A    between atoms: C_29  and  C_32
REMARK                            x       y       z     vdW  Elec       q    Type
REMARK                         _______ _______ _______ _____ _____    ______ ____
ROOT
ATOM      1  C   UNL     1      -0.551   6.037  -0.817  0.00  0.00    +0.220 C 
ATOM      2  O   UNL     1      -0.511   7.245  -0.717  0.00  0.00    -0.275 OA
ATOM      3  N   UNL     1      -0.072   5.262   0.175  0.00  0.00    -0.258 N 
ATOM      4  C   UNL     1      -0.123   3.873   0.048  0.00  0.00    +0.058 A 
ATOM      5  C   UNL     1      -1.330   3.192   0.030  0.00  0.00    +0.025 A 
ATOM      6  C   UNL     1      -1.330   1.809  -0.024  0.00  0.00    +0.002 A 
ATOM      7  C   UNL     1      -0.138   1.109  -0.055  0.00  0.00    +0.002 A 
ATOM      8  C   UNL     1       1.069   1.787  -0.065  0.00  0.00    +0.025 A 
ATOM      9  C   UNL     1       1.071   3.170  -0.021  0.00  0.00    +0.053 A 
ATOM     10  N   UNL     1       2.241   3.916  -0.094  0.00  0.00    -0.316 N 
ATOM     11  C   UNL     1       2.707   4.730   0.887  0.00  0.00    +0.017 C 
ATOM     12  C   UNL     1       1.963   5.626   1.558  0.00  0.00    +0.037 C 
ATOM     13  C   UNL     1       0.489   5.881   1.357  0.00  0.00    +0.147 C 
ATOM     14  C   UNL     1       2.550   6.427   2.566  0.00  0.00    +0.163 C 
ATOM     15  O   UNL     1       1.860   7.246   3.140  0.00  0.00    -0.292 OA
ATOM     16  C   UNL     1       3.994   6.301   2.952  0.00  0.00    +0.088 C 
ATOM     17  C   UNL     1       4.452   4.866   2.666  0.00  0.00    +0.032 C 
ATOM     18  C   UNL     1       4.189   4.580   1.188  0.00  0.00    +0.059 C 
ATOM     19  H   UNL     1       2.765   3.849  -0.907  0.00  0.00    +0.152 HD
ENDROOT
BRANCH  13  20
ATOM     20  C   UNL     1      -0.254   5.368   2.563  0.00  0.00    -0.022 A 
ATOM     21  C   UNL     1      -0.236   4.019   2.864  0.00  0.00    +0.008 A 
ATOM     22  C   UNL     1      -0.914   3.548   3.973  0.00  0.00    +0.033 A 
ATOM     23  C   UNL     1      -1.617   4.426   4.777  0.00  0.00    +0.126 A 
ATOM     24  C   UNL     1      -1.639   5.774   4.474  0.00  0.00    +0.033 A 
ATOM     25  C   UNL     1      -0.958   6.245   3.367  0.00  0.00    +0.008 A 
BRANCH  23  26
ATOM     26  N   UNL     1      -2.345   3.922   5.963  0.00  0.00    +0.056 N 
ATOM     27  O   UNL     1      -2.965   4.695   6.671  0.00  0.00    -0.126 OA
ATOM     28  O   UNL     1      -2.326   2.734   6.230  0.00  0.00    -0.126 OA
ENDBRANCH  23  26
ENDBRANCH  13  20
BRANCH  17  29
ATOM     29  C   UNL     1       5.925   4.733   2.957  0.00  0.00    -0.044 A 
ATOM     30  C   UNL     1       6.836   5.534   2.295  0.00  0.00    +0.004 A 
ATOM     31  C   UNL     1       8.186   5.415   2.565  0.00  0.00    +0.000 A 
ATOM     32  C   UNL     1       8.626   4.488   3.492  0.00  0.00    +0.000 A 
ATOM     33  C   UNL     1       7.715   3.683   4.150  0.00  0.00    +0.000 A 
ATOM     34  C   UNL     1       6.365   3.805   3.883  0.00  0.00    +0.004 A 
ENDBRANCH  17  29
BRANCH   1  36
ATOM     35  C   UNL     1      -1.605   6.497  -3.015  0.00  0.00    +0.013 C 
ATOM     36  C   UNL     1      -1.137   5.403  -2.053  0.00  0.00    +0.093 C 
ENDBRANCH   1  36
TORSDOF 4
