REMARK  Name = ZINC22436604
REMARK  5 active torsions:
REMARK  status: ('A' for Active; 'I' for Inactive)
REMARK    1  A    between atoms: C_1  and  C_2
REMARK    2  A    between atoms: C_2  and  N_3
REMARK    3  A    between atoms: N_3  and  C_4
REMARK    4  A    between atoms: C_4  and  C_10
REMARK    5  A    between atoms: N_14  and  C_15
REMARK                            x       y       z     vdW  Elec       q    Type
REMARK                         _______ _______ _______ _____ _____    ______ ____
ROOT
ATOM      1  C   UNL     1      -4.883  -0.385   0.667  0.00  0.00    +0.146 A 
ATOM      2  N   UNL     1      -4.537  -1.581   1.065  0.00  0.00    -0.114 NA
ATOM      3  N   UNL     1      -4.764  -2.448   0.145  0.00  0.00    -0.023 NA
ATOM      4  N   UNL     1      -5.270  -1.873  -0.893  0.00  0.00    -0.039 NA
ATOM      5  N   UNL     1      -5.359  -0.503  -0.591  0.00  0.00    -0.198 N 
ENDROOT
BRANCH   5   6
ATOM      6  C   UNL     1      -5.846   0.521  -1.417  0.00  0.00    +0.073 A 
ATOM      7  C   UNL     1      -6.722   1.469  -0.906  0.00  0.00    +0.032 A 
ATOM      8  C   UNL     1      -7.205   2.475  -1.720  0.00  0.00    +0.051 A 
ATOM      9  C   UNL     1      -6.812   2.545  -3.049  0.00  0.00    +0.162 A 
ATOM     10  C   UNL     1      -5.933   1.599  -3.563  0.00  0.00    +0.164 A 
ATOM     11  C   UNL     1      -5.453   0.587  -2.746  0.00  0.00    +0.077 A 
ATOM     12  O   UNL     1      -5.535   1.652  -4.864  0.00  0.00    -0.485 OA
ATOM     13  C   UNL     1      -6.327   2.454  -5.746  0.00  0.00    +0.270 C 
ATOM     14  C   UNL     1      -6.599   3.799  -5.059  0.00  0.00    +0.270 C 
ATOM     15  O   UNL     1      -7.299   3.543  -3.836  0.00  0.00    -0.485 OA
ENDBRANCH   5   6
BRANCH   1  16
ATOM     16  C   UNL     1      -4.770   0.889   1.464  0.00  0.00    -0.005 C 
ATOM     17  C   UNL     1      -3.515   0.835   2.337  0.00  0.00    -0.005 C 
ATOM     18  C   UNL     1      -3.400   2.129   3.146  0.00  0.00    -0.001 C 
ATOM     19  C   UNL     1      -4.635   2.285   4.036  0.00  0.00    -0.000 C 
ATOM     20  C   UNL     1      -5.890   2.339   3.163  0.00  0.00    -0.001 C 
ATOM     21  C   UNL     1      -6.004   1.045   2.354  0.00  0.00    -0.005 C 
BRANCH  16  22
ATOM     22  N   UNL     1      -4.679   2.034   0.547  0.00  0.00    +0.387 N 
ATOM     23  H   UNL     1      -4.708   2.961   1.137  0.00  0.00    -0.085 HD
ATOM     24  H   UNL     1      -5.541   2.007  -0.136  0.00  0.00    -0.085 HD
BRANCH  22  26
ATOM     25  C   UNL     1      -3.413   3.148  -1.228  0.00  0.00    -0.017 C 
ATOM     26  C   UNL     1      -3.435   1.987  -0.232  0.00  0.00    -0.085 C 
ENDBRANCH  22  26
ENDBRANCH  16  22
ENDBRANCH   1  16
TORSDOF 4
