REMARK  Name = ZINC21264017
REMARK  14 active torsions:
REMARK  status: ('A' for Active; 'I' for Inactive)
REMARK    1  A    between atoms: C_1  and  C_2
REMARK    2  A    between atoms: C_2  and  C_25
REMARK    3  A    between atoms: C_4  and  N_10
REMARK    4  A    between atoms: C_6  and  C_8
REMARK    5  A    between atoms: C_6  and  C_9
REMARK    6  A    between atoms: N_10  and  C_11
REMARK    7  A    between atoms: C_11  and  N_13
REMARK    8  A    between atoms: N_13  and  C_14
REMARK    9  A    between atoms: N_13  and  C_19
REMARK   10  A    between atoms: C_14  and  C_15
REMARK   11  A    between atoms: C_15  and  N_16
REMARK   12  A    between atoms: N_16  and  C_17
REMARK   13  A    between atoms: N_16  and  C_18
REMARK   14  A    between atoms: C_19  and  C_20
REMARK                            x       y       z     vdW  Elec       q    Type
REMARK                         _______ _______ _______ _____ _____    ______ ____
ROOT
ATOM      1  C   UNL     1      -2.431  -0.539   2.039  0.00  0.00    +0.133 C 
ATOM      2  S   UNL     1      -2.854  -0.912   3.656  0.00  0.00    -0.019 S 
ENDROOT
BRANCH   1   3
ATOM      3  N   UNL     1      -3.012   0.505   1.415  0.00  0.00    -0.324 N 
ATOM      4  H   UNL     1      -2.740   0.745   0.376  0.00  0.00    +0.148 HD
BRANCH   3   8
ATOM      5  C   UNL     1      -4.554   4.024   3.569  0.00  0.00    -0.010 C 
ATOM      6  C   UNL     1      -5.088   3.584   2.201  0.00  0.00    -0.072 C 
ATOM      7  C   UNL     1      -4.044   2.718   1.501  0.00  0.00    +0.009 C 
ATOM      8  C   UNL     1      -4.007   1.321   2.121  0.00  0.00    +0.069 C 
ATOM      9  C   UNL     1      -5.387   0.683   1.961  0.00  0.00    +0.009 C 
ATOM     10  C   UNL     1      -6.446   1.524   2.669  0.00  0.00    -0.072 C 
ATOM     11  N   UNL     1      -6.373   2.929   2.327  0.00  0.00    +0.386 N 
ATOM     12  C   UNL     1      -6.337   1.316   4.184  0.00  0.00    -0.010 C 
ATOM     13  C   UNL     1      -7.830   0.992   2.233  0.00  0.00    -0.010 C 
ATOM     14  C   UNL     1      -5.279   4.860   1.352  0.00  0.00    -0.010 C 
ATOM     15  H   UNL     1      -6.960   3.422   3.116  0.00  0.00    -0.084 HD
ATOM     16  H   UNL     1      -6.914   2.995   1.371  0.00  0.00    -0.084 HD
ENDBRANCH   3   8
ENDBRANCH   1   3
BRANCH   1  17
ATOM     17  N   UNL     1      -1.517  -1.288   1.391  0.00  0.00    -0.310 N 
BRANCH  17  18
ATOM     18  C   UNL     1      -0.886  -2.423   2.070  0.00  0.00    +0.088 C 
BRANCH  18  19
ATOM     19  C   UNL     1       0.383  -1.950   2.782  0.00  0.00    -0.060 C 
BRANCH  19  20
ATOM     20  N   UNL     1       1.016  -3.087   3.462  0.00  0.00    +0.377 N 
ATOM     21  C   UNL     1       1.507  -4.074   2.492  0.00  0.00    -0.097 C 
ATOM     22  C   UNL     1       2.098  -2.635   4.347  0.00  0.00    -0.097 C 
ATOM     23  H   UNL     1       0.252  -3.576   4.085  0.00  0.00    -0.083 HD
ENDBRANCH  19  20
ENDBRANCH  18  19
ENDBRANCH  17  18
BRANCH  17  24
ATOM     24  C   UNL     1      -1.155  -0.969   0.008  0.00  0.00    +0.149 C 
BRANCH  24  25
ATOM     25  C   UNL     1       0.002  -0.004   0.002  0.00  0.00    +0.007 A 
ATOM     26  C   UNL     1       1.332  -0.266  -0.012  0.00  0.00    +0.013 A 
ATOM     27  C   UNL     1       2.223   0.790  -0.015  0.00  0.00    +0.008 A 
ATOM     28  C   UNL     1       1.742   2.057  -0.004  0.00  0.00    +0.045 A 
ATOM     29  S   UNL     1      -0.022   1.781   0.012  0.00  0.00    -0.100 S 
ENDBRANCH  24  25
ENDBRANCH  17  24
ENDBRANCH   1  17
TORSDOF 8
