REMARK  Name = ZINC63527349
REMARK  8 active torsions:
REMARK  status: ('A' for Active; 'I' for Inactive)
REMARK    1  A    between atoms: C_1  and  C_2
REMARK    2  A    between atoms: C_9  and  C_13
REMARK    3  A    between atoms: C_13  and  S_14
REMARK    4  A    between atoms: S_14  and  C_15
REMARK    5  A    between atoms: C_18  and  C_21
REMARK    6  A    between atoms: N_19  and  C_20
REMARK    7  A    between atoms: C_21  and  C_22
REMARK    8  A    between atoms: C_23  and  C_34
REMARK                            x       y       z     vdW  Elec       q    Type
REMARK                         _______ _______ _______ _____ _____    ______ ____
ROOT
ATOM      1  C   UNL     1       1.282   1.762   6.787  0.00  0.00    +0.192 A 
ATOM      2  N   UNL     1       0.204   1.987   7.502  0.00  0.00    -0.122 NA
ATOM      3  N   UNL     1       0.523   2.572   8.601  0.00  0.00    -0.133 NA
ATOM      4  C   UNL     1       1.812   2.753   8.653  0.00  0.00    +0.138 A 
ATOM      5  N   UNL     1       2.343   2.239   7.503  0.00  0.00    -0.309 N 
ATOM      6  C   UNL     1       3.756   2.208   7.117  0.00  0.00    +0.152 C 
ENDROOT
BRANCH   1   7
ATOM      7  S   UNL     1       1.349   0.985   5.207  0.00  0.00    -0.080 S 
BRANCH   7   8
ATOM      8  C   UNL     1      -0.385   0.601   4.834  0.00  0.00    +0.130 C 
BRANCH   8  17
ATOM      9  C   UNL     1       0.020   2.376   0.095  0.00  0.00    +0.046 C 
ATOM     10  C   UNL     1      -0.228   0.894  -0.028  0.00  0.00    -0.026 A 
ATOM     11  C   UNL     1      -0.294   0.304  -1.271  0.00  0.00    +0.005 A 
ATOM     12  C   UNL     1      -0.522  -1.059  -1.397  0.00  0.00    +0.001 A 
ATOM     13  C   UNL     1      -0.686  -1.841  -0.288  0.00  0.00    +0.014 A 
ATOM     14  C   UNL     1      -0.623  -1.264   0.980  0.00  0.00    +0.045 A 
ATOM     15  C   UNL     1      -0.386   0.116   1.115  0.00  0.00    +0.053 A 
ATOM     16  N   UNL     1      -0.319   0.673   2.372  0.00  0.00    -0.357 N 
ATOM     17  C   UNL     1      -0.471  -0.077   3.490  0.00  0.00    +0.030 A 
ATOM     18  C   UNL     1      -0.695  -1.406   3.448  0.00  0.00    +0.073 A 
ATOM     19  C   UNL     1      -0.792  -2.070   2.202  0.00  0.00    +0.190 A 
ATOM     20  O   UNL     1      -0.995  -3.271   2.142  0.00  0.00    -0.287 OA
ATOM     21  H   UNL     1      -0.160   1.626   2.459  0.00  0.00    +0.166 HD
ENDBRANCH   8  17
ENDBRANCH   7   8
ENDBRANCH   1   7
BRANCH   4  22
ATOM     22  C   UNL     1       2.577   3.404   9.777  0.00  0.00    +0.118 C 
BRANCH  22  23
ATOM     23  C   UNL     1       2.546   4.901   9.605  0.00  0.00    +0.039 C 
ATOM     24  C   UNL     1       1.597   5.607  10.241  0.00  0.00    +0.011 C 
ATOM     25  N   UNL     1       1.535   6.971  10.146  0.00  0.00    -0.325 N 
ATOM     26  C   UNL     1       2.559   7.666   9.354  0.00  0.00    +0.190 C 
ATOM     27  C   UNL     1       1.857   8.556   8.363  0.00  0.00    +0.015 C 
ATOM     28  C   UNL     1       2.488   8.948   7.257  0.00  0.00    +0.000 C 
ATOM     29  C   UNL     1       3.871   8.518   7.005  0.00  0.00    +0.015 C 
ATOM     30  C   UNL     1       4.351   7.455   7.681  0.00  0.00    +0.080 C 
ATOM     31  N   UNL     1       3.519   6.842   8.606  0.00  0.00    -0.252 N 
ATOM     32  C   UNL     1       3.519   5.512   8.785  0.00  0.00    +0.250 C 
ATOM     33  O   UNL     1       4.371   4.829   8.244  0.00  0.00    -0.270 OA
ATOM     34  C   UNL     1       0.577   4.881  11.079  0.00  0.00    +0.061 C 
ATOM     35  H   UNL     1       0.831   7.468  10.591  0.00  0.00    +0.148 HD
ENDBRANCH  22  23
ENDBRANCH   4  22
TORSDOF 5
