REMARK  Name = ZINC09374905
REMARK  8 active torsions:
REMARK  status: ('A' for Active; 'I' for Inactive)
REMARK    1  A    between atoms: C_1  and  O_2
REMARK    2  A    between atoms: O_2  and  C_3
REMARK    3  A    between atoms: C_5  and  C_11
REMARK    4  A    between atoms: C_8  and  O_9
REMARK    5  A    between atoms: C_17  and  S_21
REMARK    6  A    between atoms: C_18  and  C_19
REMARK    7  A    between atoms: S_21  and  C_22
REMARK    8  A    between atoms: C_22  and  C_23
REMARK                            x       y       z     vdW  Elec       q    Type
REMARK                         _______ _______ _______ _____ _____    ______ ____
ROOT
ATOM      1  C   UNL     1       2.544  -2.799  -0.039  0.00  0.00    +0.071 C 
ATOM      2  C   UNL     1       2.625  -3.670  -1.294  0.00  0.00    +0.109 C 
ATOM      3  C   UNL     1       1.694  -4.846  -1.153  0.00  0.00    +0.218 C 
ATOM      4  O   UNL     1       1.125  -5.284  -2.131  0.00  0.00    -0.275 OA
ATOM      5  N   UNL     1       1.489  -5.414   0.049  0.00  0.00    -0.279 N 
ATOM      6  C   UNL     1       2.122  -4.929   1.174  0.00  0.00    +0.082 C 
ATOM      7  C   UNL     1       2.647  -3.672   1.184  0.00  0.00    +0.065 C 
ATOM      8  H   UNL     1       0.811  -6.275   0.142  0.00  0.00    +0.155 HD
ENDROOT
BRANCH   1  11
ATOM      9  C   UNL     1       0.002  -0.004   0.002  0.00  0.00    +0.163 A 
ATOM     10  C   UNL     1       1.211  -0.682  -0.019  0.00  0.00    +0.053 A 
ATOM     11  C   UNL     1       1.228  -2.064  -0.022  0.00  0.00    -0.034 A 
ATOM     12  C   UNL     1       0.042  -2.774  -0.014  0.00  0.00    +0.023 A 
ATOM     13  C   UNL     1      -1.168  -2.104   0.001  0.00  0.00    +0.063 A 
ATOM     14  C   UNL     1      -1.192  -0.717   0.010  0.00  0.00    +0.173 A 
ATOM     15 BR   UNL     1      -2.789  -3.078   0.011  0.00  0.00    -0.046 Br
BRANCH   9  17
ATOM     16  C   UNL     1       1.248   2.022   0.001  0.00  0.00    +0.277 C 
ATOM     17  O   UNL     1      -0.016   1.356   0.009  0.00  0.00    -0.491 OA
ENDBRANCH   9  17
BRANCH  14  18
ATOM     18  O   UNL     1      -2.381  -0.056   0.025  0.00  0.00    -0.503 OA
ATOM     19  H   UNL     1      -3.325  -0.622   0.031  0.00  0.00    +0.292 HD
ENDBRANCH  14  18
ENDBRANCH   1  11
BRANCH   7  20
ATOM     20  C   UNL     1       3.302  -3.181   2.360  0.00  0.00    +0.098 C 
ATOM     21  N   UNL     1       3.821  -2.791   3.292  0.00  0.00    -0.191 NA
ENDBRANCH   7  20
BRANCH   6  22
ATOM     22  S   UNL     1       2.249  -5.941   2.611  0.00  0.00    -0.104 S 
BRANCH  22  23
ATOM     23  C   UNL     1       1.404  -7.430   2.022  0.00  0.00    +0.112 C 
BRANCH  23  24
ATOM     24  C   UNL     1       1.391  -8.466   3.116  0.00  0.00    -0.019 A 
ATOM     25  C   UNL     1       0.343  -8.507   4.016  0.00  0.00    +0.006 A 
ATOM     26  C   UNL     1       0.331  -9.457   5.020  0.00  0.00    +0.000 A 
ATOM     27  C   UNL     1       1.366 -10.368   5.124  0.00  0.00    +0.001 A 
ATOM     28  C   UNL     1       2.414 -10.328   4.224  0.00  0.00    +0.020 A 
ATOM     29  C   UNL     1       2.425  -9.380   3.216  0.00  0.00    +0.045 A 
ATOM     30 CL   UNL     1       3.737  -9.333   2.081  0.00  0.00    -0.083 Cl
ENDBRANCH  23  24
ENDBRANCH  22  23
ENDBRANCH   6  22
TORSDOF 7
