REMARK  Name = ZINC59227861
REMARK  5 active torsions:
REMARK  status: ('A' for Active; 'I' for Inactive)
REMARK    1  A    between atoms: C_1  and  O_2
REMARK    2  A    between atoms: O_2  and  C_3
REMARK    3  A    between atoms: C_3  and  C_5
REMARK    4  A    between atoms: C_6  and  C_21
REMARK    5  A    between atoms: C_13  and  C_15
REMARK                            x       y       z     vdW  Elec       q    Type
REMARK                         _______ _______ _______ _____ _____    ______ ____
ROOT
ATOM      1  C   UNL     1      -1.415  -2.183  -0.627  0.00  0.00    +0.087 C 
ATOM      2  C   UNL     1      -2.459  -2.642   0.110  0.00  0.00    +0.053 C 
ATOM      3  N   UNL     1      -2.421  -3.871   0.740  0.00  0.00    -0.283 N 
ATOM      4  C   UNL     1      -1.397  -4.738   0.385  0.00  0.00    +0.219 A 
ATOM      5  N   UNL     1      -1.247  -6.009   0.643  0.00  0.00    -0.201 NA
ATOM      6  C   UNL     1      -0.106  -6.444   0.098  0.00  0.00    +0.247 A 
ATOM      7  N   UNL     1       0.485  -5.449  -0.515  0.00  0.00    -0.156 NA
ATOM      8  N   UNL     1      -0.328  -4.329  -0.341  0.00  0.00    -0.221 N 
ATOM      9  C   UNL     1      -0.140  -2.961  -0.813  0.00  0.00    +0.179 C 
ATOM     10  H   UNL     1      -3.084  -4.118   1.403  0.00  0.00    +0.155 HD
ENDROOT
BRANCH   2  11
ATOM     11  C   UNL     1      -3.668  -1.805   0.242  0.00  0.00    -0.003 A 
ATOM     12  C   UNL     1      -4.870  -2.212  -0.340  0.00  0.00    +0.011 A 
ATOM     13  C   UNL     1      -5.996  -1.426  -0.213  0.00  0.00    +0.020 A 
ATOM     14  C   UNL     1      -5.936  -0.234   0.490  0.00  0.00    +0.041 A 
ATOM     15  C   UNL     1      -4.746   0.176   1.069  0.00  0.00    +0.020 A 
ATOM     16  C   UNL     1      -3.615  -0.605   0.954  0.00  0.00    +0.011 A 
ATOM     17 CL   UNL     1      -7.357   0.751   0.644  0.00  0.00    -0.084 Cl
ENDBRANCH   2  11
BRANCH   9  18
ATOM     18  C   UNL     1       0.965  -2.310  -0.023  0.00  0.00    -0.018 A 
ATOM     19  C   UNL     1       0.853  -2.184   1.349  0.00  0.00    +0.006 A 
ATOM     20  C   UNL     1       1.867  -1.587   2.074  0.00  0.00    +0.000 A 
ATOM     21  C   UNL     1       2.994  -1.115   1.427  0.00  0.00    +0.000 A 
ATOM     22  C   UNL     1       3.106  -1.241   0.055  0.00  0.00    +0.000 A 
ATOM     23  C   UNL     1       2.094  -1.842  -0.669  0.00  0.00    +0.006 A 
ENDBRANCH   9  18
BRANCH   1  24
ATOM     24  C   UNL     1      -1.533  -0.926  -1.249  0.00  0.00    +0.339 C 
ATOM     25  O   UNL     1      -2.594  -0.329  -1.219  0.00  0.00    -0.245 OA
BRANCH  24  27
ATOM     26  C   UNL     1      -0.660   0.897  -2.487  0.00  0.00    +0.280 C 
ATOM     27  O   UNL     1      -0.469  -0.382  -1.878  0.00  0.00    -0.465 OA
ENDBRANCH  24  27
ENDBRANCH   1  24
TORSDOF 4
