REMARK  Name = ZINC45344154
REMARK  12 active torsions:
REMARK  status: ('A' for Active; 'I' for Inactive)
REMARK    1  A    between atoms: C_1  and  C_2
REMARK    2  A    between atoms: C_4  and  C_14
REMARK    3  A    between atoms: N_16  and  C_17
REMARK    4  A    between atoms: N_16  and  C_21
REMARK    5  A    between atoms: C_17  and  C_18
REMARK    6  A    between atoms: C_18  and  C_19
REMARK    7  A    between atoms: C_18  and  C_20
REMARK    8  A    between atoms: C_22  and  N_34
REMARK    9  A    between atoms: N_23  and  C_30
REMARK   10  A    between atoms: C_30  and  C_31
REMARK   11  A    between atoms: C_31  and  C_32
REMARK   12  A    between atoms: C_31  and  C_33
REMARK                            x       y       z     vdW  Elec       q    Type
REMARK                         _______ _______ _______ _____ _____    ______ ____
ROOT
ATOM      1  C   UNL     1       0.246  -0.317  -2.301  0.00  0.00    +0.264 C 
ATOM      2  O   UNL     1       0.970  -0.849  -1.486  0.00  0.00    -0.271 OA
ATOM      3  N   UNL     1       0.256   1.025  -2.438  0.00  0.00    -0.261 N 
ENDROOT
BRANCH   1   6
ATOM      4  C   UNL     1       0.443  -0.286  -5.235  0.00  0.00    +0.056 C 
ATOM      5  C   UNL     1       0.062  -1.547  -4.455  0.00  0.00    +0.220 C 
ATOM      6  C   UNL     1      -0.664  -1.155  -3.162  0.00  0.00    +0.299 C 
ATOM      7  O   UNL     1      -1.018  -2.356  -2.465  0.00  0.00    -0.472 OA
ATOM      8  C   UNL     1      -1.587  -3.346  -3.205  0.00  0.00    +0.163 A 
ATOM      9  C   UNL     1      -2.274  -4.366  -2.563  0.00  0.00    +0.049 A 
ATOM     10  C   UNL     1      -2.854  -5.381  -3.300  0.00  0.00    +0.004 A 
ATOM     11  C   UNL     1      -2.750  -5.383  -4.678  0.00  0.00    +0.004 A 
ATOM     12  C   UNL     1      -2.068  -4.370  -5.324  0.00  0.00    +0.049 A 
ATOM     13  C   UNL     1      -1.485  -3.347  -4.591  0.00  0.00    +0.163 A 
ATOM     14  O   UNL     1      -0.823  -2.352  -5.242  0.00  0.00    -0.481 OA
ENDBRANCH   1   6
BRANCH   3  15
ATOM     15  C   UNL     1      -0.667   1.653  -3.301  0.00  0.00    +0.140 A 
ATOM     16  C   UNL     1      -2.025   1.539  -3.080  0.00  0.00    +0.127 A 
ATOM     17  N   UNL     1      -2.900   2.163  -3.938  0.00  0.00    -0.280 N 
ATOM     18  C   UNL     1      -2.438   2.877  -4.981  0.00  0.00    +0.331 A 
ATOM     19  O   UNL     1      -3.228   3.421  -5.728  0.00  0.00    -0.246 OA
ATOM     20  N   UNL     1      -1.119   3.000  -5.212  0.00  0.00    -0.273 N 
ATOM     21  H   UNL     1      -0.811   3.520  -5.970  0.00  0.00    +0.173 HD
ATOM     22  C   UNL     1      -0.219   2.413  -4.398  0.00  0.00    +0.277 A 
ATOM     23  O   UNL     1       0.975   2.534  -4.614  0.00  0.00    -0.266 OA
BRANCH  16  24
ATOM     24  N   UNL     1      -2.496   0.809  -2.015  0.00  0.00    -0.343 N 
ATOM     25  H   UNL     1      -1.877   0.456  -1.357  0.00  0.00    +0.144 HD
ATOM     26  H   UNL     1      -3.448   0.648  -1.922  0.00  0.00    +0.144 HD
ENDBRANCH  16  24
BRANCH  17  27
ATOM     27  C   UNL     1      -4.343   2.049  -3.716  0.00  0.00    +0.131 C 
BRANCH  27  28
ATOM     28  C   UNL     1      -4.812   3.192  -2.813  0.00  0.00    +0.003 C 
ATOM     29  C   UNL     1      -6.335   3.147  -2.682  0.00  0.00    +0.009 C 
ATOM     30  C   UNL     1      -4.176   3.043  -1.429  0.00  0.00    +0.009 C 
ENDBRANCH  27  28
ENDBRANCH  17  27
ENDBRANCH   3  15
BRANCH   3  31
ATOM     31  C   UNL     1       1.225   1.831  -1.691  0.00  0.00    +0.117 C 
BRANCH  31  32
ATOM     32  C   UNL     1       0.652   2.169  -0.313  0.00  0.00    +0.001 C 
ATOM     33  C   UNL     1       1.718   2.884   0.521  0.00  0.00    +0.009 C 
ATOM     34  C   UNL     1      -0.564   3.083  -0.477  0.00  0.00    +0.009 C 
ENDBRANCH  31  32
ENDBRANCH   3  31
TORSDOF 7
