REMARK  Name = ZINC04221735
REMARK  11 active torsions:
REMARK  status: ('A' for Active; 'I' for Inactive)
REMARK    1  A    between atoms: C_1  and  C_2
REMARK    2  A    between atoms: C_4  and  C_8
REMARK    3  A    between atoms: N_5  and  C_7
REMARK    4  A    between atoms: C_13  and  N_33
REMARK    5  A    between atoms: C_16  and  C_18
REMARK    6  A    between atoms: N_20  and  C_21
REMARK    7  A    between atoms: C_21  and  C_23
REMARK    8  A    between atoms: C_21  and  C_30
REMARK    9  A    between atoms: C_23  and  C_24
REMARK   10  A    between atoms: C_34  and  C_36
REMARK   11  A    between atoms: C_37  and  C_41
REMARK                            x       y       z     vdW  Elec       q    Type
REMARK                         _______ _______ _______ _____ _____    ______ ____
ROOT
ATOM      1  C   UNL     1      -1.622   4.724   0.466  0.00  0.00    +0.265 C 
ATOM      2  O   UNL     1      -2.824   4.566   0.568  0.00  0.00    -0.268 OA
ATOM      3  N   UNL     1      -1.097   5.963   0.542  0.00  0.00    -0.285 N 
ATOM      4  C   UNL     1       0.331   6.189   0.276  0.00  0.00    +0.111 C 
ATOM      5  C   UNL     1       0.945   6.934   1.460  0.00  0.00    +0.041 C 
ATOM      6  C   UNL     1       0.146   8.211   1.726  0.00  0.00    +0.077 C 
ATOM      7  C   UNL     1      -1.298   7.847   2.080  0.00  0.00    +0.054 C 
ATOM      8  C   UNL     1      -1.939   7.113   0.898  0.00  0.00    +0.164 C 
ENDROOT
BRANCH   1  12
ATOM      9  C   UNL     1       2.358   1.583   0.361  0.00  0.00    +0.067 C 
ATOM     10  C   UNL     1       0.984   2.181   0.205  0.00  0.00    +0.061 A 
ATOM     11  C   UNL     1       0.594   3.461   0.606  0.00  0.00    +0.057 A 
ATOM     12  C   UNL     1      -0.742   3.563   0.259  0.00  0.00    +0.123 A 
ATOM     13  N   UNL     1      -1.081   2.368  -0.309  0.00  0.00    -0.262 N 
ATOM     14  N   UNL     1      -0.058   1.592  -0.324  0.00  0.00    -0.176 NA
ATOM     15  C   UNL     1      -2.409   2.024  -0.823  0.00  0.00    +0.173 C 
ENDBRANCH   1  12
BRANCH   8  16
ATOM     16  C   UNL     1      -2.043   8.047  -0.280  0.00  0.00    +0.234 C 
ATOM     17  O   UNL     1      -1.219   7.998  -1.168  0.00  0.00    -0.274 OA
ATOM     18  N   UNL     1      -3.054   8.937  -0.347  0.00  0.00    -0.302 N 
ATOM     19  H   UNL     1      -3.713   8.976   0.363  0.00  0.00    +0.150 HD
BRANCH  18  20
ATOM     20  C   UNL     1      -3.155   9.845  -1.492  0.00  0.00    +0.163 C 
BRANCH  20  21
ATOM     21  C   UNL     1      -3.881   9.154  -2.618  0.00  0.00    +0.231 C 
ATOM     22  O   UNL     1      -4.274   8.015  -2.478  0.00  0.00    -0.274 OA
ATOM     23  N   UNL     1      -4.092   9.802  -3.781  0.00  0.00    -0.328 N 
ATOM     24  H   UNL     1      -3.777  10.712  -3.893  0.00  0.00    +0.145 HD
ATOM     25  H   UNL     1      -4.559   9.357  -4.506  0.00  0.00    +0.145 HD
ENDBRANCH  20  21
BRANCH  20  26
ATOM     26  C   UNL     1      -3.928  11.100  -1.081  0.00  0.00    +0.067 C 
BRANCH  26  27
ATOM     27  C   UNL     1      -3.142  11.855  -0.041  0.00  0.00    -0.045 A 
ATOM     28  C   UNL     1      -3.333  11.586   1.301  0.00  0.00    +0.004 A 
ATOM     29  C   UNL     1      -2.608  12.276   2.255  0.00  0.00    +0.000 A 
ATOM     30  C   UNL     1      -1.700  13.243   1.866  0.00  0.00    +0.000 A 
ATOM     31  C   UNL     1      -1.513  13.517   0.524  0.00  0.00    +0.000 A 
ATOM     32  C   UNL     1      -2.234  12.823  -0.429  0.00  0.00    +0.004 A 
ENDBRANCH  26  27
ENDBRANCH  20  26
ENDBRANCH  18  20
ENDBRANCH   8  16
BRANCH   6  33
ATOM     33  N   UNL     1       0.752   8.942   2.842  0.00  0.00    -0.308 N 
ATOM     34  C   UNL     1       1.779   9.785   2.617  0.00  0.00    +0.254 C 
ATOM     35  O   UNL     1       2.203   9.938   1.487  0.00  0.00    -0.270 OA
ATOM     36  H   UNL     1       0.414   8.819   3.743  0.00  0.00    +0.149 HD
BRANCH  34  37
ATOM     37  C   UNL     1       2.388  10.519   3.737  0.00  0.00    +0.117 A 
ATOM     38  C   UNL     1       3.441  11.427   3.743  0.00  0.00    +0.081 A 
ATOM     39  N   UNL     1       3.721  11.892   4.937  0.00  0.00    -0.146 NA
ATOM     40  N   UNL     1       3.071  11.528   5.982  0.00  0.00    -0.110 NA
ATOM     41  S   UNL     1       1.980  10.504   5.474  0.00  0.00    +0.041 S 
ATOM     42  C   UNL     1       4.187  11.837   2.500  0.00  0.00    +0.069 C 
ENDBRANCH  34  37
ENDBRANCH   6  33
TORSDOF 8
