REMARK  Name = ZINC24986729
REMARK  7 active torsions:
REMARK  status: ('A' for Active; 'I' for Inactive)
REMARK    1  A    between atoms: C_1  and  S_2
REMARK    2  A    between atoms: S_2  and  C_3
REMARK    3  A    between atoms: C_3  and  C_4
REMARK    4  A    between atoms: C_4  and  C_5
REMARK    5  A    between atoms: C_5  and  C_7
REMARK    6  A    between atoms: C_5  and  N_24
REMARK    7  A    between atoms: C_25  and  C_27
REMARK                            x       y       z     vdW  Elec       q    Type
REMARK                         _______ _______ _______ _____ _____    ______ ____
ROOT
ATOM      1  C   UNL     1      -3.522  -3.880   0.022  0.00  0.00    +0.236 C 
ATOM      2  O   UNL     1      -4.033  -4.434  -0.928  0.00  0.00    -0.274 OA
ATOM      3  N   UNL     1      -3.096  -4.605   1.075  0.00  0.00    -0.300 N 
ATOM      4  C   UNL     1      -2.575  -3.942   2.278  0.00  0.00    +0.110 C 
ATOM      5  C   UNL     1      -1.188  -4.511   2.593  0.00  0.00    +0.047 C 
ATOM      6  C   UNL     1      -1.278  -6.034   2.701  0.00  0.00    +0.064 C 
ATOM      7  C   UNL     1      -1.752  -6.620   1.371  0.00  0.00    +0.047 C 
ATOM      8  C   UNL     1      -3.150  -6.073   1.045  0.00  0.00    +0.110 C 
ATOM      9  C   UNL     1       0.071  -6.599   3.055  0.00  0.00    +0.057 A 
ATOM     10  C   UNL     1       0.402  -7.030   4.294  0.00  0.00    +0.039 A 
ATOM     11  N   UNL     1       1.661  -7.466   4.257  0.00  0.00    -0.349 N 
ATOM     12  C   UNL     1       2.129  -7.322   3.043  0.00  0.00    +0.171 A 
ATOM     13  N   UNL     1       1.162  -6.782   2.265  0.00  0.00    -0.348 N 
ATOM     14  H   UNL     1       1.234  -6.566   1.322  0.00  0.00    +0.166 HD
ATOM     15  C   UNL     1      -0.553  -6.986   5.462  0.00  0.00    +0.070 C 
ATOM     16  C   UNL     1      -1.707  -6.044   5.093  0.00  0.00    +0.088 C 
ATOM     17  N   UNL     1      -2.229  -6.395   3.765  0.00  0.00    -0.305 NA
ATOM     18  H   UNL     1      -3.129  -5.969   3.606  0.00  0.00    +0.123 HD
ATOM     19  H   UNL     1       2.152  -7.832   5.009  0.00  0.00    +0.166 HD
ENDROOT
BRANCH   1  20
ATOM     20  C   UNL     1      -3.362  -2.381   0.024  0.00  0.00    +0.160 C 
BRANCH  20  21
ATOM     21  N   UNL     1      -4.348  -1.784  -0.880  0.00  0.00    -0.300 N 
ATOM     22  C   UNL     1      -4.753  -0.512  -0.690  0.00  0.00    +0.245 C 
ATOM     23  O   UNL     1      -4.299   0.139   0.231  0.00  0.00    -0.270 OA
ATOM     24  H   UNL     1      -4.710  -2.303  -1.615  0.00  0.00    +0.150 HD
BRANCH  22  25
ATOM     25  C   UNL     1      -5.747   0.090  -1.602  0.00  0.00    +0.037 A 
ATOM     26  C   UNL     1      -6.273  -0.657  -2.657  0.00  0.00    +0.016 A 
ATOM     27  C   UNL     1      -7.200  -0.090  -3.505  0.00  0.00    +0.039 A 
ATOM     28  C   UNL     1      -7.610   1.220  -3.311  0.00  0.00    +0.123 A 
ATOM     29  C   UNL     1      -7.090   1.967  -2.265  0.00  0.00    +0.039 A 
ATOM     30  C   UNL     1      -6.167   1.408  -1.408  0.00  0.00    +0.016 A 
ATOM     31  F   UNL     1      -8.519   1.772  -4.146  0.00  0.00    -0.205 F 
ENDBRANCH  22  25
ENDBRANCH  20  21
BRANCH  20  32
ATOM     32  C   UNL     1      -1.953  -2.018  -0.446  0.00  0.00    +0.042 C 
BRANCH  32  33
ATOM     33  C   UNL     1      -1.740  -0.510  -0.301  0.00  0.00    +0.071 C 
BRANCH  33  35
ATOM     34  C   UNL     1       0.023   1.718  -0.626  0.00  0.00    +0.084 C 
ATOM     35  S   UNL     1      -0.068  -0.079  -0.859  0.00  0.00    -0.164 S 
ENDBRANCH  33  35
ENDBRANCH  32  33
ENDBRANCH  20  32
ENDBRANCH   1  20
TORSDOF 6
