REMARK  Name = ZINC39327271
REMARK  7 active torsions:
REMARK  status: ('A' for Active; 'I' for Inactive)
REMARK    1  A    between atoms: C_1  and  C_2
REMARK    2  A    between atoms: N_5  and  C_7
REMARK    3  A    between atoms: C_14  and  N_31
REMARK    4  A    between atoms: C_15  and  C_29
REMARK    5  A    between atoms: C_16  and  C_18
REMARK    6  A    between atoms: C_22  and  O_24
REMARK    7  A    between atoms: O_24  and  C_25
REMARK                            x       y       z     vdW  Elec       q    Type
REMARK                         _______ _______ _______ _____ _____    ______ ____
ROOT
ATOM      1  C   UNL     1      -0.018   1.503   0.010  0.00  0.00    +0.068 C 
ATOM      2  C   UNL     1       0.002  -0.004   0.002  0.00  0.00    +0.068 A 
ATOM      3  C   UNL     1       0.008  -0.811  -1.128  0.00  0.00    +0.050 A 
ATOM      4  C   UNL     1       0.028  -2.115  -0.717  0.00  0.00    +0.230 A 
ATOM      5  N   UNL     1       0.034  -2.116   0.634  0.00  0.00    -0.200 N 
ATOM      6  N   UNL     1       0.023  -0.779   1.061  0.00  0.00    -0.168 NA
ATOM      7  O   UNL     1       0.042  -3.157  -1.585  0.00  0.00    -0.423 OA
ATOM      8  C   UNL     1       0.310  -2.888  -2.879  0.00  0.00    +0.200 C 
ATOM      9  C   UNL     1       0.308  -1.643  -3.405  0.00  0.00    +0.098 C 
ATOM     10  C   UNL     1      -0.005  -0.418  -2.582  0.00  0.00    +0.102 C 
ENDROOT
BRANCH  10  11
ATOM     11  C   UNL     1      -1.367   0.110  -2.954  0.00  0.00    -0.027 A 
ATOM     12  C   UNL     1      -1.500   1.399  -3.434  0.00  0.00    +0.054 A 
ATOM     13  C   UNL     1      -2.751   1.889  -3.777  0.00  0.00    +0.170 A 
ATOM     14  C   UNL     1      -3.873   1.080  -3.638  0.00  0.00    +0.208 A 
ATOM     15  C   UNL     1      -3.736  -0.216  -3.155  0.00  0.00    +0.166 A 
ATOM     16  C   UNL     1      -2.480  -0.700  -2.819  0.00  0.00    +0.054 A 
ATOM     17  O   UNL     1      -4.973   1.785  -4.037  0.00  0.00    -0.449 OA
ATOM     18  C   UNL     1      -4.565   3.166  -4.036  0.00  0.00    +0.467 C 
ATOM     19  O   UNL     1      -3.144   3.102  -4.264  0.00  0.00    -0.452 OA
BRANCH  15  20
ATOM     20  O   UNL     1      -4.830  -1.011  -3.018  0.00  0.00    -0.491 OA
ATOM     21  C   UNL     1      -4.614  -2.332  -2.516  0.00  0.00    +0.277 C 
ENDBRANCH  15  20
ENDBRANCH  10  11
BRANCH   5  22
ATOM     22  C   UNL     1       0.052  -3.248   1.460  0.00  0.00    +0.069 A 
ATOM     23  C   UNL     1      -0.619  -4.401   1.075  0.00  0.00    +0.028 A 
ATOM     24  C   UNL     1      -0.599  -5.515   1.891  0.00  0.00    +0.002 A 
ATOM     25  C   UNL     1       0.088  -5.482   3.091  0.00  0.00    +0.000 A 
ATOM     26  C   UNL     1       0.757  -4.335   3.477  0.00  0.00    +0.002 A 
ATOM     27  C   UNL     1       0.745  -3.220   2.663  0.00  0.00    +0.028 A 
ENDBRANCH   5  22
BRANCH   8  28
ATOM     28  N   UNL     1       0.604  -3.940  -3.711  0.00  0.00    -0.328 N 
ATOM     29  H   UNL     1       0.614  -4.845  -3.362  0.00  0.00    +0.145 HD
ATOM     30  H   UNL     1       0.802  -3.778  -4.646  0.00  0.00    +0.145 HD
ENDBRANCH   8  28
BRANCH   9  31
ATOM     31  C   UNL     1       0.615  -1.480  -4.794  0.00  0.00    +0.101 C 
ATOM     32  N   UNL     1       0.858  -1.352  -5.896  0.00  0.00    -0.191 NA
ENDBRANCH   9  31
TORSDOF 5
