REMARK  Name = ZINC09972454
REMARK  4 active torsions:
REMARK  status: ('A' for Active; 'I' for Inactive)
REMARK    1  A    between atoms: C_1  and  C_2
REMARK    2  A    between atoms: C_2  and  C_3
REMARK    3  A    between atoms: C_3  and  C_4
REMARK    4  A    between atoms: N_12  and  C_15
REMARK                            x       y       z     vdW  Elec       q    Type
REMARK                         _______ _______ _______ _____ _____    ______ ____
ROOT
ATOM      1  C   UNL     1       5.475  -3.182  -1.113  0.00  0.00    -0.057 C 
ATOM      2  C   UNL     1       5.583  -1.667  -0.834  0.00  0.00    +0.073 C 
ATOM      3  C   UNL     1       5.661  -1.553   0.714  0.00  0.00    +0.093 C 
ATOM      4  C   UNL     1       4.376  -0.844   1.077  0.00  0.00    +0.230 C 
ATOM      5  O   UNL     1       4.031  -0.552   2.202  0.00  0.00    -0.275 OA
ATOM      6  N   UNL     1       3.680  -0.589  -0.036  0.00  0.00    -0.209 N 
ATOM      7  C   UNL     1       4.261  -1.012  -1.165  0.00  0.00    +0.228 C 
ATOM      8  O   UNL     1       3.801  -0.887  -2.279  0.00  0.00    -0.275 OA
ATOM      9  C   UNL     1       5.612  -3.002   1.213  0.00  0.00    +0.100 C 
ATOM     10  C   UNL     1       4.174  -3.354   1.497  0.00  0.00    +0.219 C 
ATOM     11  O   UNL     1       3.317  -3.259   0.645  0.00  0.00    -0.276 OA
ATOM     12  N   UNL     1       3.885  -3.782   2.749  0.00  0.00    -0.241 N 
ATOM     13  C   UNL     1       4.830  -3.886   3.690  0.00  0.00    +0.312 C 
ATOM     14  O   UNL     1       4.484  -4.281   4.786  0.00  0.00    -0.252 OA
ATOM     15  N   UNL     1       6.124  -3.591   3.525  0.00  0.00    -0.241 N 
ATOM     16  C   UNL     1       6.605  -3.148   2.338  0.00  0.00    +0.219 C 
ATOM     17  O   UNL     1       7.778  -2.881   2.189  0.00  0.00    -0.276 OA
ATOM     18  H   UNL     1       2.970  -4.019   2.969  0.00  0.00    +0.159 HD
ATOM     19  H   UNL     1       6.734  -3.696   4.272  0.00  0.00    +0.159 HD
ATOM     20  N   UNL     1       6.051  -3.802   0.082  0.00  0.00    +0.397 N 
ATOM     21  H   UNL     1       7.076  -3.801   0.023  0.00  0.00    -0.083 HD
ATOM     22  H   UNL     1       5.715  -4.767   0.178  0.00  0.00    -0.083 HD
ENDROOT
BRANCH   6  23
ATOM     23  C   UNL     1       2.441   0.062  -0.021  0.00  0.00    +0.052 A 
ATOM     24  C   UNL     1       1.275  -0.665   0.063  0.00  0.00    +0.024 A 
ATOM     25  C   UNL     1       0.038  -0.027   0.077  0.00  0.00    +0.002 A 
ATOM     26  C   UNL     1      -0.055   1.329   0.010  0.00  0.00    +0.008 A 
ATOM     27  C   UNL     1       1.112   2.108  -0.076  0.00  0.00    -0.016 A 
ATOM     28  C   UNL     1       2.377   1.470  -0.093  0.00  0.00    +0.004 A 
ATOM     29  C   UNL     1       3.541   2.249  -0.180  0.00  0.00    +0.010 A 
ATOM     30  C   UNL     1       3.441   3.605  -0.247  0.00  0.00    +0.001 A 
ATOM     31  C   UNL     1       2.198   4.234  -0.231  0.00  0.00    +0.001 A 
ATOM     32  C   UNL     1       1.048   3.510  -0.147  0.00  0.00    +0.008 A 
ENDBRANCH   6  23
BRANCH   1  33
ATOM     33  C   UNL     1       6.267  -3.549  -2.370  0.00  0.00    -0.015 C 
BRANCH  33  35
ATOM     34  C   UNL     1       6.901  -5.411  -3.910  0.00  0.00    +0.004 C 
ATOM     35  C   UNL     1       6.109  -5.044  -2.653  0.00  0.00    -0.005 C 
ENDBRANCH  33  35
ENDBRANCH   1  33
TORSDOF 3
