REMARK  Name = ZINC05459999
REMARK  2 active torsions:
REMARK  status: ('A' for Active; 'I' for Inactive)
REMARK    1  A    between atoms: C_4  and  C_7
REMARK    2  A    between atoms: C_10  and  C_22
REMARK                            x       y       z     vdW  Elec       q    Type
REMARK                         _______ _______ _______ _____ _____    ______ ____
ROOT
ATOM      1  C   UNL     1       3.711  -0.707  -0.038  0.00  0.00    +0.122 C 
ATOM      2  C   UNL     1       3.791  -1.586  -1.291  0.00  0.00    +0.057 C 
ATOM      3  C   UNL     1       4.995  -2.528  -1.186  0.00  0.00    +0.106 C 
ATOM      4  N   UNL     1       4.790  -3.427  -0.035  0.00  0.00    -0.309 N 
ATOM      5  C   UNL     1       4.320  -2.840   1.130  0.00  0.00    +0.175 A 
ATOM      6  N   UNL     1       3.813  -1.559   1.151  0.00  0.00    -0.306 N 
ATOM      7  C   UNL     1       3.450  -1.288   2.441  0.00  0.00    +0.069 A 
ATOM      8  C   UNL     1       2.892  -0.170   3.049  0.00  0.00    +0.028 A 
ATOM      9  C   UNL     1       2.652  -0.247   4.412  0.00  0.00    +0.002 A 
ATOM     10  C   UNL     1       2.949  -1.382   5.146  0.00  0.00    +0.002 A 
ATOM     11  C   UNL     1       3.505  -2.507   4.564  0.00  0.00    +0.028 A 
ATOM     12  C   UNL     1       3.757  -2.452   3.189  0.00  0.00    +0.065 A 
ATOM     13  N   UNL     1       4.279  -3.357   2.329  0.00  0.00    -0.327 N 
ATOM     14  H   UNL     1       4.974  -4.378  -0.090  0.00  0.00    +0.149 HD
ATOM     15  H   UNL     1       4.579  -4.248   2.567  0.00  0.00    +0.169 HD
ENDROOT
BRANCH   3  16
ATOM     16  C   UNL     1       5.115  -3.339  -2.451  0.00  0.00    -0.027 A 
ATOM     17  C   UNL     1       4.307  -4.443  -2.642  0.00  0.00    +0.008 A 
ATOM     18  C   UNL     1       4.415  -5.187  -3.802  0.00  0.00    +0.038 A 
ATOM     19  C   UNL     1       5.335  -4.826  -4.772  0.00  0.00    +0.123 A 
ATOM     20  C   UNL     1       6.144  -3.719  -4.579  0.00  0.00    +0.038 A 
ATOM     21  C   UNL     1       6.030  -2.974  -3.421  0.00  0.00    +0.008 A 
ATOM     22  F   UNL     1       5.442  -5.552  -5.906  0.00  0.00    -0.205 F 
ENDBRANCH   3  16
BRANCH   1  26
ATOM     23  C   UNL     1      -0.017   1.378   0.010  0.00  0.00    +0.000 A 
ATOM     24  C   UNL     1       1.171   2.086   0.002  0.00  0.00    +0.000 A 
ATOM     25  C   UNL     1       2.377   1.411  -0.013  0.00  0.00    +0.005 A 
ATOM     26  C   UNL     1       2.396   0.029  -0.020  0.00  0.00    -0.025 A 
ATOM     27  C   UNL     1       1.208  -0.679  -0.012  0.00  0.00    +0.005 A 
ATOM     28  C   UNL     1       0.002  -0.004   0.002  0.00  0.00    +0.000 A 
ENDBRANCH   1  26
TORSDOF 2
