REMARK  Name = ZINC09600288
REMARK  10 active torsions:
REMARK  status: ('A' for Active; 'I' for Inactive)
REMARK    1  A    between atoms: C_3  and  S_32
REMARK    2  A    between atoms: C_6  and  C_7
REMARK    3  A    between atoms: C_7  and  C_8
REMARK    4  A    between atoms: C_8  and  N_9
REMARK    5  A    between atoms: C_10  and  C_12
REMARK    6  A    between atoms: N_14  and  C_15
REMARK    7  A    between atoms: C_15  and  C_16
REMARK    8  A    between atoms: N_18  and  S_22
REMARK    9  A    between atoms: S_22  and  C_25
REMARK   10  A    between atoms: S_32  and  N_35
REMARK                            x       y       z     vdW  Elec       q    Type
REMARK                         _______ _______ _______ _____ _____    ______ ____
ROOT
ATOM      1  C   UNL     1      -4.878  -2.882  -2.575  0.00  0.00    +0.299 C 
ATOM      2  O   UNL     1      -5.389  -3.198  -1.521  0.00  0.00    -0.265 OA
ATOM      3  N   UNL     1      -5.469  -3.220  -3.738  0.00  0.00    -0.304 N 
ATOM      4  H   UNL     1      -5.060  -2.967  -4.581  0.00  0.00    +0.149 HD
ENDROOT
BRANCH   1   6
ATOM      5  N   UNL     1      -3.004  -1.778  -1.420  0.00  0.00    -0.307 N 
ATOM      6  C   UNL     1      -3.594  -2.117  -2.584  0.00  0.00    +0.299 C 
ATOM      7  O   UNL     1      -3.083  -1.801  -3.638  0.00  0.00    -0.265 OA
ATOM      8  H   UNL     1      -3.412  -2.031  -0.578  0.00  0.00    +0.149 HD
BRANCH   5   9
ATOM      9  C   UNL     1      -1.745  -1.028  -1.429  0.00  0.00    +0.109 C 
BRANCH   9  10
ATOM     10  C   UNL     1      -1.293  -0.775   0.011  0.00  0.00    +0.054 C 
BRANCH  10  16
ATOM     11  C   UNL     1      -0.017   1.378   0.010  0.00  0.00    +0.005 A 
ATOM     12  C   UNL     1       1.171   2.086   0.002  0.00  0.00    +0.029 A 
ATOM     13  C   UNL     1       2.377   1.411  -0.013  0.00  0.00    +0.105 A 
ATOM     14  C   UNL     1       2.396   0.029  -0.020  0.00  0.00    +0.029 A 
ATOM     15  C   UNL     1       1.208  -0.679  -0.012  0.00  0.00    +0.005 A 
ATOM     16  C   UNL     1       0.002  -0.004   0.002  0.00  0.00    -0.046 A 
BRANCH  13  17
ATOM     17  S   UNL     1       3.891   2.312  -0.024  0.00  0.00    +0.056 S 
ATOM     18  O   UNL     1       4.872   1.453  -0.588  0.00  0.00    -0.153 OA
ATOM     19  O   UNL     1       3.597   3.593  -0.566  0.00  0.00    -0.153 OA
BRANCH  17  20
ATOM     20  N   UNL     1       4.327   2.556   1.555  0.00  0.00    -0.204 NA
ATOM     21  H   UNL     1       5.265   2.623   1.794  0.00  0.00    +0.144 HD
ATOM     22  H   UNL     1       3.645   2.631   2.241  0.00  0.00    +0.144 HD
ENDBRANCH  17  20
ENDBRANCH  13  17
ENDBRANCH  10  16
ENDBRANCH   9  10
ENDBRANCH   5   9
ENDBRANCH   1   6
BRANCH   3  23
ATOM     23  C   UNL     1      -6.727  -3.970  -3.730  0.00  0.00    +0.154 C 
BRANCH  23  24
ATOM     24  C   UNL     1      -7.180  -4.223  -5.169  0.00  0.00    +0.226 C 
ATOM     25  N   UNL     1      -7.384  -2.939  -5.859  0.00  0.00    -0.145 NA
ATOM     26  C   UNL     1      -6.470  -2.947  -7.023  0.00  0.00    +0.140 C 
ATOM     27  C   UNL     1      -6.197  -4.458  -7.232  0.00  0.00    +0.179 C 
ATOM     28  O   UNL     1      -6.164  -4.956  -5.875  0.00  0.00    -0.357 OA
BRANCH  25  29
ATOM     29  S   UNL     1      -8.426  -1.729  -5.421  0.00  0.00    +0.063 S 
ATOM     30  O   UNL     1      -8.704  -0.985  -6.600  0.00  0.00    -0.153 OA
ATOM     31  O   UNL     1      -9.450  -2.336  -4.645  0.00  0.00    -0.153 OA
BRANCH  29  32
ATOM     32  C   UNL     1      -7.548  -0.650  -4.340  0.00  0.00    +0.106 A 
ATOM     33  C   UNL     1      -7.558  -0.880  -2.977  0.00  0.00    +0.031 A 
ATOM     34  C   UNL     1      -6.868  -0.035  -2.128  0.00  0.00    +0.040 A 
ATOM     35  C   UNL     1      -6.168   1.043  -2.643  0.00  0.00    +0.124 A 
ATOM     36  C   UNL     1      -6.159   1.272  -4.009  0.00  0.00    +0.040 A 
ATOM     37  C   UNL     1      -6.844   0.422  -4.856  0.00  0.00    +0.031 A 
ATOM     38  F   UNL     1      -5.494   1.870  -1.815  0.00  0.00    -0.205 F 
ENDBRANCH  29  32
ENDBRANCH  25  29
ENDBRANCH  23  24
ENDBRANCH   3  23
TORSDOF 10
