REMARK  Name = ZINC04787506
REMARK  8 active torsions:
REMARK  status: ('A' for Active; 'I' for Inactive)
REMARK    1  A    between atoms: C_1  and  C_2
REMARK    2  A    between atoms: C_2  and  C_4
REMARK    3  A    between atoms: C_7  and  O_28
REMARK    4  A    between atoms: C_8  and  C_10
REMARK    5  A    between atoms: C_10  and  N_11
REMARK    6  A    between atoms: C_14  and  C_18
REMARK    7  A    between atoms: C_14  and  C_19
REMARK    8  A    between atoms: O_28  and  C_29
REMARK                            x       y       z     vdW  Elec       q    Type
REMARK                         _______ _______ _______ _____ _____    ______ ____
ROOT
ATOM      1  N   UNL     1       3.846   3.971  -1.799  0.00  0.00    -0.219 N 
ATOM      2  C   UNL     1       3.491   3.174  -0.772  0.00  0.00    +0.251 C 
ATOM      3  O   UNL     1       3.934   2.077  -0.510  0.00  0.00    -0.272 OA
ATOM      4  C   UNL     1       2.423   3.936  -0.012  0.00  0.00    +0.135 C 
ATOM      5  N   UNL     1       2.286   5.193  -0.767  0.00  0.00    -0.281 N 
ATOM      6  C   UNL     1       3.157   5.119  -1.793  0.00  0.00    +0.310 C 
ATOM      7  O   UNL     1       3.302   5.997  -2.621  0.00  0.00    -0.252 OA
ATOM      8  C   UNL     1       2.878   4.215   1.422  0.00  0.00    +0.047 C 
ATOM      9  H   UNL     1       1.686   5.928  -0.565  0.00  0.00    +0.152 HD
ENDROOT
BRANCH   4  10
ATOM     10  C   UNL     1       1.124   3.172  -0.014  0.00  0.00    -0.012 A 
ATOM     11  C   UNL     1       1.137   1.789  -0.021  0.00  0.00    +0.010 A 
ATOM     12  C   UNL     1      -0.052   1.084  -0.023  0.00  0.00    +0.050 A 
ATOM     13  C   UNL     1      -1.260   1.762  -0.024  0.00  0.00    +0.166 A 
ATOM     14  C   UNL     1      -1.273   3.155  -0.011  0.00  0.00    +0.167 A 
ATOM     15  C   UNL     1      -0.078   3.855  -0.009  0.00  0.00    +0.055 A 
ATOM     16  O   UNL     1      -2.571   3.579  -0.007  0.00  0.00    -0.453 OA
ATOM     17  C   UNL     1      -3.347   2.437   0.400  0.00  0.00    +0.466 C 
ATOM     18  O   UNL     1      -2.550   1.314  -0.019  0.00  0.00    -0.453 OA
ENDBRANCH   4  10
BRANCH   1  19
ATOM     19  C   UNL     1       4.859   3.624  -2.798  0.00  0.00    +0.156 C 
BRANCH  19  24
ATOM     20  C   UNL     1       3.654   0.875  -5.106  0.00  0.00    +0.018 A 
ATOM     21  C   UNL     1       2.983   1.616  -6.088  0.00  0.00    +0.015 A 
ATOM     22  C   UNL     1       2.927   2.978  -5.996  0.00  0.00    +0.046 A 
ATOM     23  C   UNL     1       3.530   3.634  -4.928  0.00  0.00    +0.125 A 
ATOM     24  C   UNL     1       4.203   2.908  -3.951  0.00  0.00    +0.013 A 
ATOM     25  C   UNL     1       4.265   1.536  -4.033  0.00  0.00    +0.020 A 
BRANCH  20  27
ATOM     26  C   UNL     1       4.541  -1.374  -4.216  0.00  0.00    +0.091 C 
ATOM     27  C   UNL     1       3.716  -0.589  -5.202  0.00  0.00    +0.160 C 
ATOM     28  O   UNL     1       3.102  -1.166  -6.075  0.00  0.00    -0.292 OA
ENDBRANCH  20  27
BRANCH  23  29
ATOM     29  O   UNL     1       3.466   4.986  -4.841  0.00  0.00    -0.495 OA
ATOM     30  C   UNL     1       2.759   5.669  -5.879  0.00  0.00    +0.277 C 
ENDBRANCH  23  29
ENDBRANCH  19  24
ENDBRANCH   1  19
TORSDOF 5
