REMARK  Name = ZINC63847672
REMARK  7 active torsions:
REMARK  status: ('A' for Active; 'I' for Inactive)
REMARK    1  A    between atoms: C_1  and  C_2
REMARK    2  A    between atoms: C_2  and  C_3
REMARK    3  A    between atoms: C_2  and  C_4
REMARK    4  A    between atoms: C_19  and  C_21
REMARK    5  A    between atoms: C_21  and  N_22
REMARK    6  A    between atoms: C_28  and  C_29
REMARK    7  A    between atoms: C_28  and  C_30
REMARK                            x       y       z     vdW  Elec       q    Type
REMARK                         _______ _______ _______ _____ _____    ______ ____
ROOT
ATOM      1  C   UNL     1      -1.443  -0.293  -0.310  0.00  0.00    +0.105 C 
ATOM      2  C   UNL     1      -1.690  -1.788  -0.544  0.00  0.00    +0.127 C 
ATOM      3  C   UNL     1      -3.092  -1.911  -1.126  0.00  0.00    -0.035 C 
ATOM      4  C   UNL     1      -3.759  -2.736  -0.327  0.00  0.00    -0.001 A 
ATOM      5  C   UNL     1      -5.120  -3.289  -0.406  0.00  0.00    +0.010 A 
ATOM      6  C   UNL     1      -5.493  -4.112   0.609  0.00  0.00    +0.001 A 
ATOM      7  C   UNL     1      -4.658  -4.436   1.683  0.00  0.00    +0.002 A 
ATOM      8  C   UNL     1      -3.390  -3.976   1.834  0.00  0.00    +0.026 A 
ATOM      9  C   UNL     1      -2.883  -3.106   0.826  0.00  0.00    +0.043 A 
ATOM     10  N   UNL     1      -1.694  -2.542   0.712  0.00  0.00    -0.376 N 
ATOM     11  C   UNL     1      -3.538  -1.129  -2.337  0.00  0.00    +0.052 C 
ATOM     12  C   UNL     1      -3.178   0.344  -2.070  0.00  0.00    +0.112 C 
ATOM     13  N   UNL     1      -1.813   0.424  -1.540  0.00  0.00    -0.294 N 
ATOM     14  C   UNL     1      -0.888   1.161  -2.187  0.00  0.00    +0.233 C 
ATOM     15  O   UNL     1       0.209   1.323  -1.696  0.00  0.00    -0.274 OA
ATOM     16  H   UNL     1      -0.956  -2.604   1.338  0.00  0.00    +0.160 HD
ENDROOT
BRANCH   1  18
ATOM     17  C   UNL     1       0.368  -0.649   1.373  0.00  0.00    +0.009 C 
ATOM     18  C   UNL     1       0.035  -0.055   0.004  0.00  0.00    +0.006 C 
ATOM     19  C   UNL     1       0.898  -0.727  -1.067  0.00  0.00    +0.009 C 
ENDBRANCH   1  18
BRANCH  14  20
ATOM     20  C   UNL     1      -1.217   1.782  -3.520  0.00  0.00    +0.206 C 
BRANCH  20  21
ATOM     21  N   UNL     1      -0.055   2.527  -4.012  0.00  0.00    -0.263 N 
ATOM     22  C   UNL     1       0.230   3.820  -3.775  0.00  0.00    +0.310 C 
ATOM     23  O   UNL     1      -0.467   4.553  -3.102  0.00  0.00    -0.252 OA
ATOM     24  N   UNL     1       1.366   4.209  -4.364  0.00  0.00    -0.238 N 
ATOM     25  C   UNL     1       1.941   3.201  -5.050  0.00  0.00    +0.244 C 
ATOM     26  O   UNL     1       2.973   3.242  -5.684  0.00  0.00    -0.273 OA
ATOM     27  C   UNL     1       1.032   2.003  -4.856  0.00  0.00    +0.110 C 
ATOM     28  C   UNL     1       1.773   0.872  -4.140  0.00  0.00    +0.041 C 
ATOM     29  C   UNL     1       0.485   1.523  -6.202  0.00  0.00    +0.041 C 
ATOM     30  H   UNL     1       1.731   5.106  -4.306  0.00  0.00    +0.159 HD
ENDBRANCH  20  21
ENDBRANCH  14  20
TORSDOF 3
