REMARK  Name = ZINC39927199
REMARK  6 active torsions:
REMARK  status: ('A' for Active; 'I' for Inactive)
REMARK    1  A    between atoms: C_4  and  N_7
REMARK    2  A    between atoms: C_8  and  C_10
REMARK    3  A    between atoms: C_12  and  N_21
REMARK    4  A    between atoms: C_22  and  C_24
REMARK    5  A    between atoms: C_27  and  C_30
REMARK    6  A    between atoms: C_35  and  O_36
REMARK                            x       y       z     vdW  Elec       q    Type
REMARK                         _______ _______ _______ _____ _____    ______ ____
ROOT
ATOM      1  C   UNL     1       4.962  -2.721   0.153  0.00  0.00    +0.283 C 
ATOM      2  C   UNL     1       5.663  -2.409   1.496  0.00  0.00    +0.156 C 
ATOM      3  C   UNL     1       5.182  -3.549   2.373  0.00  0.00    +0.018 A 
ATOM      4  C   UNL     1       5.197  -3.736   3.737  0.00  0.00    +0.009 A 
ATOM      5  C   UNL     1       4.674  -4.895   4.282  0.00  0.00    +0.001 A 
ATOM      6  C   UNL     1       4.136  -5.862   3.452  0.00  0.00    +0.004 A 
ATOM      7  C   UNL     1       4.122  -5.678   2.085  0.00  0.00    +0.046 A 
ATOM      8  C   UNL     1       4.651  -4.516   1.529  0.00  0.00    +0.127 A 
ATOM      9  O   UNL     1       4.756  -4.142   0.219  0.00  0.00    -0.477 OA
ENDROOT
BRANCH   1  11
ATOM     10  N   UNL     1       3.622  -0.651  -0.037  0.00  0.00    -0.282 N 
ATOM     11  C   UNL     1       3.645  -1.995   0.057  0.00  0.00    +0.260 C 
ATOM     12  O   UNL     1       2.606  -2.620   0.064  0.00  0.00    -0.271 OA
ATOM     13  H   UNL     1       4.452  -0.156  -0.121  0.00  0.00    +0.155 HD
BRANCH  10  17
ATOM     14  C   UNL     1      -0.015   1.381   0.029  0.00  0.00    +0.000 A 
ATOM     15  C   UNL     1       0.140   0.219   0.763  0.00  0.00    +0.002 A 
ATOM     16  C   UNL     1       1.344  -0.457   0.743  0.00  0.00    +0.023 A 
ATOM     17  C   UNL     1       2.400   0.031  -0.015  0.00  0.00    +0.033 A 
ATOM     18  C   UNL     1       2.241   1.198  -0.751  0.00  0.00    +0.023 A 
ATOM     19  C   UNL     1       1.034   1.870  -0.727  0.00  0.00    +0.002 A 
ENDBRANCH  10  17
ENDBRANCH   1  11
BRANCH   2  20
ATOM     20  N   UNL     1       7.120  -2.442   1.346  0.00  0.00    -0.302 N 
ATOM     21  C   UNL     1       7.900  -1.739   2.191  0.00  0.00    +0.244 C 
ATOM     22  O   UNL     1       7.396  -1.079   3.075  0.00  0.00    -0.273 OA
ATOM     23  H   UNL     1       7.523  -2.969   0.639  0.00  0.00    +0.150 HD
BRANCH  21  24
ATOM     24  C   UNL     1       9.399  -1.772   2.037  0.00  0.00    +0.238 C 
ATOM     25  C   UNL     1       9.978  -3.010   2.698  0.00  0.00    +0.041 C 
ATOM     26  C   UNL     1      10.788  -2.517   3.655  0.00  0.00    +0.095 C 
ATOM     27  N   UNL     1      10.761  -1.158   3.643  0.00  0.00    -0.153 NA
ATOM     28  N   UNL     1      10.023  -0.666   2.782  0.00  0.00    -0.170 NA
BRANCH  26  29
ATOM     29  C   UNL     1      11.595  -3.339   4.588  0.00  0.00    +0.043 A 
ATOM     30  C   UNL     1      12.397  -2.726   5.547  0.00  0.00    +0.014 A 
ATOM     31  C   UNL     1      13.146  -3.496   6.414  0.00  0.00    +0.001 A 
ATOM     32  C   UNL     1      13.102  -4.877   6.334  0.00  0.00    +0.004 A 
ATOM     33  C   UNL     1      12.310  -5.496   5.386  0.00  0.00    +0.046 A 
ATOM     34  C   UNL     1      11.549  -4.735   4.513  0.00  0.00    +0.126 A 
BRANCH  34  35
ATOM     35  O   UNL     1      10.765  -5.342   3.585  0.00  0.00    -0.506 OA
ATOM     36  H   UNL     1      11.210  -5.510   2.743  0.00  0.00    +0.292 HD
ENDBRANCH  34  35
ENDBRANCH  26  29
ENDBRANCH  21  24
ENDBRANCH   2  20
TORSDOF 6
