REMARK  Name = ZINC40145208
REMARK  8 active torsions:
REMARK  status: ('A' for Active; 'I' for Inactive)
REMARK    1  A    between atoms: C_1  and  C_2
REMARK    2  A    between atoms: C_2  and  C_4
REMARK    3  A    between atoms: C_2  and  O_10
REMARK    4  A    between atoms: O_10  and  C_11
REMARK    5  A    between atoms: C_14  and  C_17
REMARK    6  A    between atoms: N_19  and  C_20
REMARK    7  A    between atoms: N_19  and  C_21
REMARK    8  A    between atoms: C_21  and  C_22
REMARK                            x       y       z     vdW  Elec       q    Type
REMARK                         _______ _______ _______ _____ _____    ______ ____
ROOT
ATOM      1  C   UNL     1      -3.632  -1.565   5.002  0.00  0.00    +0.248 C 
ATOM      2  O   UNL     1      -2.926  -1.943   5.917  0.00  0.00    -0.270 OA
ATOM      3  N   UNL     1      -4.888  -1.144   5.249  0.00  0.00    -0.293 N 
ATOM      4  C   UNL     1      -5.774  -0.789   4.138  0.00  0.00    +0.133 C 
ENDROOT
BRANCH   1   8
ATOM      5  C   UNL     1      -2.082  -1.548   1.096  0.00  0.00    +0.215 A 
ATOM      6  C   UNL     1      -3.413  -1.914   1.275  0.00  0.00    +0.068 A 
ATOM      7  C   UNL     1      -3.944  -1.927   2.548  0.00  0.00    +0.020 A 
ATOM      8  C   UNL     1      -3.113  -1.568   3.620  0.00  0.00    +0.055 A 
ATOM      9  C   UNL     1      -1.789  -1.213   3.360  0.00  0.00    +0.127 A 
ATOM     10  N   UNL     1      -1.322  -1.220   2.129  0.00  0.00    -0.221 NA
BRANCH   5  11
ATOM     11  O   UNL     1      -1.556  -1.534  -0.152  0.00  0.00    -0.469 OA
BRANCH  11  13
ATOM     12  C   UNL     1      -0.086   0.359  -0.465  0.00  0.00    +0.057 C 
ATOM     13  C   UNL     1      -0.183  -1.155  -0.273  0.00  0.00    +0.202 C 
BRANCH  13  14
ATOM     14  C   UNL     1       0.428  -1.853  -1.461  0.00  0.00    -0.008 A 
ATOM     15  C   UNL     1      -0.295  -1.985  -2.632  0.00  0.00    +0.007 A 
ATOM     16  C   UNL     1       0.265  -2.625  -3.721  0.00  0.00    +0.000 A 
ATOM     17  C   UNL     1       1.548  -3.132  -3.641  0.00  0.00    +0.000 A 
ATOM     18  C   UNL     1       2.272  -2.999  -2.470  0.00  0.00    +0.000 A 
ATOM     19  C   UNL     1       1.713  -2.355  -1.382  0.00  0.00    +0.007 A 
ENDBRANCH  13  14
ENDBRANCH  11  13
ENDBRANCH   5  11
ENDBRANCH   1   8
BRANCH   3  20
ATOM     20  C   UNL     1      -5.367  -1.041   6.630  0.00  0.00    +0.181 C 
BRANCH  20  21
ATOM     21  C   UNL     1      -5.070   0.336   7.164  0.00  0.00    +0.128 A 
ATOM     22  N   UNL     1      -5.436   0.628   8.440  0.00  0.00    -0.309 N 
ATOM     23  H   UNL     1      -5.878  -0.040   8.987  0.00  0.00    +0.170 HD
ATOM     24  C   UNL     1      -5.178   1.860   8.939  0.00  0.00    +0.266 A 
ATOM     25  O   UNL     1      -5.493   2.153  10.081  0.00  0.00    -0.267 OA
ATOM     26  C   UNL     1      -4.540   2.785   8.112  0.00  0.00    +0.102 A 
ATOM     27  C   UNL     1      -4.172   2.458   6.795  0.00  0.00    +0.085 A 
ATOM     28  N   UNL     1      -4.473   1.182   6.386  0.00  0.00    -0.232 NA
ATOM     29  C   UNL     1      -3.539   3.480   6.074  0.00  0.00    +0.036 A 
ATOM     30  C   UNL     1      -3.319   4.681   6.650  0.00  0.00    +0.048 A 
ATOM     31  S   UNL     1      -4.001   4.465   8.285  0.00  0.00    -0.090 S 
ENDBRANCH  20  21
ENDBRANCH   3  20
TORSDOF 6
