REMARK  Name = ZINC38818725
REMARK  4 active torsions:
REMARK  status: ('A' for Active; 'I' for Inactive)
REMARK    1  A    between atoms: C_3  and  C_10
REMARK    2  A    between atoms: C_5  and  N_7
REMARK    3  A    between atoms: N_11  and  N_12
REMARK    4  A    between atoms: N_12  and  C_13
REMARK                            x       y       z     vdW  Elec       q    Type
REMARK                         _______ _______ _______ _____ _____    ______ ____
ROOT
ATOM      1  C   UNL     1       3.653   2.155  -0.052  0.00  0.00    +0.138 C 
ATOM      2  N   UNL     1       3.641   3.453  -0.113  0.00  0.00    -0.190 NA
ENDROOT
BRANCH   1   5
ATOM      3  C   UNL     1       0.422   1.274  -1.744  0.00  0.00    +0.003 A 
ATOM      4  C   UNL     1       1.510   2.001  -1.307  0.00  0.00    +0.009 A 
ATOM      5  C   UNL     1       2.488   1.385  -0.522  0.00  0.00    -0.003 A 
ATOM      6  C   UNL     1       2.356   0.035  -0.186  0.00  0.00    +0.042 A 
ATOM      7  C   UNL     1       1.263  -0.679  -0.630  0.00  0.00    +0.127 A 
ATOM      8  C   UNL     1       0.298  -0.063  -1.407  0.00  0.00    +0.033 A 
BRANCH   7   9
ATOM      9  N   UNL     1       1.122  -2.110  -0.275  0.00  0.00    +0.056 N 
ATOM     10  O   UNL     1       1.964  -2.650   0.404  0.00  0.00    -0.126 OA
ATOM     11  O   UNL     1       0.165  -2.737  -0.664  0.00  0.00    -0.126 OA
ENDBRANCH   7   9
ENDBRANCH   1   5
BRANCH   2  12
ATOM     12  N   UNL     1       2.423   4.145  -0.098  0.00  0.00    -0.239 N 
ATOM     13  H   UNL     1       1.594   3.664   0.053  0.00  0.00    +0.174 HD
BRANCH  12  14
ATOM     14  C   UNL     1       2.402   5.482  -0.294  0.00  0.00    +0.068 C 
ATOM     15  C   UNL     1       3.551   6.197  -0.517  0.00  0.00    +0.154 C 
ATOM     16  N   UNL     1       3.526   7.500  -0.708  0.00  0.00    -0.164 NA
ATOM     17  N   UNL     1       2.487   8.241  -0.712  0.00  0.00    -0.079 NA
ATOM     18  C   UNL     1       1.249   7.766  -0.516  0.00  0.00    +0.273 C 
ATOM     19  O   UNL     1       0.281   8.501  -0.527  0.00  0.00    -0.271 OA
ATOM     20  C   UNL     1       1.103   6.272  -0.286  0.00  0.00    +0.193 C 
ATOM     21 BR   UNL     1       0.229   6.003   1.454  0.00  0.00    -0.072 Br
ENDBRANCH  12  14
ENDBRANCH   2  12
TORSDOF 4
