REMARK  Name = ZINC20189804
REMARK  7 active torsions:
REMARK  status: ('A' for Active; 'I' for Inactive)
REMARK    1  A    between atoms: C_1  and  C_2
REMARK    2  A    between atoms: C_3  and  C_31
REMARK    3  A    between atoms: C_4  and  N_30
REMARK    4  A    between atoms: C_11  and  C_21
REMARK    5  A    between atoms: C_24  and  O_29
REMARK    6  A    between atoms: C_25  and  O_27
REMARK    7  A    between atoms: O_27  and  C_28
REMARK                            x       y       z     vdW  Elec       q    Type
REMARK                         _______ _______ _______ _____ _____    ______ ____
ROOT
ATOM      1  C   UNL     1       2.542   1.486  -0.014  0.00  0.00    +0.046 C 
ATOM      2  C   UNL     1       1.192   2.156   0.002  0.00  0.00    -0.014 A 
ATOM      3  C   UNL     1      -0.017   1.428   0.010  0.00  0.00    +0.095 A 
ATOM      4  C   UNL     1      -1.242   2.120   0.019  0.00  0.00    +0.135 A 
ATOM      5  N   UNL     1      -1.342   3.435   0.033  0.00  0.00    -0.230 NA
ATOM      6  C   UNL     1      -0.212   4.188   0.028  0.00  0.00    +0.086 A 
ATOM      7  C   UNL     1       1.043   3.518   0.011  0.00  0.00    +0.044 A 
ATOM      8  S   UNL     1       2.217   4.838   0.004  0.00  0.00    -0.071 S 
ATOM      9  C   UNL     1       1.067   6.184   0.025  0.00  0.00    +0.076 A 
ATOM     10  C   UNL     1      -0.170   5.591   0.039  0.00  0.00    +0.019 A 
ATOM     11  C   UNL     1      -1.406   6.476   0.071  0.00  0.00    +0.088 C 
ATOM     12  C   UNL     1      -1.046   7.899  -0.282  0.00  0.00    +0.024 C 
ATOM     13  C   UNL     1       0.223   8.360  -0.276  0.00  0.00    +0.016 C 
ATOM     14  N   UNL     1       1.284   7.538   0.023  0.00  0.00    -0.312 N 
ATOM     15  C   UNL     1       0.533   9.803  -0.594  0.00  0.00    +0.051 C 
ATOM     16  C   UNL     1      -0.489  10.338  -1.599  0.00  0.00    +0.014 C 
ATOM     17  C   UNL     1      -1.886  10.193  -0.986  0.00  0.00    +0.080 C 
ATOM     18  C   UNL     1      -2.114   8.754  -0.620  0.00  0.00    +0.162 C 
ATOM     19  O   UNL     1      -3.247   8.316  -0.615  0.00  0.00    -0.292 OA
ATOM     20  H   UNL     1       2.284   7.935   0.256  0.00  0.00    +0.152 HD
ENDROOT
BRANCH  11  21
ATOM     21  C   UNL     1      -2.008   6.442   1.452  0.00  0.00    -0.032 A 
ATOM     22  C   UNL     1      -1.264   6.864   2.539  0.00  0.00    +0.008 A 
ATOM     23  C   UNL     1      -1.811   6.835   3.808  0.00  0.00    +0.049 A 
ATOM     24  C   UNL     1      -3.108   6.384   3.993  0.00  0.00    +0.158 A 
ATOM     25  C   UNL     1      -3.856   5.960   2.900  0.00  0.00    +0.162 A 
ATOM     26  C   UNL     1      -3.304   5.996   1.630  0.00  0.00    +0.054 A 
BRANCH  25  27
ATOM     27  O   UNL     1      -5.130   5.516   3.077  0.00  0.00    -0.491 OA
ATOM     28  C   UNL     1      -5.838   5.096   1.909  0.00  0.00    +0.277 C 
ENDBRANCH  25  27
BRANCH  24  29
ATOM     29  O   UNL     1      -3.648   6.356   5.241  0.00  0.00    -0.503 OA
ATOM     30  H   UNL     1      -4.677   5.997   5.387  0.00  0.00    +0.292 HD
ENDBRANCH  24  29
ENDBRANCH  11  21
BRANCH   4  31
ATOM     31  N   UNL     1      -2.411   1.376   0.020  0.00  0.00    -0.342 N 
ATOM     32  H   UNL     1      -3.386   1.885   0.027  0.00  0.00    +0.144 HD
ATOM     33  H   UNL     1      -2.364   0.277   0.013  0.00  0.00    +0.144 HD
ENDBRANCH   4  31
BRANCH   3  34
ATOM     34  C   UNL     1       0.002  -0.004   0.002  0.00  0.00    +0.103 C 
ATOM     35  N   UNL     1       0.018  -1.140  -0.004  0.00  0.00    -0.191 NA
ENDBRANCH   3  34
TORSDOF 5
