REMARK  Name = ZINC09186250
REMARK  9 active torsions:
REMARK  status: ('A' for Active; 'I' for Inactive)
REMARK    1  A    between atoms: C_1  and  C_2
REMARK    2  A    between atoms: C_7  and  C_9
REMARK    3  A    between atoms: C_7  and  C_10
REMARK    4  A    between atoms: C_20  and  N_22
REMARK    5  A    between atoms: N_22  and  C_23
REMARK    6  A    between atoms: C_23  and  N_25
REMARK    7  A    between atoms: N_25  and  C_26
REMARK    8  A    between atoms: N_29  and  C_36
REMARK    9  A    between atoms: N_32  and  C_35
REMARK                            x       y       z     vdW  Elec       q    Type
REMARK                         _______ _______ _______ _____ _____    ______ ____
ROOT
ATOM      1  C   UNL     1      -0.388   1.675  -0.410  0.00  0.00    +0.013 C 
ATOM      2  C   UNL     1      -0.056   0.179  -0.265  0.00  0.00    -0.010 C 
ATOM      3  C   UNL     1      -1.329  -0.623   0.178  0.00  0.00    +0.031 C 
ATOM      4  C   UNL     1      -0.838  -2.058  -0.143  0.00  0.00    +0.075 C 
ATOM      5  C   UNL     1       0.098  -2.494   0.987  0.00  0.00    +0.029 C 
ATOM      6  C   UNL     1       0.894  -1.354   1.587  0.00  0.00    -0.033 C 
ATOM      7  C   UNL     1       1.006  -0.072   0.787  0.00  0.00    +0.015 C 
ATOM      8  C   UNL     1       2.328  -1.872   1.859  0.00  0.00    +0.011 C 
ATOM      9  C   UNL     1       0.310  -1.017   2.976  0.00  0.00    +0.011 C 
ATOM     10  N   UNL     1       0.002  -1.940  -1.352  0.00  0.00    -0.322 N 
ATOM     11  C   UNL     1       0.208  -0.501  -1.609  0.00  0.00    +0.104 C 
ATOM     12  C   UNL     1       1.533  -0.277  -2.295  0.00  0.00    +0.146 C 
ATOM     13  C   UNL     1       1.548  -1.137  -3.577  0.00  0.00    +0.064 C 
ATOM     14  C   UNL     1       1.273  -2.581  -3.271  0.00  0.00    -0.023 A 
ATOM     15  C   UNL     1       0.513  -2.948  -2.161  0.00  0.00    +0.034 A 
ATOM     16  C   UNL     1       0.272  -4.283  -1.885  0.00  0.00    +0.025 A 
ATOM     17  C   UNL     1       0.780  -5.264  -2.711  0.00  0.00    +0.025 A 
ATOM     18  C   UNL     1       1.530  -4.906  -3.823  0.00  0.00    +0.033 A 
ATOM     19  C   UNL     1       1.774  -3.569  -4.098  0.00  0.00    +0.028 A 
ATOM     20  C   UNL     1       1.646   1.165  -2.730  0.00  0.00    +0.240 C 
ATOM     21  O   UNL     1       0.882   1.582  -3.574  0.00  0.00    -0.274 OA
ATOM     22  N   UNL     1       2.565   1.987  -2.214  0.00  0.00    -0.228 N 
ATOM     23  C   UNL     1       3.505   1.552  -1.363  0.00  0.00    +0.317 C 
ATOM     24  O   UNL     1       4.252   2.343  -0.835  0.00  0.00    -0.252 OA
ATOM     25  N   UNL     1       3.628   0.248  -1.070  0.00  0.00    -0.228 N 
ATOM     26  C   UNL     1       2.721  -0.659  -1.468  0.00  0.00    +0.240 C 
ATOM     27  O   UNL     1       2.893  -1.814  -1.163  0.00  0.00    -0.274 OA
ATOM     28  C   UNL     1       4.793  -0.202  -0.301  0.00  0.00    +0.143 C 
ATOM     29  C   UNL     1       2.544   3.403  -2.585  0.00  0.00    +0.143 C 
ENDROOT
BRANCH  18  30
ATOM     30  N   UNL     1       2.043  -5.896  -4.668  0.00  0.00    -0.297 N 
ATOM     31  H   UNL     1       2.479  -6.677  -4.292  0.00  0.00    +0.154 HD
BRANCH  30  32
ATOM     32  C   UNL     1       1.933  -5.765  -6.005  0.00  0.00    +0.134 C 
ATOM     33  S   UNL     1       1.263  -4.338  -6.672  0.00  0.00    -0.019 S 
BRANCH  32  34
ATOM     34  N   UNL     1       2.351  -6.757  -6.816  0.00  0.00    -0.329 N 
ATOM     35  C   UNL     1       2.231  -6.614  -8.270  0.00  0.00    +0.127 C 
ATOM     36  H   UNL     1       2.731  -7.565  -6.438  0.00  0.00    +0.147 HD
ENDBRANCH  32  34
ENDBRANCH  30  32
ENDBRANCH  18  30
TORSDOF 3
