REMARK  Name = ZINC12437139
REMARK  9 active torsions:
REMARK  status: ('A' for Active; 'I' for Inactive)
REMARK    1  A    between atoms: C_1  and  C_2
REMARK    2  A    between atoms: C_2  and  C_3
REMARK    3  A    between atoms: C_2  and  C_4
REMARK    4  A    between atoms: C_4  and  O_5
REMARK    5  A    between atoms: O_5  and  C_6
REMARK    6  A    between atoms: C_6  and  C_8
REMARK    7  A    between atoms: C_9  and  N_28
REMARK    8  A    between atoms: C_24  and  C_26
REMARK    9  A    between atoms: C_24  and  C_27
REMARK                            x       y       z     vdW  Elec       q    Type
REMARK                         _______ _______ _______ _____ _____    ______ ____
ROOT
ATOM      1  C   UNL     1      -4.516   5.838   5.385  0.00  0.00    +0.119 A 
ATOM      2  C   UNL     1      -3.373   5.148   5.732  0.00  0.00    +0.055 A 
ATOM      3  C   UNL     1      -2.490   4.698   4.669  0.00  0.00    +0.031 A 
ATOM      4  C   UNL     1      -1.269   3.978   4.779  0.00  0.00    -0.025 A 
ATOM      5  C   UNL     1      -0.589   3.639   3.655  0.00  0.00    +0.020 A 
ATOM      6  C   UNL     1      -1.083   4.014   2.398  0.00  0.00    +0.105 A 
ATOM      7  C   UNL     1      -2.910   5.024   3.361  0.00  0.00    +0.089 A 
ATOM      8  S   UNL     1      -4.435   5.901   3.606  0.00  0.00    -0.062 S 
ATOM      9  N   UNL     1      -0.378   3.673   1.252  0.00  0.00    -0.312 N 
ATOM     10  C   UNL     1      -0.851   2.394   0.704  0.00  0.00    +0.134 C 
ATOM     11  C   UNL     1      -0.010   2.028  -0.521  0.00  0.00    +0.178 C 
ATOM     12  O   UNL     1      -0.083   3.088  -1.478  0.00  0.00    -0.377 OA
ATOM     13  C   UNL     1       0.371   4.349  -0.977  0.00  0.00    +0.178 C 
ATOM     14  C   UNL     1      -0.467   4.739   0.243  0.00  0.00    +0.134 C 
ATOM     15  C   UNL     1       0.705   2.868   3.720  0.00  0.00    +0.199 C 
ATOM     16  O   UNL     1       1.239   2.908   5.043  0.00  0.00    -0.369 OA
ATOM     17  C   UNL     1       0.291   2.520   6.045  0.00  0.00    +0.068 C 
ATOM     18  C   UNL     1      -0.772   3.615   6.152  0.00  0.00    +0.070 C 
ATOM     19  C   UNL     1       1.001   2.357   7.390  0.00  0.00    +0.041 C 
ATOM     20  C   UNL     1      -0.368   1.198   5.646  0.00  0.00    +0.041 C 
ATOM     21  N   UNL     1      -2.243   4.705   2.225  0.00  0.00    -0.337 N 
ATOM     22  H   UNL     1      -2.590   4.968   1.295  0.00  0.00    +0.168 HD
ENDROOT
BRANCH   2  23
ATOM     23  N   UNL     1      -3.073   4.891   7.062  0.00  0.00    -0.356 N 
ATOM     24  H   UNL     1      -2.153   4.751   7.333  0.00  0.00    +0.142 HD
ATOM     25  H   UNL     1      -3.785   4.852   7.720  0.00  0.00    +0.142 HD
ENDBRANCH   2  23
BRANCH   1  26
ATOM     26  C   UNL     1      -5.512   6.368   6.235  0.00  0.00    +0.348 C 
ATOM     27  O   UNL     1      -5.415   6.237   7.442  0.00  0.00    -0.244 OA
BRANCH  26  28
ATOM     28  O   UNL     1      -6.572   7.020   5.710  0.00  0.00    -0.460 OA
BRANCH  28  29
ATOM     29  C   UNL     1      -7.540   7.529   6.629  0.00  0.00    +0.235 C 
BRANCH  29  31
ATOM     30  C   UNL     1      -9.756   8.667   6.827  0.00  0.00    +0.010 C 
ATOM     31  C   UNL     1      -8.658   8.231   5.854  0.00  0.00    +0.020 C 
ATOM     32  C   UNL     1      -8.091   9.460   5.141  0.00  0.00    +0.010 C 
ENDBRANCH  29  31
ENDBRANCH  28  29
ENDBRANCH  26  28
ENDBRANCH   1  26
TORSDOF 5
