REMARK  Name = ZINC09365802
REMARK  9 active torsions:
REMARK  status: ('A' for Active; 'I' for Inactive)
REMARK    1  A    between atoms: C_1  and  C_2
REMARK    2  A    between atoms: C_5  and  N_9
REMARK    3  A    between atoms: C_6  and  C_8
REMARK    4  A    between atoms: C_10  and  C_12
REMARK    5  A    between atoms: C_13  and  C_31
REMARK    6  A    between atoms: C_19  and  C_23
REMARK    7  A    between atoms: C_23  and  S_24
REMARK    8  A    between atoms: S_24  and  C_25
REMARK    9  A    between atoms: N_29  and  C_30
REMARK                            x       y       z     vdW  Elec       q    Type
REMARK                         _______ _______ _______ _____ _____    ______ ____
ROOT
ATOM      1  C   UNL     1      -0.133  -6.301  -1.187  0.00  0.00    +0.080 A 
ATOM      2  C   UNL     1      -0.233  -7.147  -2.252  0.00  0.00    -0.017 A 
ATOM      3  C   UNL     1      -0.309  -8.526  -2.040  0.00  0.00    +0.076 A 
ATOM      4  C   UNL     1      -0.422  -9.621  -3.030  0.00  0.00    +0.260 A 
ATOM      5  O   UNL     1      -0.459  -9.382  -4.224  0.00  0.00    -0.267 OA
ATOM      6  N   UNL     1      -0.481 -10.888  -2.577  0.00  0.00    -0.310 N 
ATOM      7  H   UNL     1      -0.555 -11.617  -3.213  0.00  0.00    +0.170 HD
ATOM      8  C   UNL     1      -0.440 -11.166  -1.250  0.00  0.00    +0.121 A 
ATOM      9  N   UNL     1      -0.341 -10.225  -0.351  0.00  0.00    -0.226 NA
ATOM     10  C   UNL     1      -0.276  -8.943  -0.690  0.00  0.00    +0.116 A 
ATOM     11  S   UNL     1      -0.134  -7.417   0.206  0.00  0.00    -0.064 S 
ATOM     12  C   UNL     1      -0.261  -6.597  -3.655  0.00  0.00    +0.046 C 
ENDROOT
BRANCH   1  14
ATOM     13  N   UNL     1       0.057  -4.169  -0.021  0.00  0.00    -0.281 N 
ATOM     14  C   UNL     1      -0.042  -4.838  -1.187  0.00  0.00    +0.255 C 
ATOM     15  O   UNL     1      -0.055  -4.227  -2.240  0.00  0.00    -0.269 OA
ATOM     16  H   UNL     1       0.134  -4.657   0.814  0.00  0.00    +0.155 HD
BRANCH  13  21
ATOM     17  C   UNL     1       0.024   1.503   0.005  0.00  0.00    +0.044 C 
ATOM     18  C   UNL     1       0.033  -0.004  -0.002  0.00  0.00    -0.050 A 
ATOM     19  C   UNL     1       0.631  -0.685  -1.046  0.00  0.00    +0.005 A 
ATOM     20  C   UNL     1       0.641  -2.066  -1.055  0.00  0.00    +0.024 A 
ATOM     21  C   UNL     1       0.050  -2.771  -0.014  0.00  0.00    +0.037 A 
ATOM     22  C   UNL     1      -0.550  -2.083   1.033  0.00  0.00    -0.029 A 
ATOM     23  C   UNL     1      -0.551  -0.702   1.039  0.00  0.00    +0.008 A 
ATOM     24  C   UNL     1      -1.193  -2.843   2.164  0.00  0.00    +0.045 C 
ENDBRANCH  13  21
ENDBRANCH   1  14
BRANCH   8  25
ATOM     25  C   UNL     1      -0.509 -12.602  -0.801  0.00  0.00    +0.151 C 
BRANCH  25  26
ATOM     26  S   UNL     1      -0.433 -12.674   1.010  0.00  0.00    -0.078 S 
BRANCH  26  27
ATOM     27  C   UNL     1      -0.525 -14.396   1.372  0.00  0.00    +0.192 A 
ATOM     28  N   UNL     1      -0.619 -15.373   0.501  0.00  0.00    -0.123 NA
ATOM     29  N   UNL     1      -0.664 -16.502   1.114  0.00  0.00    -0.137 NA
ATOM     30  C   UNL     1      -0.602 -16.314   2.402  0.00  0.00    +0.225 A 
ATOM     31  N   UNL     1      -0.505 -14.967   2.613  0.00  0.00    -0.312 N 
ATOM     32  C   UNL     1      -0.405 -14.278   3.902  0.00  0.00    +0.152 C 
ENDBRANCH  26  27
ENDBRANCH  25  26
ENDBRANCH   8  25
TORSDOF 5
