REMARK  Name = ZINC22471041
REMARK  7 active torsions:
REMARK  status: ('A' for Active; 'I' for Inactive)
REMARK    1  A    between atoms: C_4  and  C_7
REMARK    2  A    between atoms: C_8  and  C_9
REMARK    3  A    between atoms: N_11  and  C_12
REMARK    4  A    between atoms: C_12  and  C_13
REMARK    5  A    between atoms: C_13  and  C_14
REMARK    6  A    between atoms: C_14  and  N_15
REMARK    7  A    between atoms: C_16  and  C_18
REMARK                            x       y       z     vdW  Elec       q    Type
REMARK                         _______ _______ _______ _____ _____    ______ ____
ROOT
ATOM      1  N   UNL     1       7.136  -8.494  -0.115  0.00  0.00    -0.309 N 
ATOM      2  C   UNL     1       8.175  -9.352  -0.130  0.00  0.00    +0.280 C 
ATOM      3  O   UNL     1       9.313  -8.928  -0.140  0.00  0.00    -0.267 OA
ATOM      4  H   UNL     1       6.227  -8.832  -0.108  0.00  0.00    +0.149 HD
ENDROOT
BRANCH   2   5
ATOM      5  C   UNL     1       7.928 -10.815  -0.136  0.00  0.00    +0.197 A 
ATOM      6  N   UNL     1       9.006 -11.658  -0.146  0.00  0.00    -0.303 N 
ATOM      7  H   UNL     1       9.905 -11.291  -0.149  0.00  0.00    +0.171 HD
ATOM      8  C   UNL     1       8.827 -12.999  -0.150  0.00  0.00    +0.260 A 
ATOM      9  O   UNL     1       9.774 -13.764  -0.158  0.00  0.00    -0.267 OA
ATOM     10  C   UNL     1       7.441 -13.498  -0.144  0.00  0.00    +0.065 A 
ATOM     11  C   UNL     1       7.151 -14.859  -0.147  0.00  0.00    +0.015 A 
ATOM     12  C   UNL     1       5.836 -15.274  -0.140  0.00  0.00    +0.001 A 
ATOM     13  C   UNL     1       4.802 -14.346  -0.131  0.00  0.00    +0.002 A 
ATOM     14  C   UNL     1       5.067 -12.995  -0.128  0.00  0.00    +0.028 A 
ATOM     15  C   UNL     1       6.393 -12.549  -0.134  0.00  0.00    +0.079 A 
ATOM     16  N   UNL     1       6.694 -11.236  -0.125  0.00  0.00    -0.225 NA
ENDBRANCH   2   5
BRANCH   1  17
ATOM     17  C   UNL     1       7.380  -7.049  -0.110  0.00  0.00    +0.106 C 
BRANCH  17  18
ATOM     18  C   UNL     1       6.042  -6.306  -0.092  0.00  0.00    +0.037 C 
BRANCH  18  19
ATOM     19  C   UNL     1       6.297  -4.798  -0.087  0.00  0.00    +0.106 C 
BRANCH  19  22
ATOM     20  C   UNL     1       4.994  -2.739  -0.062  0.00  0.00    +0.237 C 
ATOM     21  O   UNL     1       6.037  -2.113  -0.070  0.00  0.00    -0.271 OA
ATOM     22  N   UNL     1       5.016  -4.086  -0.070  0.00  0.00    -0.312 N 
ATOM     23  H   UNL     1       4.184  -4.585  -0.064  0.00  0.00    +0.149 HD
BRANCH  20  25
ATOM     24  C   UNL     1       3.692  -0.680  -0.038  0.00  0.00    +0.013 C 
ATOM     25  C   UNL     1       3.714  -2.028  -0.045  0.00  0.00    +0.068 C 
BRANCH  24  29
ATOM     26  C   UNL     1      -0.017   1.380   0.010  0.00  0.00    +0.000 A 
ATOM     27  C   UNL     1       1.168   2.095   0.002  0.00  0.00    +0.001 A 
ATOM     28  C   UNL     1       2.377   1.433  -0.013  0.00  0.00    +0.008 A 
ATOM     29  C   UNL     1       2.405   0.035  -0.021  0.00  0.00    -0.025 A 
ATOM     30  C   UNL     1       1.203  -0.681  -0.013  0.00  0.00    +0.008 A 
ATOM     31  C   UNL     1       0.002  -0.004   0.002  0.00  0.00    +0.001 A 
ENDBRANCH  24  29
ENDBRANCH  20  25
ENDBRANCH  19  22
ENDBRANCH  18  19
ENDBRANCH  17  18
ENDBRANCH   1  17
TORSDOF 7
