REMARK  Name = ZINC40685048
REMARK  9 active torsions:
REMARK  status: ('A' for Active; 'I' for Inactive)
REMARK    1  A    between atoms: C_1  and  C_2
REMARK    2  A    between atoms: C_2  and  C_3
REMARK    3  A    between atoms: C_7  and  C_31
REMARK    4  A    between atoms: C_8  and  N_9
REMARK    5  A    between atoms: C_10  and  C_12
REMARK    6  A    between atoms: C_12  and  C_14
REMARK    7  A    between atoms: C_12  and  N_15
REMARK    8  A    between atoms: C_18  and  C_28
REMARK    9  A    between atoms: C_23  and  C_27
REMARK                            x       y       z     vdW  Elec       q    Type
REMARK                         _______ _______ _______ _____ _____    ______ ____
ROOT
ATOM      1  C   UNL     1      -1.378  -0.057  -4.816  0.00  0.00    +0.164 C 
ATOM      2  C   UNL     1      -1.101   1.447  -4.850  0.00  0.00    +0.038 C 
ENDROOT
BRANCH   1   3
ATOM      3  N   UNL     1      -2.224  -0.425  -5.954  0.00  0.00    -0.253 N 
ATOM      4  C   UNL     1      -1.776  -1.355  -6.904  0.00  0.00    +0.080 A 
ATOM      5  C   UNL     1      -0.696  -2.171  -6.633  0.00  0.00    +0.042 A 
ATOM      6  C   UNL     1      -0.265  -3.092  -7.595  0.00  0.00    +0.065 A 
ATOM      7  C   UNL     1      -0.929  -3.178  -8.823  0.00  0.00    +0.019 A 
ATOM      8  C   UNL     1      -2.006  -2.360  -9.086  0.00  0.00    +0.048 A 
ATOM      9  C   UNL     1      -2.435  -1.447  -8.132  0.00  0.00    +0.143 A 
ATOM     10  O   UNL     1      -3.497  -0.638  -8.381  0.00  0.00    -0.478 OA
ATOM     11  C   UNL     1      -4.318  -0.292  -7.263  0.00  0.00    +0.256 C 
ATOM     12  C   UNL     1      -3.450   0.122  -6.102  0.00  0.00    +0.261 C 
ATOM     13  O   UNL     1      -3.849   0.947  -5.307  0.00  0.00    -0.271 OA
ATOM     14  C   UNL     1      -5.159  -1.504  -6.854  0.00  0.00    +0.062 C 
BRANCH   6  15
ATOM     15  C   UNL     1       0.885  -3.967  -7.315  0.00  0.00    +0.387 C 
ATOM     16  O   UNL     1       1.466  -3.890  -6.241  0.00  0.00    -0.241 OA
ATOM     17  O   UNL     1       1.262  -4.771  -8.157  0.00  0.00    -0.241 OA
ENDBRANCH   6  15
ENDBRANCH   1   3
BRANCH   1  19
ATOM     18  N   UNL     1      -1.491  -0.159  -2.347  0.00  0.00    -0.283 N 
ATOM     19  C   UNL     1      -2.083  -0.409  -3.531  0.00  0.00    +0.238 C 
ATOM     20  O   UNL     1      -3.184  -0.917  -3.563  0.00  0.00    -0.273 OA
ATOM     21  H   UNL     1      -0.640   0.307  -2.318  0.00  0.00    +0.155 HD
BRANCH  18  27
ATOM     22  C   UNL     1      -2.721   0.358  -0.334  0.00  0.00    -0.026 A 
ATOM     23  C   UNL     1      -3.329  -0.054   0.836  0.00  0.00    +0.005 A 
ATOM     24  C   UNL     1      -3.315  -1.391   1.190  0.00  0.00    +0.001 A 
ATOM     25  C   UNL     1      -2.695  -2.319   0.374  0.00  0.00    +0.005 A 
ATOM     26  C   UNL     1      -2.086  -1.914  -0.797  0.00  0.00    -0.029 A 
ATOM     27  C   UNL     1      -2.102  -0.573  -1.158  0.00  0.00    +0.040 A 
ATOM     28  C   UNL     1      -1.410  -2.926  -1.685  0.00  0.00    +0.045 C 
BRANCH  22  30
ATOM     29  C   UNL     1      -3.913   2.082  -1.659  0.00  0.00    +0.009 C 
ATOM     30  C   UNL     1      -2.736   1.815  -0.719  0.00  0.00    +0.033 C 
ENDBRANCH  22  30
ENDBRANCH  18  27
ENDBRANCH   1  19
TORSDOF 5
