REMARK  Name = ZINC11883957
REMARK  3 active torsions:
REMARK  status: ('A' for Active; 'I' for Inactive)
REMARK    1  A    between atoms: C_4  and  C_7
REMARK    2  A    between atoms: C_10  and  C_11
REMARK    3  A    between atoms: C_10  and  C_18
REMARK                            x       y       z     vdW  Elec       q    Type
REMARK                         _______ _______ _______ _____ _____    ______ ____
ROOT
ATOM      1  C   UNL     1      -3.487   2.512   0.321  0.00  0.00    +0.037 C 
ATOM      2  C   UNL     1      -3.328   1.340   1.292  0.00  0.00    +0.027 C 
ATOM      3  C   UNL     1      -2.480   1.401   0.020  0.00  0.00    +0.046 C 
ENDROOT
BRANCH   3   4
ATOM      4  C   UNL     1      -1.017   1.728   0.173  0.00  0.00    +0.062 A 
ATOM      5  C   UNL     1      -0.092   0.742   0.261  0.00  0.00    +0.072 A 
ATOM      6  S   UNL     1       1.406   1.704   0.416  0.00  0.00    -0.061 S 
ATOM      7  C   UNL     1       0.672   3.277   0.357  0.00  0.00    +0.156 A 
ATOM      8  N   UNL     1      -0.608   2.981   0.229  0.00  0.00    -0.229 NA
ATOM      9  N   UNL     1       1.276   4.522   0.427  0.00  0.00    -0.338 N 
ATOM     10  H   UNL     1       2.239   4.590   0.522  0.00  0.00    +0.144 HD
ATOM     11  H   UNL     1       0.735   5.327   0.381  0.00  0.00    +0.144 HD
ENDBRANCH   3   4
BRANCH   3  12
ATOM     12  C   UNL     1      -2.817   0.437  -1.088  0.00  0.00    -0.035 A 
ATOM     13  C   UNL     1      -3.327  -0.812  -0.786  0.00  0.00    +0.006 A 
ATOM     14  C   UNL     1      -3.642  -1.695  -1.802  0.00  0.00    +0.020 A 
ATOM     15  C   UNL     1      -3.437  -1.332  -3.121  0.00  0.00    +0.041 A 
ATOM     16  C   UNL     1      -2.922  -0.084  -3.423  0.00  0.00    +0.020 A 
ATOM     17  C   UNL     1      -2.612   0.799  -2.406  0.00  0.00    +0.006 A 
ATOM     18 CL   UNL     1      -3.826  -2.443  -4.398  0.00  0.00    -0.084 Cl
ENDBRANCH   3  12
BRANCH   1  22
ATOM     19  C   UNL     1      -1.939   6.304   1.533  0.00  0.00    +0.000 A 
ATOM     20  C   UNL     1      -2.710   6.206   0.390  0.00  0.00    +0.000 A 
ATOM     21  C   UNL     1      -3.211   4.978  -0.002  0.00  0.00    +0.004 A 
ATOM     22  C   UNL     1      -2.941   3.850   0.748  0.00  0.00    -0.043 A 
ATOM     23  C   UNL     1      -2.174   3.949   1.894  0.00  0.00    +0.004 A 
ATOM     24  C   UNL     1      -1.669   5.175   2.284  0.00  0.00    +0.000 A 
ENDBRANCH   1  22
TORSDOF 3
