REMARK  Name = ZINC65833766
REMARK  8 active torsions:
REMARK  status: ('A' for Active; 'I' for Inactive)
REMARK    1  A    between atoms: C_1  and  C_2
REMARK    2  A    between atoms: C_2  and  C_3
REMARK    3  A    between atoms: C_2  and  C_4
REMARK    4  A    between atoms: C_2  and  N_5
REMARK    5  A    between atoms: C_7  and  N_10
REMARK    6  A    between atoms: N_10  and  S_11
REMARK    7  A    between atoms: S_11  and  C_14
REMARK    8  A    between atoms: C_19  and  N_20
REMARK                            x       y       z     vdW  Elec       q    Type
REMARK                         _______ _______ _______ _____ _____    ______ ____
ROOT
ATOM      1  S   UNL     1       3.982  -2.678  -3.967  0.00  0.00    +0.075 S 
ATOM      2  O   UNL     1       5.323  -2.715  -4.437  0.00  0.00    -0.150 OA
ATOM      3  O   UNL     1       3.493  -3.583  -2.987  0.00  0.00    -0.150 OA
ENDROOT
BRANCH   1   4
ATOM      4  C   UNL     1       2.947  -2.858  -5.381  0.00  0.00    +0.141 A 
ATOM      5  C   UNL     1       1.946  -3.811  -5.388  0.00  0.00    +0.069 A 
ATOM      6  C   UNL     1       1.133  -3.953  -6.499  0.00  0.00    +0.125 A 
ATOM      7  C   UNL     1       1.324  -3.139  -7.604  0.00  0.00    +0.041 A 
ATOM      8  C   UNL     1       2.325  -2.188  -7.595  0.00  0.00    +0.037 A 
ATOM      9  C   UNL     1       3.133  -2.043  -6.482  0.00  0.00    +0.153 A 
ATOM     10  F   UNL     1       0.154  -4.884  -6.506  0.00  0.00    -0.205 F 
BRANCH   9  11
ATOM     11  N   UNL     1       4.202  -1.019  -6.472  0.00  0.00    +0.058 N 
ATOM     12  O   UNL     1       4.450  -0.394  -7.477  0.00  0.00    -0.126 OA
ATOM     13  O   UNL     1       4.826  -0.807  -5.459  0.00  0.00    -0.126 OA
ENDBRANCH   9  11
ENDBRANCH   1   4
BRANCH   1  14
ATOM     14  N   UNL     1       3.733  -1.153  -3.369  0.00  0.00    -0.213 N 
ATOM     15  H   UNL     1       4.453  -0.503  -3.383  0.00  0.00    +0.174 HD
BRANCH  14  18
ATOM     16  N   UNL     1       0.911   0.004  -1.536  0.00  0.00    -0.264 N 
ATOM     17  C   UNL     1       2.256  -0.135  -1.680  0.00  0.00    +0.133 A 
ATOM     18  C   UNL     1       2.476  -0.801  -2.841  0.00  0.00    +0.085 A 
ATOM     19  C   UNL     1       1.230  -1.077  -3.423  0.00  0.00    +0.158 A 
ATOM     20  N   UNL     1       0.296  -0.601  -2.639  0.00  0.00    -0.177 NA
BRANCH  16  22
ATOM     21  C   UNL     1       0.364   2.181  -0.565  0.00  0.00    +0.036 C 
ATOM     22  C   UNL     1       0.227   0.664  -0.421  0.00  0.00    +0.055 C 
ATOM     23  C   UNL     1       0.856   0.218   0.900  0.00  0.00    +0.036 C 
ATOM     24  C   UNL     1      -1.255   0.282  -0.435  0.00  0.00    +0.036 C 
ENDBRANCH  16  22
ENDBRANCH  14  18
ENDBRANCH   1  14
TORSDOF 5
