REMARK  Name = ZINC02448813
REMARK  7 active torsions:
REMARK  status: ('A' for Active; 'I' for Inactive)
REMARK    1  A    between atoms: C_1  and  O_2
REMARK    2  A    between atoms: O_2  and  C_3
REMARK    3  A    between atoms: C_8  and  O_9
REMARK    4  A    between atoms: O_9  and  C_10
REMARK    5  A    between atoms: C_14  and  C_16
REMARK    6  A    between atoms: N_23  and  C_26
REMARK    7  A    between atoms: C_26  and  C_27
REMARK                            x       y       z     vdW  Elec       q    Type
REMARK                         _______ _______ _______ _____ _____    ______ ____
ROOT
ATOM      1  C   UNL     1       1.863  -2.637   5.516  0.00  0.00    +0.126 A 
ATOM      2  C   UNL     1       0.499  -2.926   5.701  0.00  0.00    +0.265 A 
ATOM      3  O   UNL     1      -0.176  -3.325   4.767  0.00  0.00    -0.267 OA
ATOM      4  N   UNL     1      -0.057  -2.759   6.917  0.00  0.00    -0.274 N 
ATOM      5  H   UNL     1      -0.998  -2.958   7.048  0.00  0.00    +0.173 HD
ATOM      6  C   UNL     1       0.683  -2.320   7.951  0.00  0.00    +0.332 A 
ATOM      7  O   UNL     1       0.163  -2.176   9.041  0.00  0.00    -0.246 OA
ATOM      8  N   UNL     1       1.989  -2.038   7.798  0.00  0.00    -0.256 N 
ATOM      9  C   UNL     1       2.596  -2.199   6.578  0.00  0.00    +0.268 A 
ATOM     10  O   UNL     1       3.909  -1.920   6.429  0.00  0.00    -0.267 OA
ENDROOT
BRANCH   1  20
ATOM     11  C   UNL     1       0.626  -0.619   1.042  0.00  0.00    +0.162 A 
ATOM     12  C   UNL     1       1.201   0.139   2.049  0.00  0.00    +0.050 A 
ATOM     13  C   UNL     1       1.839  -0.480   3.113  0.00  0.00    +0.012 A 
ATOM     14  C   UNL     1       1.905  -1.850   3.176  0.00  0.00    +0.015 A 
ATOM     15  C   UNL     1       1.330  -2.633   2.167  0.00  0.00    +0.111 A 
ATOM     16  C   UNL     1       0.681  -2.009   1.096  0.00  0.00    +0.176 A 
ATOM     17  C   UNL     1       1.562  -4.044   2.512  0.00  0.00    +0.344 C 
ATOM     18  O   UNL     1       1.193  -4.993   1.848  0.00  0.00    -0.245 OA
ATOM     19  O   UNL     1       2.241  -4.131   3.667  0.00  0.00    -0.448 OA
ATOM     20  C   UNL     1       2.505  -2.816   4.165  0.00  0.00    +0.249 C 
BRANCH  11  22
ATOM     21  C   UNL     1      -0.017   1.425   0.010  0.00  0.00    +0.277 C 
ATOM     22  O   UNL     1       0.002  -0.004   0.002  0.00  0.00    -0.491 OA
ENDBRANCH  11  22
BRANCH  16  23
ATOM     23  O   UNL     1       0.114  -2.753   0.113  0.00  0.00    -0.491 OA
ATOM     24  C   UNL     1       0.939  -3.091  -1.004  0.00  0.00    +0.277 C 
ENDBRANCH  16  23
ENDBRANCH   1  20
BRANCH   8  25
ATOM     25  C   UNL     1       2.770  -1.561   8.942  0.00  0.00    +0.165 C 
BRANCH  25  26
ATOM     26  C   UNL     1       3.367  -2.739   9.668  0.00  0.00    -0.027 A 
ATOM     27  C   UNL     1       2.664  -3.349  10.690  0.00  0.00    +0.008 A 
ATOM     28  C   UNL     1       3.210  -4.429  11.357  0.00  0.00    +0.038 A 
ATOM     29  C   UNL     1       4.462  -4.901  11.001  0.00  0.00    +0.123 A 
ATOM     30  C   UNL     1       5.166  -4.289   9.977  0.00  0.00    +0.038 A 
ATOM     31  C   UNL     1       4.615  -3.212   9.309  0.00  0.00    +0.008 A 
ATOM     32  F   UNL     1       4.997  -5.956  11.652  0.00  0.00    -0.205 F 
ENDBRANCH  25  26
ENDBRANCH   8  25
TORSDOF 5
