REMARK  Name = ZINC55121104
REMARK  6 active torsions:
REMARK  status: ('A' for Active; 'I' for Inactive)
REMARK    1  A    between atoms: C_1  and  C_2
REMARK    2  A    between atoms: C_5  and  N_9
REMARK    3  A    between atoms: C_7  and  C_8
REMARK    4  A    between atoms: C_13  and  C_14
REMARK    5  A    between atoms: C_23  and  O_24
REMARK    6  A    between atoms: C_25  and  C_27
REMARK                            x       y       z     vdW  Elec       q    Type
REMARK                         _______ _______ _______ _____ _____    ______ ____
ROOT
ATOM      1  N   UNL     1      -0.017  -4.211   0.012  0.00  0.00    -0.156 N 
ATOM      2  C   UNL     1      -0.114  -4.975  -1.095  0.00  0.00    +0.272 C 
ATOM      3  O   UNL     1      -0.347  -4.596  -2.230  0.00  0.00    -0.268 OA
ATOM      4  C   UNL     1       0.118  -6.359  -0.655  0.00  0.00    +0.062 C 
ATOM      5  C   UNL     1       0.119  -7.506  -1.438  0.00  0.00    +0.027 C 
ATOM      6  C   UNL     1       0.349  -6.262   0.792  0.00  0.00    +0.069 C 
ATOM      7  N   UNL     1       0.266  -5.008   1.120  0.00  0.00    -0.177 NA
ATOM      8  C   UNL     1       0.637  -7.409   1.726  0.00  0.00    +0.068 C 
ENDROOT
BRANCH   5   9
ATOM      9  C   UNL     1       0.003  -7.405  -2.839  0.00  0.00    +0.025 A 
ATOM     10  C   UNL     1      -1.108  -8.046  -3.549  0.00  0.00    -0.007 A 
ATOM     11  C   UNL     1      -2.085  -8.776  -2.866  0.00  0.00    +0.009 A 
ATOM     12  C   UNL     1      -3.104  -9.358  -3.563  0.00  0.00    +0.001 A 
ATOM     13  C   UNL     1      -3.183  -9.235  -4.947  0.00  0.00    +0.001 A 
ATOM     14  C   UNL     1      -2.247  -8.530  -5.643  0.00  0.00    +0.008 A 
ATOM     15  C   UNL     1      -1.186  -7.918  -4.956  0.00  0.00    -0.017 A 
ATOM     16  C   UNL     1      -0.202  -7.181  -5.643  0.00  0.00    +0.012 A 
ATOM     17  C   UNL     1       0.824  -6.591  -4.973  0.00  0.00    +0.046 A 
ATOM     18  C   UNL     1       0.946  -6.681  -3.588  0.00  0.00    +0.125 A 
BRANCH  18  19
ATOM     19  O   UNL     1       1.981  -6.072  -2.961  0.00  0.00    -0.506 OA
ATOM     20  H   UNL     1       2.789  -6.602  -2.931  0.00  0.00    +0.292 HD
ENDBRANCH  18  19
ENDBRANCH   5   9
BRANCH   1  25
ATOM     21  C   UNL     1      -0.644   1.427   0.136  0.00  0.00    +0.044 C 
ATOM     22  C   UNL     1      -0.477  -0.070   0.103  0.00  0.00    -0.047 A 
ATOM     23  C   UNL     1      -0.605  -0.752  -1.093  0.00  0.00    +0.005 A 
ATOM     24  C   UNL     1      -0.453  -2.124  -1.127  0.00  0.00    +0.026 A 
ATOM     25  C   UNL     1      -0.171  -2.819   0.042  0.00  0.00    +0.061 A 
ATOM     26  C   UNL     1      -0.044  -2.132   1.242  0.00  0.00    +0.029 A 
ATOM     27  C   UNL     1      -0.193  -0.758   1.268  0.00  0.00    -0.046 A 
ATOM     28  C   UNL     1      -0.049  -0.010   2.568  0.00  0.00    +0.044 C 
ENDBRANCH   1  25
TORSDOF 3
