REMARK  Name = ZINC02623788
REMARK  9 active torsions:
REMARK  status: ('A' for Active; 'I' for Inactive)
REMARK    1  A    between atoms: C_1  and  C_2
REMARK    2  A    between atoms: C_3  and  C_28
REMARK    3  A    between atoms: C_5  and  S_9
REMARK    4  A    between atoms: C_7  and  C_8
REMARK    5  A    between atoms: S_9  and  C_10
REMARK    6  A    between atoms: C_10  and  C_11
REMARK    7  A    between atoms: N_13  and  C_14
REMARK    8  A    between atoms: C_17  and  S_20
REMARK    9  A    between atoms: S_20  and  N_23
REMARK                            x       y       z     vdW  Elec       q    Type
REMARK                         _______ _______ _______ _____ _____    ______ ____
ROOT
ATOM      1  C   UNL     1      -2.806   4.216   5.426  0.00  0.00    +0.227 C 
ATOM      2  O   UNL     1      -2.000   4.979   4.938  0.00  0.00    -0.275 OA
ATOM      3  N   UNL     1      -3.077   3.043   4.819  0.00  0.00    -0.285 N 
ATOM      4  H   UNL     1      -3.776   2.468   5.167  0.00  0.00    +0.155 HD
ENDROOT
BRANCH   3   5
ATOM      5  C   UNL     1      -2.351   2.656   3.688  0.00  0.00    +0.034 A 
ATOM      6  C   UNL     1      -1.014   3.011   3.565  0.00  0.00    +0.025 A 
ATOM      7  C   UNL     1      -0.299   2.627   2.447  0.00  0.00    +0.030 A 
ATOM      8  C   UNL     1      -0.914   1.891   1.451  0.00  0.00    +0.106 A 
ATOM      9  C   UNL     1      -2.247   1.541   1.568  0.00  0.00    +0.030 A 
ATOM     10  C   UNL     1      -2.965   1.917   2.686  0.00  0.00    +0.025 A 
BRANCH   8  11
ATOM     11  S   UNL     1       0.001   1.403   0.026  0.00  0.00    +0.061 S 
ATOM     12  O   UNL     1       1.076   2.324  -0.101  0.00  0.00    -0.153 OA
ATOM     13  O   UNL     1      -0.946   1.190  -1.011  0.00  0.00    -0.153 OA
BRANCH  11  14
ATOM     14  N   UNL     1       0.678  -0.071   0.360  0.00  0.00    -0.177 NA
ATOM     15  C   UNL     1       2.001  -0.290   0.963  0.00  0.00    +0.109 C 
ATOM     16  C   UNL     1       2.214  -1.815   1.060  0.00  0.00    +0.018 C 
ATOM     17  C   UNL     1       1.245  -2.368  -0.019  0.00  0.00    +0.018 C 
ATOM     18  C   UNL     1       0.057  -1.381   0.095  0.00  0.00    +0.109 C 
ENDBRANCH  11  14
ENDBRANCH   8  11
ENDBRANCH   3   5
BRANCH   1  19
ATOM     19  C   UNL     1      -3.504   4.578   6.712  0.00  0.00    +0.173 C 
BRANCH  19  20
ATOM     20  S   UNL     1      -2.930   6.201   7.273  0.00  0.00    -0.077 S 
BRANCH  20  25
ATOM     21  C   UNL     1      -6.139   6.766  12.248  0.00  0.00    +0.047 C 
ATOM     22  C   UNL     1      -5.325   6.622  10.987  0.00  0.00    -0.008 A 
ATOM     23  C   UNL     1      -4.446   7.620  10.594  0.00  0.00    +0.046 A 
ATOM     24  N   UNL     1      -3.747   7.463   9.483  0.00  0.00    -0.227 NA
ATOM     25  C   UNL     1      -3.881   6.368   8.747  0.00  0.00    +0.189 A 
ATOM     26  N   UNL     1      -4.716   5.398   9.092  0.00  0.00    -0.227 NA
ATOM     27  C   UNL     1      -5.440   5.490  10.195  0.00  0.00    +0.046 A 
ATOM     28  C   UNL     1      -6.384   4.381  10.583  0.00  0.00    +0.066 C 
ATOM     29  C   UNL     1      -4.289   8.868  11.424  0.00  0.00    +0.066 C 
ENDBRANCH  20  25
ENDBRANCH  19  20
ENDBRANCH   1  19
TORSDOF 6
