REMARK  Name = ZINC67177896
REMARK  5 active torsions:
REMARK  status: ('A' for Active; 'I' for Inactive)
REMARK    1  A    between atoms: C_1  and  C_2
REMARK    2  A    between atoms: C_6  and  C_22
REMARK    3  A    between atoms: C_10  and  C_12
REMARK    4  A    between atoms: C_15  and  N_19
REMARK    5  A    between atoms: C_16  and  O_18
REMARK                            x       y       z     vdW  Elec       q    Type
REMARK                         _______ _______ _______ _____ _____    ______ ____
ROOT
ATOM      1  C   UNL     1       0.241   1.265  -0.270  0.00  0.00    +0.030 C 
ATOM      2  C   UNL     1      -0.024  -0.232  -0.101  0.00  0.00    +0.099 C 
ATOM      3  C   UNL     1       0.457  -0.986  -1.345  0.00  0.00    +0.183 C 
ATOM      4  O   UNL     1       1.883  -0.910  -1.420  0.00  0.00    -0.369 OA
ATOM      5  C   UNL     1       2.560  -1.528  -0.323  0.00  0.00    +0.166 C 
ATOM      6  C   UNL     1       2.186  -0.802   0.975  0.00  0.00    +0.144 C 
ATOM      7  N   UNL     1       0.718  -0.738   1.065  0.00  0.00    -0.290 N 
ATOM      8  C   UNL     1       0.073  -1.131   2.181  0.00  0.00    +0.247 C 
ATOM      9  O   UNL     1      -1.134  -1.007   2.261  0.00  0.00    -0.270 OA
ENDROOT
BRANCH   8  10
ATOM     10  C   UNL     1       0.832  -1.714   3.308  0.00  0.00    +0.040 A 
ATOM     11  C   UNL     1       1.980  -1.077   3.783  0.00  0.00    +0.015 A 
ATOM     12  C   UNL     1       2.686  -1.623   4.835  0.00  0.00    +0.037 A 
ATOM     13  C   UNL     1       2.261  -2.802   5.420  0.00  0.00    +0.167 A 
ATOM     14  C   UNL     1       1.121  -3.443   4.954  0.00  0.00    +0.148 A 
ATOM     15  C   UNL     1       0.402  -2.900   3.903  0.00  0.00    +0.060 A 
BRANCH  13  16
ATOM     16  N   UNL     1       3.025  -3.383   6.547  0.00  0.00    +0.060 N 
ATOM     17  O   UNL     1       4.018  -2.826   6.955  0.00  0.00    -0.126 OA
ATOM     18  O   UNL     1       2.656  -4.413   7.061  0.00  0.00    -0.126 OA
ENDBRANCH  13  16
BRANCH  14  19
ATOM     19  O   UNL     1       0.709  -4.601   5.534  0.00  0.00    -0.504 OA
ATOM     20  H   UNL     1       0.097  -4.475   6.272  0.00  0.00    +0.292 HD
ENDBRANCH  14  19
ENDBRANCH   8  10
BRANCH   5  21
ATOM     21  C   UNL     1       4.049  -1.442  -0.537  0.00  0.00    -0.017 A 
ATOM     22  C   UNL     1       4.608  -0.288  -1.053  0.00  0.00    +0.006 A 
ATOM     23  C   UNL     1       5.974  -0.209  -1.250  0.00  0.00    +0.000 A 
ATOM     24  C   UNL     1       6.781  -1.285  -0.931  0.00  0.00    +0.000 A 
ATOM     25  C   UNL     1       6.223  -2.439  -0.414  0.00  0.00    +0.000 A 
ATOM     26  C   UNL     1       4.857  -2.516  -0.213  0.00  0.00    +0.006 A 
ENDBRANCH   5  21
TORSDOF 4
