REMARK  Name = ZINC48347302
REMARK  5 active torsions:
REMARK  status: ('A' for Active; 'I' for Inactive)
REMARK    1  A    between atoms: C_1  and  C_2
REMARK    2  A    between atoms: C_2  and  C_4
REMARK    3  A    between atoms: C_2  and  N_19
REMARK    4  A    between atoms: C_7  and  N_10
REMARK    5  A    between atoms: N_19  and  C_20
REMARK                            x       y       z     vdW  Elec       q    Type
REMARK                         _______ _______ _______ _____ _____    ______ ____
ROOT
ATOM      1  C   UNL     1      -1.505  -0.425  -0.131  0.00  0.00    -0.027 A 
ATOM      2  C   UNL     1      -1.745  -1.619  -0.785  0.00  0.00    +0.007 A 
ATOM      3  C   UNL     1      -3.038  -2.087  -0.920  0.00  0.00    +0.026 A 
ATOM      4  C   UNL     1      -4.097  -1.356  -0.398  0.00  0.00    +0.048 A 
ATOM      5  C   UNL     1      -3.853  -0.158   0.259  0.00  0.00    +0.026 A 
ATOM      6  C   UNL     1      -2.557   0.302   0.396  0.00  0.00    +0.007 A 
ENDROOT
BRANCH   4   7
ATOM      7  N   UNL     1      -5.409  -1.828  -0.534  0.00  0.00    -0.299 N 
ATOM      8  C   UNL     1      -5.998  -2.257  -1.685  0.00  0.00    +0.205 A 
ATOM      9  N   UNL     1      -7.224  -2.625  -1.449  0.00  0.00    -0.235 NA
ATOM     10  C   UNL     1      -7.506  -2.458  -0.131  0.00  0.00    +0.089 A 
ATOM     11  C   UNL     1      -6.346  -1.949   0.476  0.00  0.00    +0.073 A 
ATOM     12  C   UNL     1      -6.337  -1.682   1.837  0.00  0.00    +0.028 A 
ATOM     13  C   UNL     1      -7.467  -1.919   2.591  0.00  0.00    +0.002 A 
ATOM     14  C   UNL     1      -8.615  -2.424   1.996  0.00  0.00    +0.002 A 
ATOM     15  C   UNL     1      -8.644  -2.689   0.646  0.00  0.00    +0.030 A 
ENDBRANCH   4   7
BRANCH   1  17
ATOM     16  C   UNL     1      -0.104   1.612   0.064  0.00  0.00    +0.033 C 
ATOM     17  C   UNL     1      -0.094   0.083   0.015  0.00  0.00    +0.104 C 
BRANCH  17  18
ATOM     18  N   UNL     1       0.706  -0.364  -1.128  0.00  0.00    -0.282 N 
ATOM     19  C   UNL     1       0.393   0.120  -2.475  0.00  0.00    +0.134 C 
ATOM     20  C   UNL     1       1.730  -1.220  -0.941  0.00  0.00    +0.308 C 
ATOM     21  O   UNL     1       1.990  -1.622   0.177  0.00  0.00    -0.252 OA
ATOM     22  N   UNL     1       2.466  -1.631  -1.992  0.00  0.00    -0.254 N 
ATOM     23  C   UNL     1       3.588  -2.432  -1.787  0.00  0.00    +0.126 A 
ATOM     24  C   UNL     1       4.403  -2.764  -2.864  0.00  0.00    +0.044 A 
ATOM     25  C   UNL     1       5.514  -3.560  -2.646  0.00  0.00    +0.005 A 
ATOM     26  C   UNL     1       5.773  -3.997  -1.354  0.00  0.00    +0.020 A 
ATOM     27  C   UNL     1       4.921  -3.628  -0.332  0.00  0.00    +0.113 A 
ATOM     28  N   UNL     1       3.872  -2.864  -0.569  0.00  0.00    -0.240 NA
ATOM     29  H   UNL     1       2.214  -1.370  -2.892  0.00  0.00    +0.158 HD
ENDBRANCH  17  18
ENDBRANCH   1  17
TORSDOF 3
