REMARK  Name = ZINC64093710
REMARK  11 active torsions:
REMARK  status: ('A' for Active; 'I' for Inactive)
REMARK    1  A    between atoms: C_1  and  C_2
REMARK    2  A    between atoms: C_2  and  C_3
REMARK    3  A    between atoms: C_3  and  C_4
REMARK    4  A    between atoms: C_4  and  C_5
REMARK    5  A    between atoms: C_7  and  C_11
REMARK    6  A    between atoms: C_11  and  N_12
REMARK    7  A    between atoms: N_12  and  C_13
REMARK    8  A    between atoms: C_13  and  C_15
REMARK    9  A    between atoms: C_13  and  C_16
REMARK   10  A    between atoms: N_20  and  C_24
REMARK   11  A    between atoms: C_21  and  C_23
REMARK                            x       y       z     vdW  Elec       q    Type
REMARK                         _______ _______ _______ _____ _____    ______ ____
ROOT
ATOM      1  C   UNL     1      -7.799  -3.260   3.454  0.00  0.00    +0.061 C 
ATOM      2  C   UNL     1      -9.132  -3.969   3.201  0.00  0.00    +0.024 C 
ENDROOT
BRANCH   1   3
ATOM      3  C   UNL     1      -8.053  -1.947   4.197  0.00  0.00    +0.070 C 
ATOM      4  C   UNL     1      -8.652  -0.917   3.265  0.00  0.00    +0.110 C 
ATOM      5  N   UNL     1      -7.876   0.083   3.174  0.00  0.00    -0.191 NA
ATOM      6  N   UNL     1      -6.710  -0.020   3.931  0.00  0.00    -0.221 N 
ATOM      7  C   UNL     1      -6.721  -1.312   4.645  0.00  0.00    +0.105 C 
ATOM      8  C   UNL     1      -5.537  -2.179   4.212  0.00  0.00    +0.031 C 
BRANCH   6   9
ATOM      9  C   UNL     1      -5.702   0.937   4.002  0.00  0.00    +0.059 A 
ATOM     10  C   UNL     1      -5.297   1.432   5.225  0.00  0.00    +0.025 A 
ATOM     11  C   UNL     1      -4.291   2.389   5.306  0.00  0.00    +0.002 A 
ATOM     12  C   UNL     1      -3.678   2.863   4.186  0.00  0.00    +0.008 A 
ATOM     13  C   UNL     1      -4.060   2.385   2.921  0.00  0.00    -0.016 A 
ATOM     14  C   UNL     1      -5.079   1.406   2.825  0.00  0.00    +0.005 A 
ATOM     15  C   UNL     1      -5.456   0.925   1.561  0.00  0.00    +0.010 A 
ATOM     16  C   UNL     1      -4.834   1.400   0.446  0.00  0.00    +0.001 A 
ATOM     17  C   UNL     1      -3.827   2.358   0.541  0.00  0.00    +0.001 A 
ATOM     18  C   UNL     1      -3.445   2.856   1.749  0.00  0.00    +0.008 A 
ENDBRANCH   6   9
ENDBRANCH   1   3
BRANCH   1  19
ATOM     19  N   UNL     1      -7.143  -2.978   2.171  0.00  0.00    -0.307 NA
ATOM     20  H   UNL     1      -6.674  -2.085   2.193  0.00  0.00    +0.123 HD
BRANCH  19  21
ATOM     21  C   UNL     1      -6.210  -4.054   1.809  0.00  0.00    +0.136 C 
BRANCH  21  24
ATOM     22  C   UNL     1      -4.187  -2.903  -0.957  0.00  0.00    +0.084 A 
ATOM     23  N   UNL     1      -4.470  -2.965   0.315  0.00  0.00    -0.346 N 
ATOM     24  C   UNL     1      -5.558  -3.730   0.490  0.00  0.00    +0.047 A 
ATOM     25  H   UNL     1      -5.131  -3.756  -2.600  0.00  0.00    +0.166 HD
ATOM     26  C   UNL     1      -5.964  -4.159  -0.720  0.00  0.00    +0.106 A 
ATOM     27  N   UNL     1      -5.098  -3.630  -1.639  0.00  0.00    -0.350 N 
ATOM     28  H   UNL     1      -3.972  -2.527   1.023  0.00  0.00    +0.167 HD
BRANCH  22  29
ATOM     29  C   UNL     1      -3.038  -2.142  -1.565  0.00  0.00    +0.072 C 
BRANCH  29  30
ATOM     30  C   UNL     1      -3.487  -0.717  -1.895  0.00  0.00    +0.007 C 
BRANCH  30  32
ATOM     31  C   UNL     1      -2.770   1.482  -2.841  0.00  0.00    +0.004 C 
ATOM     32  C   UNL     1      -2.321   0.057  -2.512  0.00  0.00    -0.003 C 
ENDBRANCH  30  32
ENDBRANCH  29  30
ENDBRANCH  22  29
ENDBRANCH  21  24
ENDBRANCH  19  21
ENDBRANCH   1  19
TORSDOF 8
