REMARK  Name = ZINC21727734
REMARK  5 active torsions:
REMARK  status: ('A' for Active; 'I' for Inactive)
REMARK    1  A    between atoms: C_1  and  C_2
REMARK    2  A    between atoms: C_2  and  C_3
REMARK    3  A    between atoms: C_2  and  C_4
REMARK    4  A    between atoms: C_7  and  C_10
REMARK    5  A    between atoms: C_12  and  C_20
REMARK                            x       y       z     vdW  Elec       q    Type
REMARK                         _______ _______ _______ _____ _____    ______ ____
ROOT
ATOM      1  C   UNL     1       2.782  -1.908   4.660  0.00  0.00    +0.055 C 
ATOM      2  C   UNL     1       2.048  -2.794   5.625  0.00  0.00    +0.087 C 
ATOM      3  C   UNL     1       2.990  -3.822   6.261  0.00  0.00    +0.147 C 
ATOM      4  N   UNL     1       4.242  -3.143   6.596  0.00  0.00    -0.222 N 
ATOM      5  C   UNL     1       4.712  -2.071   5.888  0.00  0.00    +0.249 A 
ATOM      6  N   UNL     1       5.850  -1.711   6.429  0.00  0.00    -0.198 NA
ATOM      7  C   UNL     1       6.126  -2.505   7.464  0.00  0.00    +0.247 A 
ATOM      8  N   UNL     1       5.168  -3.392   7.604  0.00  0.00    -0.156 NA
ATOM      9  N   UNL     1       4.027  -1.556   4.833  0.00  0.00    -0.215 NA
ENDROOT
BRANCH   3  10
ATOM     10  C   UNL     1       2.363  -4.382   7.512  0.00  0.00    -0.022 A 
ATOM     11  C   UNL     1       2.033  -3.539   8.556  0.00  0.00    +0.008 A 
ATOM     12  C   UNL     1       1.458  -4.051   9.703  0.00  0.00    +0.038 A 
ATOM     13  C   UNL     1       1.212  -5.410   9.806  0.00  0.00    +0.123 A 
ATOM     14  C   UNL     1       1.543  -6.254   8.760  0.00  0.00    +0.038 A 
ATOM     15  C   UNL     1       2.114  -5.738   7.611  0.00  0.00    +0.008 A 
ATOM     16  F   UNL     1       0.650  -5.912  10.928  0.00  0.00    -0.205 F 
ENDBRANCH   3  10
BRANCH   1  20
ATOM     17  C   UNL     1       0.731  -0.503   1.223  0.00  0.00    -0.045 A 
ATOM     18  C   UNL     1       2.052  -0.145   1.431  0.00  0.00    +0.004 A 
ATOM     19  C   UNL     1       2.725  -0.598   2.545  0.00  0.00    +0.010 A 
ATOM     20  C   UNL     1       2.071  -1.420   3.468  0.00  0.00    -0.004 A 
ATOM     21  C   UNL     1       0.736  -1.778   3.251  0.00  0.00    +0.010 A 
ATOM     22  C   UNL     1       0.074  -1.313   2.134  0.00  0.00    +0.004 A 
BRANCH  17  24
ATOM     23  C   UNL     1      -0.019   1.526   0.010  0.00  0.00    +0.012 C 
ATOM     24  C   UNL     1       0.002  -0.004   0.002  0.00  0.00    +0.013 C 
ATOM     25  C   UNL     1       0.718  -0.497  -1.257  0.00  0.00    +0.012 C 
ENDBRANCH  17  24
ENDBRANCH   1  20
TORSDOF 3
