REMARK  Name = ZINC01038111
REMARK  8 active torsions:
REMARK  status: ('A' for Active; 'I' for Inactive)
REMARK    1  A    between atoms: C_1  and  C_2
REMARK    2  A    between atoms: C_2  and  C_3
REMARK    3  A    between atoms: C_3  and  S_4
REMARK    4  A    between atoms: S_4  and  C_7
REMARK    5  A    between atoms: C_8  and  N_28
REMARK    6  A    between atoms: C_10  and  C_22
REMARK    7  A    between atoms: C_11  and  C_20
REMARK    8  A    between atoms: C_12  and  C_14
REMARK                            x       y       z     vdW  Elec       q    Type
REMARK                         _______ _______ _______ _____ _____    ______ ____
ROOT
ATOM      1  C   UNL     1      -3.780   3.365  -0.008  0.00  0.00    +0.135 C 
ATOM      2  C   UNL     1      -3.682   2.046  -0.008  0.00  0.00    +0.206 C 
ATOM      3  O   UNL     1      -2.489   1.416   0.018  0.00  0.00    -0.439 OA
ATOM      4  C   UNL     1      -1.371   2.085  -0.329  0.00  0.00    +0.151 C 
ATOM      5  C   UNL     1      -1.338   3.439  -0.342  0.00  0.00    +0.085 C 
ATOM      6  C   UNL     1      -2.558   4.241   0.022  0.00  0.00    +0.116 C 
ENDROOT
BRANCH   6   7
ATOM      7  C   UNL     1      -2.383   4.807   1.407  0.00  0.00    -0.033 A 
ATOM      8  C   UNL     1      -2.218   3.958   2.486  0.00  0.00    +0.004 A 
ATOM      9  C   UNL     1      -2.053   4.478   3.756  0.00  0.00    +0.000 A 
ATOM     10  C   UNL     1      -2.061   5.846   3.949  0.00  0.00    +0.000 A 
ATOM     11  C   UNL     1      -2.231   6.696   2.872  0.00  0.00    +0.000 A 
ATOM     12  C   UNL     1      -2.392   6.176   1.601  0.00  0.00    +0.004 A 
ENDBRANCH   6   7
BRANCH   4  13
ATOM     13  C   UNL     1      -0.158   1.328  -0.695  0.00  0.00    +0.018 A 
ATOM     14  C   UNL     1       0.540   1.644  -1.863  0.00  0.00    +0.011 A 
ATOM     15  C   UNL     1       1.670   0.929  -2.202  0.00  0.00    +0.001 A 
ATOM     16  C   UNL     1       2.111  -0.100  -1.389  0.00  0.00    +0.000 A 
ATOM     17  C   UNL     1       1.424  -0.419  -0.231  0.00  0.00    +0.001 A 
ATOM     18  C   UNL     1       0.293   0.288   0.121  0.00  0.00    +0.011 A 
ENDBRANCH   4  13
BRANCH   1  19
ATOM     19  S   UNL     1      -5.375   4.111  -0.044  0.00  0.00    -0.001 S 
ATOM     20  O   UNL     1      -5.202   5.303  -0.798  0.00  0.00    -0.169 OA
ATOM     21  O   UNL     1      -6.246   3.085  -0.500  0.00  0.00    -0.169 OA
BRANCH  19  22
ATOM     22  C   UNL     1      -5.740   4.515   1.687  0.00  0.00    +0.171 C 
BRANCH  22  24
ATOM     23  C   UNL     1      -7.425   5.516   3.237  0.00  0.00    +0.005 C 
ATOM     24  C   UNL     1      -7.117   5.176   1.777  0.00  0.00    +0.020 C 
ENDBRANCH  22  24
ENDBRANCH  19  22
ENDBRANCH   1  19
BRANCH   2  25
ATOM     25  N   UNL     1      -4.844   1.286  -0.036  0.00  0.00    -0.328 N 
ATOM     26  H   UNL     1      -5.628   1.580   0.454  0.00  0.00    +0.145 HD
ATOM     27  H   UNL     1      -4.872   0.460  -0.545  0.00  0.00    +0.145 HD
ENDBRANCH   2  25
BRANCH   5  28
ATOM     28  C   UNL     1      -0.131   4.115  -0.711  0.00  0.00    +0.099 C 
ATOM     29  N   UNL     1       0.827   4.651  -1.004  0.00  0.00    -0.191 NA
ENDBRANCH   5  28
TORSDOF 7
