REMARK  Name = ZINC13463211
REMARK  5 active torsions:
REMARK  status: ('A' for Active; 'I' for Inactive)
REMARK    1  A    between atoms: C_6  and  S_7
REMARK    2  A    between atoms: S_7  and  O_10
REMARK    3  A    between atoms: O_10  and  C_11
REMARK    4  A    between atoms: C_14  and  C_18
REMARK    5  A    between atoms: C_15  and  O_17
REMARK                            x       y       z     vdW  Elec       q    Type
REMARK                         _______ _______ _______ _____ _____    ______ ____
ROOT
ATOM      1  O   UNL     1       3.534   2.132  -0.020  0.00  0.00    -0.342 OA
ENDROOT
BRANCH   1   2
ATOM      2  C   UNL     1       2.375   1.425  -0.013  0.00  0.00    +0.160 A 
ATOM      3  C   UNL     1       1.155   2.095   0.002  0.00  0.00    +0.049 A 
ATOM      4  C   UNL     1      -0.017   1.395   0.010  0.00  0.00    +0.022 A 
ATOM      5  C   UNL     1       0.002  -0.004   0.002  0.00  0.00    +0.105 A 
ATOM      6  C   UNL     1       1.230  -0.683  -0.013  0.00  0.00    +0.135 A 
ATOM      7  C   UNL     1       2.412   0.039  -0.021  0.00  0.00    +0.094 A 
BRANCH   5   8
ATOM      8  C   UNL     1      -1.260  -0.760   0.009  0.00  0.00    +0.390 C 
ATOM      9  O   UNL     1      -1.241  -1.976   0.003  0.00  0.00    -0.240 OA
ATOM     10  O   UNL     1      -2.438  -0.105   0.024  0.00  0.00    -0.240 OA
ENDBRANCH   5   8
BRANCH   6  11
ATOM     11  O   UNL     1       1.260  -2.039  -0.021  0.00  0.00    -0.506 OA
ATOM     12  H   UNL     1       1.260  -2.428  -0.906  0.00  0.00    +0.292 HD
ENDBRANCH   6  11
ENDBRANCH   1   2
BRANCH   1  13
ATOM     13  S   UNL     1       4.049   2.462  -1.414  0.00  0.00    +0.151 S 
ATOM     14  O   UNL     1       5.350   3.008  -1.247  0.00  0.00    -0.131 OA
ATOM     15  O   UNL     1       3.800   1.319  -2.220  0.00  0.00    -0.131 OA
BRANCH  13  21
ATOM     16  C   UNL     1       1.898   3.452  -2.773  0.00  0.00    +0.031 A 
ATOM     17  C   UNL     1       1.102   4.467  -3.268  0.00  0.00    +0.017 A 
ATOM     18  C   UNL     1       1.450   5.788  -3.050  0.00  0.00    +0.018 A 
ATOM     19  C   UNL     1       2.592   6.092  -2.332  0.00  0.00    +0.017 A 
ATOM     20  C   UNL     1       3.385   5.077  -1.832  0.00  0.00    +0.031 A 
ATOM     21  C   UNL     1       3.037   3.757  -2.050  0.00  0.00    +0.128 A 
ATOM     22 BR   UNL     1       0.364   7.178  -3.733  0.00  0.00    -0.050 Br
ENDBRANCH  13  21
ENDBRANCH   1  13
TORSDOF 5
