REMARK  Name = ZINC22941988
REMARK  10 active torsions:
REMARK  status: ('A' for Active; 'I' for Inactive)
REMARK    1  A    between atoms: C_1  and  C_2
REMARK    2  A    between atoms: C_2  and  N_3
REMARK    3  A    between atoms: N_6  and  C_9
REMARK    4  A    between atoms: C_9  and  C_11
REMARK    5  A    between atoms: C_9  and  C_16
REMARK    6  A    between atoms: C_16  and  C_18
REMARK    7  A    between atoms: C_16  and  N_19
REMARK    8  A    between atoms: N_21  and  C_22
REMARK    9  A    between atoms: C_26  and  C_29
REMARK   10  A    between atoms: C_27  and  C_28
REMARK                            x       y       z     vdW  Elec       q    Type
REMARK                         _______ _______ _______ _____ _____    ______ ____
ROOT
ATOM      1  C   UNL     1      -5.000  -4.390   1.342  0.00  0.00    +0.100 C 
ATOM      2  C   UNL     1      -3.827  -5.271   0.909  0.00  0.00    +0.032 C 
ENDROOT
BRANCH   1   3
ATOM      3  N   UNL     1      -6.258  -5.002   0.909  0.00  0.00    -0.363 N 
ATOM      4  C   UNL     1      -6.857  -5.954   1.685  0.00  0.00    +0.143 C 
ATOM      5  N   UNL     1      -8.032  -6.527   1.280  0.00  0.00    -0.295 N 
ATOM      6  S   UNL     1      -6.160  -6.416   3.119  0.00  0.00    -0.016 SA
ATOM      7  H   UNL     1      -8.577  -6.091   0.607  0.00  0.00    +0.154 HD
ATOM      8  H   UNL     1      -6.665  -4.732   0.071  0.00  0.00    +0.162 HD
BRANCH   5   9
ATOM      9  C   UNL     1      -8.447  -7.741   1.837  0.00  0.00    +0.036 A 
ATOM     10  C   UNL     1      -7.518  -8.738   2.103  0.00  0.00    +0.023 A 
ATOM     11  C   UNL     1      -7.931  -9.936   2.654  0.00  0.00    +0.002 A 
ATOM     12  C   UNL     1      -9.268 -10.142   2.939  0.00  0.00    +0.004 A 
ATOM     13  C   UNL     1     -10.196  -9.151   2.676  0.00  0.00    -0.046 A 
ATOM     14  C   UNL     1      -9.788  -7.949   2.131  0.00  0.00    -0.026 A 
ATOM     15  C   UNL     1     -10.799  -6.867   1.850  0.00  0.00    +0.046 C 
ATOM     16  C   UNL     1     -11.652  -9.380   2.989  0.00  0.00    +0.044 C 
ENDBRANCH   5   9
ENDBRANCH   1   3
BRANCH   1  17
ATOM     17  C   UNL     1      -4.860  -3.006   0.705  0.00  0.00    +0.115 C 
BRANCH  17  21
ATOM     18  N   UNL     1      -1.827  -0.457   2.179  0.00  0.00    +0.381 N 
ATOM     19  C   UNL     1      -2.011  -1.760   2.831  0.00  0.00    -0.063 C 
ATOM     20  C   UNL     1      -3.407  -2.300   2.509  0.00  0.00    +0.066 C 
ATOM     21  N   UNL     1      -3.551  -2.436   1.052  0.00  0.00    -0.297 NA
ATOM     22  C   UNL     1      -3.345  -1.144   0.384  0.00  0.00    +0.066 C 
ATOM     23  C   UNL     1      -1.950  -0.614   0.724  0.00  0.00    -0.063 C 
ATOM     24  H   UNL     1      -2.532   0.186   2.509  0.00  0.00    -0.082 HD
BRANCH  18  26
ATOM     25  C   UNL     1      -0.409   0.350   4.005  0.00  0.00    -0.017 C 
ATOM     26  C   UNL     1      -0.495   0.069   2.504  0.00  0.00    -0.082 C 
ENDBRANCH  18  26
ENDBRANCH  17  21
BRANCH  17  27
ATOM     27  C   UNL     1      -4.972  -3.129  -0.793  0.00  0.00    +0.009 A 
ATOM     28  C   UNL     1      -6.025  -2.842  -1.597  0.00  0.00    +0.013 A 
ATOM     29  C   UNL     1      -5.901  -3.034  -2.960  0.00  0.00    +0.008 A 
ATOM     30  C   UNL     1      -4.729  -3.505  -3.452  0.00  0.00    +0.045 A 
ATOM     31  S   UNL     1      -3.750  -3.684  -1.970  0.00  0.00    -0.100 S 
ENDBRANCH  17  27
ENDBRANCH   1  17
TORSDOF 6
