REMARK  Name = ZINC36042373
REMARK  8 active torsions:
REMARK  status: ('A' for Active; 'I' for Inactive)
REMARK    1  A    between atoms: C_1  and  C_2
REMARK    2  A    between atoms: C_2  and  C_4
REMARK    3  A    between atoms: C_2  and  N_19
REMARK    4  A    between atoms: N_6  and  N_7
REMARK    5  A    between atoms: C_8  and  C_9
REMARK    6  A    between atoms: C_11  and  N_16
REMARK    7  A    between atoms: C_14  and  O_15
REMARK    8  A    between atoms: N_19  and  C_20
REMARK                            x       y       z     vdW  Elec       q    Type
REMARK                         _______ _______ _______ _____ _____    ______ ____
ROOT
ATOM      1  C   UNL     1       0.707  -0.490  -1.238  0.00  0.00    +0.252 C 
ATOM      2  O   UNL     1       0.120  -1.191  -2.035  0.00  0.00    -0.272 OA
ATOM      3  N   UNL     1       1.991  -0.146  -1.462  0.00  0.00    -0.205 N 
ATOM      4  H   UNL     1       2.461   0.415  -0.825  0.00  0.00    +0.177 HD
ENDROOT
BRANCH   1   6
ATOM      5  C   UNL     1      -0.019   1.526   0.010  0.00  0.00    +0.038 C 
ATOM      6  C   UNL     1       0.002  -0.004   0.002  0.00  0.00    +0.155 C 
BRANCH   6   7
ATOM      7  N   UNL     1      -1.372  -0.511   0.012  0.00  0.00    -0.333 N 
ATOM      8  H   UNL     1      -1.810  -0.743  -0.822  0.00  0.00    +0.147 HD
BRANCH   7   9
ATOM      9  C   UNL     1      -2.053  -0.660   1.224  0.00  0.00    +0.028 A 
ATOM     10  C   UNL     1      -1.429  -0.323   2.418  0.00  0.00    +0.024 A 
ATOM     11  C   UNL     1      -2.104  -0.472   3.614  0.00  0.00    +0.017 A 
ATOM     12  C   UNL     1      -3.400  -0.957   3.623  0.00  0.00    +0.018 A 
ATOM     13  C   UNL     1      -4.024  -1.294   2.434  0.00  0.00    +0.017 A 
ATOM     14  C   UNL     1      -3.356  -1.141   1.235  0.00  0.00    +0.024 A 
ATOM     15 BR   UNL     1      -4.321  -1.160   5.262  0.00  0.00    -0.050 Br
ENDBRANCH   7   9
ENDBRANCH   6   7
ENDBRANCH   1   6
BRANCH   3  16
ATOM     16  N   UNL     1       2.647  -0.598  -2.614  0.00  0.00    -0.188 NA
ATOM     17  C   UNL     1       3.883  -0.266  -2.830  0.00  0.00    +0.142 C 
BRANCH  17  18
ATOM     18  C   UNL     1       4.573  -0.741  -4.042  0.00  0.00    +0.038 A 
ATOM     19  C   UNL     1       5.905  -0.392  -4.275  0.00  0.00    +0.045 A 
ATOM     20  C   UNL     1       6.545  -0.840  -5.411  0.00  0.00    +0.127 A 
ATOM     21  C   UNL     1       5.872  -1.636  -6.323  0.00  0.00    +0.036 A 
ATOM     22  C   UNL     1       4.554  -1.988  -6.104  0.00  0.00    +0.048 A 
ATOM     23  C   UNL     1       3.898  -1.552  -4.965  0.00  0.00    +0.126 A 
BRANCH  20  24
ATOM     24  N   UNL     1       7.957  -0.469  -5.657  0.00  0.00    +0.056 N 
ATOM     25  O   UNL     1       8.546   0.226  -4.863  0.00  0.00    -0.126 OA
ATOM     26  O   UNL     1       8.520  -0.861  -6.653  0.00  0.00    -0.126 OA
ENDBRANCH  20  24
BRANCH  23  27
ATOM     27  O   UNL     1       2.604  -1.902  -4.747  0.00  0.00    -0.506 OA
ATOM     28  H   UNL     1       1.961  -1.284  -5.119  0.00  0.00    +0.292 HD
ENDBRANCH  23  27
ENDBRANCH  17  18
ENDBRANCH   3  16
TORSDOF 7
