REMARK  Name = ZINC39665952
REMARK  10 active torsions:
REMARK  status: ('A' for Active; 'I' for Inactive)
REMARK    1  A    between atoms: C_1  and  C_2
REMARK    2  A    between atoms: C_5  and  O_8
REMARK    3  A    between atoms: O_8  and  C_9
REMARK    4  A    between atoms: C_9  and  C_11
REMARK    5  A    between atoms: C_9  and  C_12
REMARK    6  A    between atoms: C_12  and  N_13
REMARK    7  A    between atoms: C_14  and  C_16
REMARK    8  A    between atoms: C_27  and  C_29
REMARK    9  A    between atoms: C_29  and  C_30
REMARK   10  A    between atoms: C_30  and  C_31
REMARK                            x       y       z     vdW  Elec       q    Type
REMARK                         _______ _______ _______ _____ _____    ______ ____
ROOT
ATOM      1  C   UNL     1       4.838  -6.439   0.555  0.00  0.00    +0.100 C 
ATOM      2  C   UNL     1       5.018  -5.600  -0.730  0.00  0.00    +0.121 C 
ATOM      3  N   UNL     1       6.280  -6.095  -1.327  0.00  0.00    -0.300 N 
ATOM      4  C   UNL     1       6.240  -7.561  -1.109  0.00  0.00    +0.115 C 
ATOM      5  C   UNL     1       5.641  -7.726   0.302  0.00  0.00    -0.004 C 
ATOM      6  C   UNL     1       4.720  -8.941   0.344  0.00  0.00    -0.010 C 
ATOM      7  C   UNL     1       5.550 -10.213   0.148  0.00  0.00    -0.082 C 
ATOM      8  N   UNL     1       6.564 -10.305   1.206  0.00  0.00    +0.379 N 
ATOM      9  C   UNL     1       7.502  -9.181   1.099  0.00  0.00    -0.082 C 
ATOM     10  C   UNL     1       6.755  -7.865   1.335  0.00  0.00    -0.010 C 
ATOM     11  C   UNL     1       7.246  -5.376  -1.932  0.00  0.00    +0.216 C 
ATOM     12  O   UNL     1       8.229  -5.932  -2.375  0.00  0.00    -0.276 OA
ATOM     13  H   UNL     1       6.112 -10.279   2.107  0.00  0.00    -0.086 HD
ATOM     14  H   UNL     1       7.069 -11.173   1.110  0.00  0.00    -0.086 HD
ENDROOT
BRANCH   1  16
ATOM     15  N   UNL     1       2.912  -6.953   2.019  0.00  0.00    -0.312 N 
ATOM     16  C   UNL     1       3.382  -6.763   0.771  0.00  0.00    +0.218 C 
ATOM     17  O   UNL     1       2.634  -6.853  -0.179  0.00  0.00    -0.275 OA
ATOM     18  H   UNL     1       3.510  -6.881   2.779  0.00  0.00    +0.149 HD
BRANCH  15  19
ATOM     19  C   UNL     1       1.497  -7.268   2.229  0.00  0.00    +0.148 C 
BRANCH  19  20
ATOM     20  C   UNL     1       1.227  -7.434   3.726  0.00  0.00    +0.187 C 
ATOM     21  C   UNL     1      -0.219  -7.884   3.937  0.00  0.00    +0.053 C 
BRANCH  20  22
ATOM     22  O   UNL     1       1.439  -6.185   4.389  0.00  0.00    -0.488 OA
BRANCH  22  27
ATOM     23  C   UNL     1       2.771  -6.388   9.858  0.00  0.00    +0.044 C 
ATOM     24  C   UNL     1       2.414  -6.334   8.395  0.00  0.00    -0.050 A 
ATOM     25  C   UNL     1       2.090  -7.496   7.720  0.00  0.00    +0.007 A 
ATOM     26  C   UNL     1       1.763  -7.449   6.378  0.00  0.00    +0.046 A 
ATOM     27  C   UNL     1       1.760  -6.234   5.709  0.00  0.00    +0.121 A 
ATOM     28  C   UNL     1       2.085  -5.069   6.388  0.00  0.00    +0.046 A 
ATOM     29  C   UNL     1       2.406  -5.121   7.731  0.00  0.00    +0.007 A 
ENDBRANCH  22  27
ENDBRANCH  20  22
ENDBRANCH  19  20
ENDBRANCH  15  19
ENDBRANCH   1  16
BRANCH  11  30
ATOM     30  C   UNL     1       7.105  -3.881  -2.058  0.00  0.00    +0.100 C 
BRANCH  30  31
ATOM     31  C   UNL     1       8.329  -3.312  -2.779  0.00  0.00    +0.044 C 
BRANCH  31  32
ATOM     32  C   UNL     1       8.188  -1.817  -2.905  0.00  0.00    -0.047 A 
ATOM     33  C   UNL     1       7.564  -1.272  -4.012  0.00  0.00    +0.003 A 
ATOM     34  C   UNL     1       7.435   0.099  -4.127  0.00  0.00    +0.000 A 
ATOM     35  C   UNL     1       7.928   0.926  -3.136  0.00  0.00    +0.000 A 
ATOM     36  C   UNL     1       8.551   0.381  -2.028  0.00  0.00    +0.000 A 
ATOM     37  C   UNL     1       8.677  -0.990  -1.911  0.00  0.00    +0.003 A 
ENDBRANCH  31  32
ENDBRANCH  30  31
ENDBRANCH  11  30
TORSDOF 8
