REMARK  Name = ZINC08148524
REMARK  8 active torsions:
REMARK  status: ('A' for Active; 'I' for Inactive)
REMARK    1  A    between atoms: C_1  and  C_2
REMARK    2  A    between atoms: C_2  and  O_3
REMARK    3  A    between atoms: O_3  and  C_4
REMARK    4  A    between atoms: C_4  and  C_6
REMARK    5  A    between atoms: C_11  and  N_12
REMARK    6  A    between atoms: C_11  and  N_48
REMARK    7  A    between atoms: C_15  and  C_19
REMARK    8  A    between atoms: C_15  and  C_20
REMARK                            x       y       z     vdW  Elec       q    Type
REMARK                         _______ _______ _______ _____ _____    ______ ____
ROOT
ATOM      1  C   UNL     1       2.201   7.489  -1.423  0.00  0.00    +0.043 C 
ENDROOT
BRANCH   1   2
ATOM      2  N   UNL     1       1.085   8.012  -2.214  0.00  0.00    -0.241 N 
ATOM      3  C   UNL     1       1.096   8.126  -3.557  0.00  0.00    +0.245 C 
ATOM      4  O   UNL     1       1.998   7.826  -4.309  0.00  0.00    -0.273 OA
ATOM      5  C   UNL     1      -0.254   8.704  -3.930  0.00  0.00    +0.112 C 
ATOM      6  N   UNL     1      -0.930   8.872  -2.633  0.00  0.00    -0.285 N 
ATOM      7  C   UNL     1      -0.070   8.441  -1.692  0.00  0.00    +0.308 C 
ATOM      8  O   UNL     1      -0.315   8.441  -0.502  0.00  0.00    -0.252 OA
ATOM      9  C   UNL     1      -1.034   7.737  -4.823  0.00  0.00    +0.042 C 
ATOM     10  H   UNL     1      -1.821   9.225  -2.485  0.00  0.00    +0.151 HD
BRANCH   5  11
ATOM     11  C   UNL     1      -0.081  10.056  -4.626  0.00  0.00    +0.021 C 
ATOM     12  C   UNL     1      -0.455  11.311  -3.834  0.00  0.00    +0.006 C 
ATOM     13  C   UNL     1      -1.350  10.835  -4.981  0.00  0.00    +0.006 C 
ENDBRANCH   5  11
ENDBRANCH   1   2
BRANCH   1  19
ATOM     14  C   UNL     1       1.228   3.579   0.010  0.00  0.00    +0.094 C 
ATOM     15  C   UNL     1       0.518   4.125  -1.232  0.00  0.00    -0.004 C 
ATOM     16  C   UNL     1       0.635   5.651  -1.251  0.00  0.00    -0.076 C 
ATOM     17  C   UNL     1       2.743   5.563  -0.059  0.00  0.00    -0.076 C 
ATOM     18  C   UNL     1       2.690   4.035  -0.005  0.00  0.00    -0.004 C 
ATOM     19  N   UNL     1       2.065   6.024  -1.290  0.00  0.00    +0.391 N 
ATOM     20  H   UNL     1       2.505   5.573  -2.100  0.00  0.00    -0.079 HD
BRANCH  14  21
ATOM     21  C   UNL     1       1.170   2.073   0.002  0.00  0.00    +0.310 C 
ATOM     22  O   UNL     1       2.192   1.429  -0.011  0.00  0.00    -0.251 OA
BRANCH  21  23
ATOM     23  O   UNL     1      -0.018   1.448   0.010  0.00  0.00    -0.465 OA
BRANCH  23  25
ATOM     24  C   UNL     1      -1.433  -0.534   0.013  0.00  0.00    +0.048 C 
ATOM     25  C   UNL     1       0.002  -0.004   0.002  0.00  0.00    +0.229 C 
ENDBRANCH  23  25
ENDBRANCH  21  23
ENDBRANCH  14  21
ENDBRANCH   1  19
TORSDOF 6
