REMARK  Name = ZINC05887164
REMARK  5 active torsions:
REMARK  status: ('A' for Active; 'I' for Inactive)
REMARK    1  A    between atoms: C_1  and  C_2
REMARK    2  A    between atoms: C_5  and  C_7
REMARK    3  A    between atoms: C_14  and  S_25
REMARK    4  A    between atoms: S_25  and  C_26
REMARK    5  A    between atoms: C_26  and  C_27
REMARK                            x       y       z     vdW  Elec       q    Type
REMARK                         _______ _______ _______ _____ _____    ______ ____
ROOT
ATOM      1  C   UNL     1      -0.013   1.086   0.008  0.00  0.00    +0.099 C 
ATOM      2  C   UNL     1      -0.697   1.560   1.255  0.00  0.00    +0.069 A 
ATOM      3  C   UNL     1      -0.431   0.943   2.485  0.00  0.00    +0.258 A 
ATOM      4  O   UNL     1       0.352   0.010   2.556  0.00  0.00    -0.267 OA
ATOM      5  N   UNL     1      -1.061   1.399   3.588  0.00  0.00    -0.302 N 
ATOM      6  H   UNL     1      -0.870   0.928   4.564  0.00  0.00    +0.171 HD
ATOM      7  C   UNL     1      -1.932   2.443   3.497  0.00  0.00    +0.171 A 
ATOM      8  N   UNL     1      -2.184   3.026   2.343  0.00  0.00    -0.208 NA
ATOM      9  C   UNL     1      -1.592   2.614   1.217  0.00  0.00    +0.135 A 
ATOM     10  N   UNL     1      -1.868   3.232   0.013  0.00  0.00    -0.302 N 
ATOM     11  C   UNL     1      -1.593   2.607  -1.172  0.00  0.00    +0.017 C 
ATOM     12  C   UNL     1      -0.724   1.576  -1.228  0.00  0.00    +0.024 C 
ATOM     13  C   UNL     1      -0.453   0.923  -2.443  0.00  0.00    +0.162 C 
ATOM     14  O   UNL     1       0.343   0.005  -2.461  0.00  0.00    -0.292 OA
ATOM     15  C   UNL     1      -1.127   1.339  -3.721  0.00  0.00    +0.080 C 
ATOM     16  C   UNL     1      -2.497   1.940  -3.388  0.00  0.00    +0.014 C 
ATOM     17  C   UNL     1      -2.291   3.103  -2.416  0.00  0.00    +0.051 C 
ATOM     18  H   UNL     1      -2.314   4.238   0.002  0.00  0.00    +0.153 HD
ENDROOT
BRANCH   1  23
ATOM     19  C   UNL     1       4.899   3.909  -0.023  0.00  0.00    +0.051 C 
ATOM     20  C   UNL     1       3.743   2.942  -0.017  0.00  0.00    -0.013 A 
ATOM     21  C   UNL     1       3.764   1.587  -0.025  0.00  0.00    +0.011 A 
ATOM     22  C   UNL     1       2.565   0.898  -0.012  0.00  0.00    +0.012 A 
ATOM     23  C   UNL     1       1.405   1.598  -0.003  0.00  0.00    +0.002 A 
ATOM     24  S   UNL     1       1.991   3.284   0.001  0.00  0.00    -0.097 S 
ENDBRANCH   1  23
BRANCH   7  25
ATOM     25  S   UNL     1      -2.737   3.024   4.952  0.00  0.00    -0.084 S 
BRANCH  25  26
ATOM     26  C   UNL     1      -3.730   4.364   4.248  0.00  0.00    +0.104 C 
BRANCH  26  27
ATOM     27  C   UNL     1      -4.528   5.026   5.341  0.00  0.00    -0.023 C 
ATOM     28  C   UNL     1      -4.291   6.275   5.660  0.00  0.00    +0.005 C 
ENDBRANCH  26  27
ENDBRANCH  25  26
ENDBRANCH   7  25
TORSDOF 4
