REMARK  Name = ZINC02914124
REMARK  2 active torsions:
REMARK  status: ('A' for Active; 'I' for Inactive)
REMARK    1  A    between atoms: C_3  and  C_8
REMARK    2  A    between atoms: C_11  and  C_19
REMARK                            x       y       z     vdW  Elec       q    Type
REMARK                         _______ _______ _______ _____ _____    ______ ____
ROOT
ATOM      1  C   UNL     1       3.672   2.183  -0.022  0.00  0.00    +0.114 C 
ATOM      2  C   UNL     1       4.211   2.246  -1.452  0.00  0.00    +0.059 C 
ATOM      3  C   UNL     1       5.558   2.989  -1.465  0.00  0.00    +0.137 C 
ATOM      4  N   UNL     1       6.409   2.356  -0.460  0.00  0.00    -0.197 N 
ATOM      5  C   UNL     1       5.908   1.649   0.627  0.00  0.00    +0.232 C 
ATOM      6  N   UNL     1       4.635   1.522   0.867  0.00  0.00    -0.348 N 
ATOM      7  N   UNL     1       6.991   1.188   1.297  0.00  0.00    -0.097 NA
ATOM      8  N   UNL     1       8.064   1.584   0.704  0.00  0.00    -0.060 NA
ATOM      9  N   UNL     1       7.793   2.293  -0.341  0.00  0.00    -0.164 N 
ATOM     10  H   UNL     1       8.438   2.707  -0.936  0.00  0.00    +0.195 HD
ATOM     11  H   UNL     1       4.327   0.999   1.623  0.00  0.00    +0.163 HD
ENDROOT
BRANCH   1  14
ATOM     12  C   UNL     1      -0.017   1.378   0.010  0.00  0.00    +0.001 A 
ATOM     13  C   UNL     1       1.171   2.086   0.002  0.00  0.00    +0.006 A 
ATOM     14  C   UNL     1       2.378   1.411  -0.013  0.00  0.00    -0.024 A 
ATOM     15  C   UNL     1       2.397   0.029  -0.022  0.00  0.00    +0.021 A 
ATOM     16  C   UNL     1       1.210  -0.679  -0.014  0.00  0.00    +0.018 A 
ATOM     17  C   UNL     1       0.002  -0.004   0.002  0.00  0.00    +0.015 A 
ATOM     18 BR   UNL     1       1.236  -2.570  -0.025  0.00  0.00    -0.050 Br
ENDBRANCH   1  14
BRANCH   3  19
ATOM     19  C   UNL     1       6.194   2.873  -2.826  0.00  0.00    +0.012 A 
ATOM     20  C   UNL     1       6.221   3.777  -3.836  0.00  0.00    +0.013 A 
ATOM     21  C   UNL     1       6.873   3.451  -5.010  0.00  0.00    +0.008 A 
ATOM     22  C   UNL     1       7.467   2.237  -5.117  0.00  0.00    +0.045 A 
ATOM     23  S   UNL     1       7.117   1.513  -3.523  0.00  0.00    -0.100 S 
ENDBRANCH   3  19
TORSDOF 2
