REMARK  Name = ZINC63926006
REMARK  6 active torsions:
REMARK  status: ('A' for Active; 'I' for Inactive)
REMARK    1  A    between atoms: C_7  and  C_10
REMARK    2  A    between atoms: C_10  and  C_11
REMARK    3  A    between atoms: N_13  and  N_14
REMARK    4  A    between atoms: C_15  and  C_17
REMARK    5  A    between atoms: C_18  and  S_22
REMARK    6  A    between atoms: S_22  and  N_25
REMARK                            x       y       z     vdW  Elec       q    Type
REMARK                         _______ _______ _______ _____ _____    ______ ____
ROOT
ATOM      1  N   UNL     1      -0.813  -4.962  -2.999  0.00  0.00    -0.230 N 
ATOM      2  C   UNL     1      -1.552  -6.062  -3.245  0.00  0.00    +0.269 C 
ATOM      3  O   UNL     1      -2.090  -6.652  -2.327  0.00  0.00    -0.268 OA
ATOM      4  H   UNL     1      -0.384  -4.492  -3.731  0.00  0.00    +0.173 HD
ENDROOT
BRANCH   2   5
ATOM      5  C   UNL     1      -1.706  -6.548  -4.620  0.00  0.00    +0.102 A 
ATOM      6  C   UNL     1      -2.348  -7.689  -5.076  0.00  0.00    +0.125 A 
ATOM      7  C   UNL     1      -2.328  -7.882  -6.437  0.00  0.00    +0.037 A 
ATOM      8  C   UNL     1      -1.700  -6.972  -7.222  0.00  0.00    +0.048 A 
ATOM      9  S   UNL     1      -1.125  -5.822  -6.141  0.00  0.00    -0.090 S 
BRANCH   6  10
ATOM     10  S   UNL     1      -3.139  -8.821  -3.981  0.00  0.00    +0.062 S 
ATOM     11  O   UNL     1      -2.115  -9.638  -3.432  0.00  0.00    -0.153 OA
ATOM     12  O   UNL     1      -4.019  -8.054  -3.170  0.00  0.00    -0.153 OA
BRANCH  10  13
ATOM     13  N   UNL     1      -4.091  -9.812  -4.905  0.00  0.00    -0.177 NA
ATOM     14  C   UNL     1      -5.440  -9.392  -5.308  0.00  0.00    +0.109 C 
ATOM     15  C   UNL     1      -5.561  -9.514  -6.830  0.00  0.00    +0.017 C 
ATOM     16  C   UNL     1      -5.193 -10.938  -7.255  0.00  0.00    +0.003 C 
ATOM     17  C   UNL     1      -3.744 -11.231  -6.860  0.00  0.00    +0.017 C 
ATOM     18  C   UNL     1      -3.600 -11.126  -5.343  0.00  0.00    +0.109 C 
ENDBRANCH  10  13
ENDBRANCH   6  10
ENDBRANCH   2   5
BRANCH   1  21
ATOM     19  C   UNL     1       0.074  -3.398  -1.439  0.00  0.00    +0.233 C 
ATOM     20  O   UNL     1       0.610  -2.810  -2.354  0.00  0.00    -0.274 OA
ATOM     21  N   UNL     1      -0.665  -4.498  -1.685  0.00  0.00    -0.234 N 
ATOM     22  H   UNL     1      -1.094  -4.968  -0.954  0.00  0.00    +0.173 HD
BRANCH  19  23
ATOM     23  C   UNL     1       0.233  -2.898  -0.026  0.00  0.00    +0.130 C 
BRANCH  23  30
ATOM     24  C   UNL     1      -0.755   1.582  -0.102  0.00  0.00    +0.001 A 
ATOM     25  C   UNL     1       0.378   2.408  -0.091  0.00  0.00    +0.002 A 
ATOM     26  C   UNL     1       1.636   1.919  -0.059  0.00  0.00    +0.026 A 
ATOM     27  C   UNL     1       1.861   0.515  -0.036  0.00  0.00    +0.043 A 
ATOM     28  N   UNL     1       2.965  -0.191  -0.006  0.00  0.00    -0.380 N 
ATOM     29  C   UNL     1       2.610  -1.614   0.005  0.00  0.00    +0.145 C 
ATOM     30  C   UNL     1       1.098  -1.665  -0.024  0.00  0.00    -0.033 C 
ATOM     31  C   UNL     1       0.681  -0.378  -0.048  0.00  0.00    -0.001 A 
ATOM     32  C   UNL     1      -0.653   0.234  -0.083  0.00  0.00    +0.010 A 
ATOM     33  H   UNL     1       3.866   0.167   0.007  0.00  0.00    +0.160 HD
ENDBRANCH  23  30
ENDBRANCH  19  23
ENDBRANCH   1  21
TORSDOF 6
