REMARK  Name = ZINC38688699
REMARK  9 active torsions:
REMARK  status: ('A' for Active; 'I' for Inactive)
REMARK    1  A    between atoms: C_1  and  C_2
REMARK    2  A    between atoms: C_5  and  C_7
REMARK    3  A    between atoms: C_12  and  O_21
REMARK    4  A    between atoms: C_16  and  N_20
REMARK    5  A    between atoms: C_17  and  C_18
REMARK    6  A    between atoms: O_21  and  C_22
REMARK    7  A    between atoms: C_22  and  C_24
REMARK    8  A    between atoms: C_27  and  O_31
REMARK    9  A    between atoms: O_31  and  C_32
REMARK                            x       y       z     vdW  Elec       q    Type
REMARK                         _______ _______ _______ _____ _____    ______ ____
ROOT
ATOM      1  C   UNL     1       1.727  -3.284  -0.050  0.00  0.00    +0.134 C 
ATOM      2  C   UNL     1       2.582  -3.230   1.188  0.00  0.00    +0.011 A 
ATOM      3  C   UNL     1       2.021  -2.823   2.385  0.00  0.00    +0.012 A 
ATOM      4  C   UNL     1       2.790  -2.768   3.531  0.00  0.00    +0.047 A 
ATOM      5  C   UNL     1       4.131  -3.121   3.484  0.00  0.00    +0.135 A 
ATOM      6  C   UNL     1       4.696  -3.529   2.287  0.00  0.00    +0.093 A 
ATOM      7  C   UNL     1       3.921  -3.585   1.135  0.00  0.00    +0.138 A 
ATOM      8  O   UNL     1       4.489  -3.987  -0.029  0.00  0.00    -0.441 OA
ATOM      9  C   UNL     1       3.900  -3.688  -1.199  0.00  0.00    +0.199 C 
ATOM     10  C   UNL     1       2.595  -3.345  -1.275  0.00  0.00    +0.101 C 
ENDROOT
BRANCH   1  15
ATOM     11  C   UNL     1       0.327   1.556  -0.282  0.00  0.00    +0.086 C 
ATOM     12  C   UNL     1       0.252   0.052  -0.214  0.00  0.00    +0.102 A 
ATOM     13  C   UNL     1      -0.876  -0.679  -0.187  0.00  0.00    +0.044 A 
ATOM     14  C   UNL     1      -0.484  -2.036  -0.122  0.00  0.00    +0.046 A 
ATOM     15  C   UNL     1       0.861  -2.052  -0.113  0.00  0.00    +0.118 A 
ATOM     16  O   UNL     1       1.302  -0.785  -0.175  0.00  0.00    -0.464 OA
ENDBRANCH   1  15
BRANCH   9  17
ATOM     17  N   UNL     1       4.647  -3.731  -2.350  0.00  0.00    -0.328 N 
ATOM     18  H   UNL     1       5.586  -3.974  -2.310  0.00  0.00    +0.145 HD
ATOM     19  H   UNL     1       4.237  -3.519  -3.203  0.00  0.00    +0.145 HD
ENDBRANCH   9  17
BRANCH  10  20
ATOM     20  C   UNL     1       2.028  -3.037  -2.554  0.00  0.00    +0.101 C 
ATOM     21  N   UNL     1       1.578  -2.792  -3.567  0.00  0.00    -0.191 NA
ENDBRANCH  10  20
BRANCH   5  22
ATOM     22  O   UNL     1       4.889  -3.067   4.611  0.00  0.00    -0.422 OA
BRANCH  22  23
ATOM     23  C   UNL     1       5.846  -2.121   4.685  0.00  0.00    +0.344 C 
ATOM     24  O   UNL     1       5.942  -1.284   3.809  0.00  0.00    -0.245 OA
BRANCH  23  25
ATOM     25  C   UNL     1       6.776  -2.102   5.829  0.00  0.00    +0.061 A 
ATOM     26  C   UNL     1       6.671  -3.068   6.834  0.00  0.00    +0.018 A 
ATOM     27  C   UNL     1       7.542  -3.047   7.900  0.00  0.00    +0.048 A 
ATOM     28  C   UNL     1       8.525  -2.067   7.979  0.00  0.00    +0.138 A 
ATOM     29  C   UNL     1       8.633  -1.104   6.981  0.00  0.00    +0.083 A 
ATOM     30  C   UNL     1       7.769  -1.121   5.908  0.00  0.00    +0.038 A 
ATOM     31 CL   UNL     1       9.863   0.117   7.084  0.00  0.00    -0.080 Cl
BRANCH  28  32
ATOM     32  O   UNL     1       9.381  -2.050   9.032  0.00  0.00    -0.494 OA
ATOM     33  C   UNL     1       9.214  -3.068  10.021  0.00  0.00    +0.277 C 
ENDBRANCH  28  32
ENDBRANCH  23  25
ENDBRANCH  22  23
ENDBRANCH   5  22
TORSDOF 7
