REMARK  Name = ZINC38937046
REMARK  8 active torsions:
REMARK  status: ('A' for Active; 'I' for Inactive)
REMARK    1  A    between atoms: C_1  and  C_2
REMARK    2  A    between atoms: C_2  and  C_3
REMARK    3  A    between atoms: C_2  and  C_4
REMARK    4  A    between atoms: C_2  and  C_5
REMARK    5  A    between atoms: C_8  and  C_11
REMARK    6  A    between atoms: N_17  and  N_18
REMARK    7  A    between atoms: C_19  and  C_20
REMARK    8  A    between atoms: C_25  and  O_26
REMARK                            x       y       z     vdW  Elec       q    Type
REMARK                         _______ _______ _______ _____ _____    ______ ____
ROOT
ATOM      1  C   UNL     1       2.717  -1.881  -4.759  0.00  0.00    +0.264 C 
ATOM      2  N   UNL     1       1.772  -1.974  -5.882  0.00  0.00    -0.189 NA
ATOM      3  N   UNL     1       2.145  -1.194  -6.763  0.00  0.00    -0.219 N 
ATOM      4  C   UNL     1       3.275  -0.512  -6.436  0.00  0.00    +0.174 C 
ATOM      5  S   UNL     1       4.048   0.642  -7.437  0.00  0.00    -0.015 S 
ATOM      6  N   UNL     1       3.703  -0.879  -5.204  0.00  0.00    -0.172 N 
ATOM      7  H   UNL     1       1.677  -1.078  -7.605  0.00  0.00    +0.176 HD
ENDROOT
BRANCH   1  11
ATOM      8  C   UNL     1       0.721  -0.555  -1.223  0.00  0.00    -0.042 A 
ATOM      9  C   UNL     1       0.052  -1.345  -2.139  0.00  0.00    +0.004 A 
ATOM     10  C   UNL     1       0.698  -1.774  -3.284  0.00  0.00    +0.008 A 
ATOM     11  C   UNL     1       2.013  -1.413  -3.512  0.00  0.00    -0.002 A 
ATOM     12  C   UNL     1       2.681  -0.622  -2.596  0.00  0.00    +0.008 A 
ATOM     13  C   UNL     1       2.034  -0.190  -1.454  0.00  0.00    +0.004 A 
BRANCH   8  15
ATOM     14  C   UNL     1      -0.015   1.442   0.049  0.00  0.00    +0.015 C 
ATOM     15  C   UNL     1       0.017  -0.087   0.025  0.00  0.00    -0.013 C 
ATOM     16  C   UNL     1       0.765  -0.601   1.256  0.00  0.00    +0.015 C 
ATOM     17  C   UNL     1      -1.415  -0.628   0.035  0.00  0.00    +0.015 C 
ENDBRANCH   8  15
ENDBRANCH   1  11
BRANCH   6  18
ATOM     18  N   UNL     1       4.826  -0.413  -4.508  0.00  0.00    -0.183 NA
ATOM     19  C   UNL     1       5.661   0.395  -5.090  0.00  0.00    +0.142 C 
BRANCH  19  20
ATOM     20  C   UNL     1       6.899   0.797  -4.399  0.00  0.00    +0.036 A 
ATOM     21  C   UNL     1       7.797   1.669  -5.019  0.00  0.00    +0.013 A 
ATOM     22  C   UNL     1       8.954   2.042  -4.366  0.00  0.00    +0.001 A 
ATOM     23  C   UNL     1       9.229   1.555  -3.100  0.00  0.00    +0.004 A 
ATOM     24  C   UNL     1       8.348   0.691  -2.476  0.00  0.00    +0.046 A 
ATOM     25  C   UNL     1       7.179   0.310  -3.115  0.00  0.00    +0.125 A 
BRANCH  25  26
ATOM     26  O   UNL     1       6.310  -0.534  -2.500  0.00  0.00    -0.506 OA
ATOM     27  H   UNL     1       6.481  -1.469  -2.676  0.00  0.00    +0.292 HD
ENDBRANCH  25  26
ENDBRANCH  19  20
ENDBRANCH   6  18
TORSDOF 5
