REMARK  Name = ZINC12657954
REMARK  15 active torsions:
REMARK  status: ('A' for Active; 'I' for Inactive)
REMARK    1  A    between atoms: C_1  and  N_70
REMARK    2  A    between atoms: C_2  and  N_70
REMARK    3  A    between atoms: C_8  and  O_36
REMARK    4  A    between atoms: C_9  and  O_34
REMARK    5  A    between atoms: C_10  and  O_32
REMARK    6  A    between atoms: C_17  and  N_20
REMARK    7  A    between atoms: N_20  and  C_21
REMARK    8  A    between atoms: C_21  and  C_22
REMARK    9  A    between atoms: C_26  and  O_30
REMARK   10  A    between atoms: C_27  and  O_28
REMARK   11  A    between atoms: O_28  and  C_29
REMARK   12  A    between atoms: O_30  and  C_31
REMARK   13  A    between atoms: O_32  and  C_33
REMARK   14  A    between atoms: O_34  and  C_35
REMARK   15  A    between atoms: O_36  and  C_37
REMARK                            x       y       z     vdW  Elec       q    Type
REMARK                         _______ _______ _______ _____ _____    ______ ____
ROOT
ATOM      1  C   UNL     1      -1.494   5.432   0.274  0.00  0.00    -0.040 C 
ATOM      2  C   UNL     1      -2.027   5.958  -1.043  0.00  0.00    -0.007 C 
ATOM      3  C   UNL     1      -2.768   4.866  -1.811  0.00  0.00    +0.035 C 
ATOM      4  C   UNL     1      -3.666   4.105  -0.870  0.00  0.00    -0.033 A 
ATOM      5  C   UNL     1      -5.028   4.321  -0.886  0.00  0.00    +0.054 A 
ATOM      6  C   UNL     1      -5.857   3.602  -0.035  0.00  0.00    +0.165 A 
ATOM      7  C   UNL     1      -5.321   2.661   0.838  0.00  0.00    +0.204 A 
ATOM      8  C   UNL     1      -3.950   2.442   0.864  0.00  0.00    +0.173 A 
ATOM      9  C   UNL     1      -3.121   3.172   0.007  0.00  0.00    +0.031 A 
ATOM     10  C   UNL     1      -1.644   2.947   0.037  0.00  0.00    -0.012 A 
ATOM     11  C   UNL     1      -0.833   4.079   0.110  0.00  0.00    -0.050 A 
ATOM     12  C   UNL     1       0.512   4.074   0.061  0.00  0.00    +0.055 A 
ATOM     13  C   UNL     1       1.435   3.074  -0.034  0.00  0.00    +0.200 A 
ATOM     14  O   UNL     1       2.602   3.434  -0.108  0.00  0.00    -0.286 OA
ATOM     15  C   UNL     1       1.223   1.698  -0.056  0.00  0.00    +0.075 A 
ATOM     16  C   UNL     1       0.006   1.085  -0.043  0.00  0.00    +0.027 A 
ATOM     17  C   UNL     1      -1.217   1.645  -0.018  0.00  0.00    +0.011 A 
ENDROOT
BRANCH   1  19
ATOM     18  C   UNL     1      -1.175   7.549   1.405  0.00  0.00    -0.100 C 
ATOM     19  N   UNL     1      -0.499   6.383   0.806  0.00  0.00    +0.382 N 
ATOM     20  H   UNL     1       0.067   5.914   1.523  0.00  0.00    -0.085 HD
ATOM     21  H   UNL     1       0.109   6.700   0.042  0.00  0.00    -0.085 HD
ENDBRANCH   1  19
BRANCH  15  22
ATOM     22  N   UNL     1       2.343   0.883  -0.095  0.00  0.00    -0.337 N 
ATOM     23  H   UNL     1       3.229   1.278  -0.105  0.00  0.00    +0.147 HD
BRANCH  22  24
ATOM     24  C   UNL     1       2.189  -0.573  -0.119  0.00  0.00    +0.140 C 
BRANCH  24  25
ATOM     25  C   UNL     1       3.549  -1.222  -0.159  0.00  0.00    +0.015 A 
ATOM     26  C   UNL     1       4.056  -1.689  -1.357  0.00  0.00    +0.009 A 
ATOM     27  C   UNL     1       5.306  -2.279  -1.399  0.00  0.00    +0.004 A 
ATOM     28  C   UNL     1       6.048  -2.414  -0.240  0.00  0.00    +0.049 A 
ATOM     29  C   UNL     1       5.543  -1.953   0.964  0.00  0.00    +0.162 A 
ATOM     30  C   UNL     1       4.287  -1.354   1.005  0.00  0.00    +0.166 A 
BRANCH  30  31
ATOM     31  O   UNL     1       3.787  -0.899   2.185  0.00  0.00    -0.491 OA
ATOM     32  C   UNL     1       3.013  -1.818   2.959  0.00  0.00    +0.277 C 
ENDBRANCH  30  31
BRANCH  29  33
ATOM     33  O   UNL     1       6.272  -2.086   2.105  0.00  0.00    -0.491 OA
ATOM     34  C   UNL     1       7.552  -2.711   1.987  0.00  0.00    +0.277 C 
ENDBRANCH  29  33
ENDBRANCH  24  25
ENDBRANCH  22  24
ENDBRANCH  15  22
BRANCH   8  35
ATOM     35  O   UNL     1      -3.418   1.526   1.715  0.00  0.00    -0.491 OA
ATOM     36  C   UNL     1      -3.036   1.990   3.012  0.00  0.00    +0.277 C 
ENDBRANCH   8  35
BRANCH   7  37
ATOM     37  O   UNL     1      -6.139   1.956   1.666  0.00  0.00    -0.488 OA
ATOM     38  C   UNL     1      -6.656   0.720   1.169  0.00  0.00    +0.277 C 
ENDBRANCH   7  37
BRANCH   6  39
ATOM     39  O   UNL     1      -7.199   3.818  -0.055  0.00  0.00    -0.491 OA
ATOM     40  C   UNL     1      -7.684   4.797  -0.976  0.00  0.00    +0.277 C 
ENDBRANCH   6  39
TORSDOF 9
