REMARK  Name = ZINC43619360
REMARK  11 active torsions:
REMARK  status: ('A' for Active; 'I' for Inactive)
REMARK    1  A    between atoms: C_1  and  C_2
REMARK    2  A    between atoms: C_2  and  C_37
REMARK    3  A    between atoms: C_3  and  C_4
REMARK    4  A    between atoms: C_4  and  N_5
REMARK    5  A    between atoms: C_7  and  N_28
REMARK    6  A    between atoms: C_10  and  C_12
REMARK    7  A    between atoms: N_14  and  C_15
REMARK    8  A    between atoms: C_15  and  C_16
REMARK    9  A    between atoms: C_30  and  C_33
REMARK   10  A    between atoms: C_33  and  O_35
REMARK   11  A    between atoms: O_35  and  C_36
REMARK                            x       y       z     vdW  Elec       q    Type
REMARK                         _______ _______ _______ _____ _____    ______ ____
ROOT
ATOM      1  N   UNL     1       0.687  -0.358   3.385  0.00  0.00    +0.391 N 
ATOM      2  C   UNL     1      -0.738   0.010   3.470  0.00  0.00    -0.050 C 
ATOM      3  C   UNL     1      -0.905   0.912   4.711  0.00  0.00    +0.091 C 
ATOM      4  C   UNL     1       0.326   0.541   5.580  0.00  0.00    +0.019 C 
ATOM      5  C   UNL     1       1.408   0.293   4.500  0.00  0.00    +0.022 C 
ATOM      6  H   UNL     1       0.782  -1.360   3.458  0.00  0.00    -0.080 HD
ENDROOT
BRANCH   3   7
ATOM      7  N   UNL     1      -2.152   0.601   5.413  0.00  0.00    -0.250 N 
ATOM      8  C   UNL     1      -2.334  -0.363   6.338  0.00  0.00    +0.145 A 
ATOM      9  C   UNL     1      -3.644  -0.298   6.725  0.00  0.00    +0.189 A 
ATOM     10  N   UNL     1      -4.240   0.693   6.040  0.00  0.00    -0.123 NA
ATOM     11  N   UNL     1      -3.384   1.252   5.257  0.00  0.00    -0.065 NA
BRANCH   9  12
ATOM     12  C   UNL     1      -4.291  -1.167   7.724  0.00  0.00    +0.361 C 
ATOM     13  O   UNL     1      -3.649  -2.034   8.283  0.00  0.00    -0.243 OA
BRANCH  12  14
ATOM     14  O   UNL     1      -5.596  -0.999   8.017  0.00  0.00    -0.463 OA
ATOM     15  C   UNL     1      -6.158  -1.877   8.995  0.00  0.00    +0.280 C 
ENDBRANCH  12  14
ENDBRANCH   9  12
ENDBRANCH   3   7
BRANCH   5  16
ATOM     16  C   UNL     1       2.482  -0.619   5.033  0.00  0.00    +0.200 C 
ATOM     17  O   UNL     1       2.646  -1.716   4.542  0.00  0.00    -0.278 OA
ATOM     18  N   UNL     1       3.261  -0.216   6.057  0.00  0.00    -0.316 N 
ATOM     19  H   UNL     1       3.130   0.660   6.450  0.00  0.00    +0.149 HD
BRANCH  18  20
ATOM     20  C   UNL     1       4.305  -1.103   6.576  0.00  0.00    +0.106 C 
BRANCH  20  21
ATOM     21  C   UNL     1       5.038  -0.410   7.726  0.00  0.00    -0.008 C 
ATOM     22  C   UNL     1       5.774   0.820   7.193  0.00  0.00    +0.002 C 
ATOM     23  C   UNL     1       6.552   1.464   8.346  0.00  0.00    -0.018 C 
ATOM     24  C   UNL     1       7.515   0.430   8.929  0.00  0.00    -0.078 C 
ATOM     25  N   UNL     1       6.767  -0.727   9.443  0.00  0.00    +0.382 N 
ATOM     26  C   UNL     1       6.042  -1.384   8.352  0.00  0.00    -0.064 C 
ATOM     27  C   UNL     1       5.265  -2.590   8.890  0.00  0.00    -0.015 C 
ATOM     28  C   UNL     1       6.231  -3.579   9.543  0.00  0.00    -0.003 C 
ATOM     29  C   UNL     1       7.000  -2.854  10.653  0.00  0.00    -0.019 C 
ATOM     30  C   UNL     1       7.731  -1.659  10.047  0.00  0.00    -0.078 C 
ATOM     31  H   UNL     1       6.112  -0.418  10.146  0.00  0.00    -0.081 HD
ENDBRANCH  20  21
ENDBRANCH  18  20
ENDBRANCH   5  16
BRANCH   1  32
ATOM     32  C   UNL     1       1.240   0.100   2.104  0.00  0.00    -0.050 C 
BRANCH  32  35
ATOM     33  C   UNL     1      -0.018   1.503   0.010  0.00  0.00    +0.038 C 
ATOM     34  C   UNL     1       0.002  -0.004   0.002  0.00  0.00    -0.081 C 
ATOM     35  C   UNL     1       0.588  -0.657   0.976  0.00  0.00    -0.047 C 
ATOM     36  C   UNL     1      -0.651  -0.760  -1.126  0.00  0.00    +0.038 C 
ENDBRANCH  32  35
ENDBRANCH   1  32
TORSDOF 8
