REMARK  Name = ZINC39583677
REMARK  9 active torsions:
REMARK  status: ('A' for Active; 'I' for Inactive)
REMARK    1  A    between atoms: C_1  and  C_2
REMARK    2  A    between atoms: C_2  and  O_3
REMARK    3  A    between atoms: O_3  and  C_4
REMARK    4  A    between atoms: C_7  and  N_10
REMARK    5  A    between atoms: C_11  and  C_28
REMARK    6  A    between atoms: C_15  and  S_17
REMARK    7  A    between atoms: S_17  and  C_18
REMARK    8  A    between atoms: C_18  and  C_19
REMARK    9  A    between atoms: C_32  and  C_34
REMARK                            x       y       z     vdW  Elec       q    Type
REMARK                         _______ _______ _______ _____ _____    ______ ____
ROOT
ATOM      1  N   UNL     1      -1.938  -6.173  -0.254  0.00  0.00    -0.284 N 
ATOM      2  C   UNL     1      -3.263  -6.729   0.088  0.00  0.00    +0.188 C 
ATOM      3  N   UNL     1      -3.180  -8.154  -0.325  0.00  0.00    -0.230 NA
ATOM      4  N   UNL     1      -1.799  -8.521   0.027  0.00  0.00    -0.226 NA
ATOM      5  C   UNL     1      -1.006  -7.314  -0.300  0.00  0.00    +0.218 C 
ATOM      6  H   UNL     1      -3.845  -8.717   0.184  0.00  0.00    +0.143 HD
ATOM      7  H   UNL     1      -1.725  -8.752   1.006  0.00  0.00    +0.143 HD
ENDROOT
BRANCH   2   8
ATOM      8  C   UNL     1      -4.347  -6.017  -0.679  0.00  0.00    -0.011 A 
ATOM      9  C   UNL     1      -4.259  -5.900  -2.054  0.00  0.00    +0.007 A 
ATOM     10  C   UNL     1      -5.253  -5.247  -2.757  0.00  0.00    +0.001 A 
ATOM     11  C   UNL     1      -6.337  -4.711  -2.087  0.00  0.00    +0.003 A 
ATOM     12  C   UNL     1      -6.425  -4.828  -0.712  0.00  0.00    -0.050 A 
ATOM     13  C   UNL     1      -5.433  -5.485  -0.009  0.00  0.00    +0.010 A 
ATOM     14  C   UNL     1      -7.606  -4.243   0.019  0.00  0.00    +0.044 C 
ENDBRANCH   2   8
BRANCH   1  18
ATOM     15  C   UNL     1      -1.019  -2.171  -0.970  0.00  0.00    +0.121 A 
ATOM     16  C   UNL     1      -0.060  -3.150  -1.181  0.00  0.00    +0.047 A 
ATOM     17  C   UNL     1      -0.364  -4.477  -0.944  0.00  0.00    +0.027 A 
ATOM     18  C   UNL     1      -1.629  -4.829  -0.494  0.00  0.00    +0.033 A 
ATOM     19  C   UNL     1      -2.588  -3.848  -0.282  0.00  0.00    +0.027 A 
ATOM     20  C   UNL     1      -2.281  -2.521  -0.514  0.00  0.00    +0.047 A 
BRANCH  15  21
ATOM     21  O   UNL     1      -0.719  -0.865  -1.203  0.00  0.00    -0.492 OA
BRANCH  21  23
ATOM     22  C   UNL     1       0.749   0.933  -1.875  0.00  0.00    +0.048 C 
ATOM     23  C   UNL     1       0.600  -0.576  -1.671  0.00  0.00    +0.225 C 
ENDBRANCH  21  23
ENDBRANCH  15  21
ENDBRANCH   1  18
BRANCH   5  24
ATOM     24  S   UNL     1       0.312  -7.089   0.926  0.00  0.00    -0.114 S 
BRANCH  24  25
ATOM     25  C   UNL     1      -0.572  -7.000   2.508  0.00  0.00    +0.146 C 
BRANCH  25  26
ATOM     26  C   UNL     1       0.420  -6.811   3.627  0.00  0.00    +0.118 A 
ATOM     27  N   UNL     1       0.828  -5.660   4.075  0.00  0.00    -0.232 NA
ATOM     28  C   UNL     1       1.718  -5.852   5.083  0.00  0.00    +0.089 A 
ATOM     29  C   UNL     1       2.449  -4.987   5.901  0.00  0.00    +0.030 A 
ATOM     30  C   UNL     1       3.286  -5.495   6.854  0.00  0.00    +0.002 A 
ATOM     31  C   UNL     1       3.420  -6.866   7.020  0.00  0.00    +0.002 A 
ATOM     32  C   UNL     1       2.708  -7.739   6.224  0.00  0.00    +0.028 A 
ATOM     33  C   UNL     1       1.853  -7.241   5.251  0.00  0.00    +0.066 A 
ATOM     34  N   UNL     1       1.015  -7.820   4.320  0.00  0.00    -0.341 N 
ATOM     35  H   UNL     1       0.877  -8.771   4.183  0.00  0.00    +0.167 HD
ENDBRANCH  25  26
ENDBRANCH  24  25
ENDBRANCH   5  24
TORSDOF 7
