REMARK  Name = ZINC39934627
REMARK  4 active torsions:
REMARK  status: ('A' for Active; 'I' for Inactive)
REMARK    1  A    between atoms: C_1  and  C_2
REMARK    2  A    between atoms: C_2  and  C_3
REMARK    3  A    between atoms: C_8  and  C_12
REMARK    4  A    between atoms: N_13  and  N_14
REMARK                            x       y       z     vdW  Elec       q    Type
REMARK                         _______ _______ _______ _____ _____    ______ ____
ROOT
ATOM      1  N   UNL     1       7.368  -1.924  -3.773  0.00  0.00    -0.178 N 
ATOM      2  C   UNL     1       6.962  -2.346  -5.114  0.00  0.00    +0.219 C 
ATOM      3  N   UNL     1       7.966  -3.279  -5.645  0.00  0.00    -0.287 NA
ATOM      4  C   UNL     1       9.281  -2.633  -5.722  0.00  0.00    +0.134 C 
ATOM      5  C   UNL     1       9.774  -2.276  -4.306  0.00  0.00    +0.131 C 
ATOM      6  C   UNL     1       8.654  -1.905  -3.404  0.00  0.00    +0.245 C 
ATOM      7  O   UNL     1       8.920  -1.555  -2.274  0.00  0.00    -0.273 OA
ATOM      8  C   UNL     1      10.542  -3.409  -3.675  0.00  0.00    -0.046 C 
ATOM      9  C   UNL     1      11.007  -4.358  -4.478  0.00  0.00    -0.013 C 
ATOM     10  S   UNL     1      10.528  -3.912  -6.170  0.00  0.00    -0.110 S 
ATOM     11  C   UNL     1      11.802  -5.570  -4.079  0.00  0.00    +0.042 C 
ATOM     12  C   UNL     1      12.319  -5.374  -2.649  0.00  0.00    +0.005 C 
ATOM     13  C   UNL     1      11.157  -4.894  -1.774  0.00  0.00    +0.005 C 
ATOM     14  C   UNL     1      10.780  -3.466  -2.167  0.00  0.00    +0.032 C 
ATOM     15  H   UNL     1       8.008  -4.120  -5.089  0.00  0.00    +0.125 HD
ENDROOT
BRANCH   1  17
ATOM     16  C   UNL     1       5.125  -1.537  -3.199  0.00  0.00    +0.136 C 
ATOM     17  N   UNL     1       6.388  -1.524  -2.855  0.00  0.00    -0.184 NA
BRANCH  16  23
ATOM     18  C   UNL     1       0.707  -0.490  -1.238  0.00  0.00    -0.024 A 
ATOM     19  C   UNL     1      -0.006  -0.811  -2.344  0.00  0.00    +0.005 A 
ATOM     20  C   UNL     1       0.610  -1.266  -3.513  0.00  0.00    +0.001 A 
ATOM     21  C   UNL     1       1.956  -1.408  -3.599  0.00  0.00    +0.010 A 
ATOM     22  C   UNL     1       2.767  -1.093  -2.486  0.00  0.00    +0.005 A 
ATOM     23  C   UNL     1       4.143  -1.138  -2.281  0.00  0.00    +0.000 C 
ATOM     24  C   UNL     1       4.359  -0.666  -0.860  0.00  0.00    +0.150 C 
ATOM     25  N   UNL     1       3.026  -0.370  -0.325  0.00  0.00    -0.380 N 
ATOM     26  C   UNL     1       2.123  -0.607  -1.252  0.00  0.00    +0.046 A 
ATOM     27  H   UNL     1       2.840  -0.046   0.570  0.00  0.00    +0.160 HD
BRANCH  18  29
ATOM     28  C   UNL     1      -0.019   1.526   0.010  0.00  0.00    +0.009 C 
ATOM     29  C   UNL     1       0.002  -0.004   0.002  0.00  0.00    +0.034 C 
ENDBRANCH  18  29
ENDBRANCH  16  23
ENDBRANCH   1  17
TORSDOF 3
