REMARK  Name = ZINC51418422
REMARK  7 active torsions:
REMARK  status: ('A' for Active; 'I' for Inactive)
REMARK    1  A    between atoms: C_1  and  C_2
REMARK    2  A    between atoms: C_3  and  C_28
REMARK    3  A    between atoms: C_10  and  C_13
REMARK    4  A    between atoms: C_13  and  C_14
REMARK    5  A    between atoms: C_14  and  C_15
REMARK    6  A    between atoms: N_17  and  C_18
REMARK    7  A    between atoms: C_18  and  C_22
REMARK                            x       y       z     vdW  Elec       q    Type
REMARK                         _______ _______ _______ _____ _____    ______ ____
ROOT
ATOM      1  C   UNL     1       0.452  -1.895   6.258  0.00  0.00    +0.103 C 
ENDROOT
BRANCH   1   2
ATOM      2  C   UNL     1       0.399  -3.028   7.251  0.00  0.00    +0.214 C 
ATOM      3  O   UNL     1       0.548  -4.171   6.875  0.00  0.00    -0.276 OA
ATOM      4  N   UNL     1       0.186  -2.770   8.556  0.00  0.00    -0.306 N 
ATOM      5  H   UNL     1       0.135  -1.853   8.868  0.00  0.00    +0.150 HD
BRANCH   4   6
ATOM      6  C   UNL     1       0.031  -3.875   9.505  0.00  0.00    +0.060 C 
ATOM      7  C   UNL     1      -0.757  -3.496  10.770  0.00  0.00    +0.030 C 
ATOM      8  C   UNL     1      -2.027  -3.904  10.005  0.00  0.00    +0.005 C 
ATOM      9  C   UNL     1      -1.129  -4.824   9.162  0.00  0.00    +0.030 C 
BRANCH   6  10
ATOM     10  C   UNL     1       1.329  -4.587   9.792  0.00  0.00    -0.024 A 
ATOM     11  C   UNL     1       1.319  -5.806  10.443  0.00  0.00    +0.006 A 
ATOM     12  C   UNL     1       2.509  -6.458  10.706  0.00  0.00    +0.000 A 
ATOM     13  C   UNL     1       3.709  -5.892  10.316  0.00  0.00    +0.000 A 
ATOM     14  C   UNL     1       3.718  -4.673   9.664  0.00  0.00    +0.000 A 
ATOM     15  C   UNL     1       2.528  -4.023   9.398  0.00  0.00    +0.006 A 
ENDBRANCH   6  10
ENDBRANCH   4   6
ENDBRANCH   1   2
BRANCH   1  16
ATOM     16  C   UNL     1       0.703  -2.456   4.857  0.00  0.00    +0.083 C 
BRANCH  16  26
ATOM     17  C   UNL     1       0.777   3.167   1.202  0.00  0.00    +0.045 C 
ATOM     18  C   UNL     1       0.938   1.692   0.933  0.00  0.00    -0.026 A 
ATOM     19  C   UNL     1       1.163   1.250  -0.314  0.00  0.00    -0.008 A 
ATOM     20  S   UNL     1       1.275  -0.518  -0.108  0.00  0.00    -0.075 S 
ATOM     21  C   UNL     1       1.017  -0.605   1.644  0.00  0.00    +0.092 A 
ATOM     22  C   UNL     1       0.857   0.735   2.020  0.00  0.00    +0.075 A 
ATOM     23  C   UNL     1       0.627   0.957   3.465  0.00  0.00    +0.282 A 
ATOM     24  O   UNL     1       0.470   2.086   3.901  0.00  0.00    -0.265 OA
ATOM     25  N   UNL     1       0.593  -0.101   4.288  0.00  0.00    -0.195 NA
ATOM     26  C   UNL     1       0.756  -1.324   3.864  0.00  0.00    +0.112 A 
ATOM     27  N   UNL     1       0.959  -1.604   2.561  0.00  0.00    -0.337 N 
ATOM     28  H   UNL     1       1.077  -2.525   2.279  0.00  0.00    +0.168 HD
ATOM     29  C   UNL     1       1.289   2.053  -1.583  0.00  0.00    +0.052 C 
ENDBRANCH  16  26
ENDBRANCH   1  16
TORSDOF 5
