REMARK  Name = ZINC01569761
REMARK  5 active torsions:
REMARK  status: ('A' for Active; 'I' for Inactive)
REMARK    1  A    between atoms: C_1  and  C_2
REMARK    2  A    between atoms: C_3  and  C_20
REMARK    3  A    between atoms: C_20  and  C_21
REMARK    4  A    between atoms: C_21  and  N_22
REMARK    5  A    between atoms: C_23  and  C_25
REMARK                            x       y       z     vdW  Elec       q    Type
REMARK                         _______ _______ _______ _____ _____    ______ ____
ROOT
ATOM      1  C   UNL     1       1.229  -1.913  -2.509  0.00  0.00    +0.046 C 
ATOM      2  C   UNL     1       1.365  -2.679  -1.218  0.00  0.00    -0.023 A 
ATOM      3  C   UNL     1       1.472  -2.001  -0.023  0.00  0.00    -0.041 A 
ATOM      4  C   UNL     1       1.603  -2.693   1.172  0.00  0.00    +0.004 A 
ATOM      5  C   UNL     1       1.619  -4.071   1.178  0.00  0.00    +0.011 A 
ATOM      6  C   UNL     1       1.512  -4.770  -0.022  0.00  0.00    +0.008 A 
ATOM      7  C   UNL     1       1.384  -4.070  -1.233  0.00  0.00    +0.051 A 
ATOM      8  N   UNL     1       1.299  -4.994  -2.257  0.00  0.00    -0.353 N 
ATOM      9  H   UNL     1       1.205  -4.772  -3.196  0.00  0.00    +0.166 HD
ATOM     10  C   UNL     1       1.367  -6.275  -1.752  0.00  0.00    +0.055 A 
ATOM     11  C   UNL     1       1.500  -6.203  -0.366  0.00  0.00    +0.008 A 
ATOM     12  C   UNL     1       1.594  -7.373   0.404  0.00  0.00    +0.011 A 
ATOM     13  C   UNL     1       1.556  -8.597  -0.180  0.00  0.00    +0.009 A 
ATOM     14  C   UNL     1       1.422  -8.711  -1.578  0.00  0.00    -0.016 A 
ATOM     15  C   UNL     1       1.327  -7.544  -2.373  0.00  0.00    +0.006 A 
ATOM     16  C   UNL     1       1.194  -7.665  -3.764  0.00  0.00    +0.010 A 
ATOM     17  C   UNL     1       1.157  -8.902  -4.334  0.00  0.00    +0.001 A 
ATOM     18  C   UNL     1       1.251 -10.051  -3.553  0.00  0.00    +0.001 A 
ATOM     19  C   UNL     1       1.381  -9.970  -2.200  0.00  0.00    +0.008 A 
ENDROOT
BRANCH   3  20
ATOM     20  C   UNL     1       1.451  -0.494  -0.015  0.00  0.00    +0.054 C 
BRANCH  20  21
ATOM     21  C   UNL     1       0.002  -0.004   0.002  0.00  0.00    +0.109 C 
BRANCH  21  22
ATOM     22  N   UNL     1      -0.018   1.461   0.010  0.00  0.00    -0.315 N 
ATOM     23  C   UNL     1      -1.194   2.119   0.019  0.00  0.00    +0.210 C 
ATOM     24  O   UNL     1      -2.236   1.498   0.021  0.00  0.00    -0.276 OA
ATOM     25  C   UNL     1      -1.214   3.626   0.028  0.00  0.00    +0.109 C 
ATOM     26  H   UNL     1       0.816   1.957   0.005  0.00  0.00    +0.149 HD
ENDBRANCH  21  22
ENDBRANCH  20  21
ENDBRANCH   3  20
TORSDOF 3
