REMARK  Name = ZINC03901422
REMARK  10 active torsions:
REMARK  status: ('A' for Active; 'I' for Inactive)
REMARK    1  A    between atoms: C_1  and  C_2
REMARK    2  A    between atoms: C_3  and  C_25
REMARK    3  A    between atoms: C_4  and  C_16
REMARK    4  A    between atoms: C_10  and  C_14
REMARK    5  A    between atoms: C_10  and  C_15
REMARK    6  A    between atoms: C_19  and  O_24
REMARK    7  A    between atoms: C_20  and  O_22
REMARK    8  A    between atoms: O_22  and  C_23
REMARK    9  A    between atoms: C_25  and  O_27
REMARK   10  A    between atoms: O_27  and  C_28
REMARK                            x       y       z     vdW  Elec       q    Type
REMARK                         _______ _______ _______ _____ _____    ______ ____
ROOT
ATOM      1  C   UNL     1       2.431   0.985  -0.478  0.00  0.00    +0.061 C 
ATOM      2  C   UNL     1       1.167   1.664  -0.018  0.00  0.00    +0.031 C 
ATOM      3  C   UNL     1       1.204   2.949   0.374  0.00  0.00    +0.153 C 
ATOM      4  C   UNL     1      -0.035   3.652   0.855  0.00  0.00    +0.073 C 
ATOM      5  C   UNL     1      -1.275   2.918   0.412  0.00  0.00    +0.025 C 
ATOM      6  C   UNL     1      -1.210   1.627   0.017  0.00  0.00    +0.049 C 
ATOM      7  N   UNL     1      -0.010   0.969  -0.001  0.00  0.00    -0.260 NA
ATOM      8  C   UNL     1      -2.447   0.881  -0.415  0.00  0.00    +0.062 C 
ATOM      9  C   UNL     1      -3.444   1.851  -1.045  0.00  0.00    -0.023 C 
ATOM     10  C   UNL     1      -3.776   2.945  -0.024  0.00  0.00    +0.086 C 
ATOM     11  C   UNL     1      -2.498   3.611   0.424  0.00  0.00    +0.162 C 
ATOM     12  O   UNL     1      -2.523   4.770   0.788  0.00  0.00    -0.292 OA
ATOM     13  C   UNL     1      -2.820   2.483  -2.291  0.00  0.00    +0.011 C 
ATOM     14  C   UNL     1      -4.719   1.100  -1.434  0.00  0.00    +0.011 C 
ENDROOT
BRANCH   4  15
ATOM     15  C   UNL     1      -0.023   3.740   2.359  0.00  0.00    -0.035 A 
ATOM     16  C   UNL     1       0.010   2.583   3.117  0.00  0.00    +0.008 A 
ATOM     17  C   UNL     1       0.021   2.658   4.497  0.00  0.00    +0.049 A 
ATOM     18  C   UNL     1      -0.000   3.893   5.125  0.00  0.00    +0.158 A 
ATOM     19  C   UNL     1      -0.033   5.057   4.362  0.00  0.00    +0.162 A 
ATOM     20  C   UNL     1      -0.038   4.975   2.979  0.00  0.00    +0.053 A 
BRANCH  19  21
ATOM     21  O   UNL     1      -0.054   6.271   4.973  0.00  0.00    -0.491 OA
ATOM     22  C   UNL     1      -0.087   7.423   4.128  0.00  0.00    +0.277 C 
ENDBRANCH  19  21
BRANCH  18  23
ATOM     23  O   UNL     1       0.010   3.968   6.482  0.00  0.00    -0.503 OA
ATOM     24  H   UNL     1       0.896   4.009   6.867  0.00  0.00    +0.292 HD
ENDBRANCH  18  23
ENDBRANCH   4  15
BRANCH   3  25
ATOM     25  C   UNL     1       2.433   3.650   0.341  0.00  0.00    +0.316 C 
ATOM     26  O   UNL     1       3.443   3.088  -0.040  0.00  0.00    -0.250 OA
BRANCH  25  27
ATOM     27  O   UNL     1       2.484   4.940   0.732  0.00  0.00    -0.467 OA
ATOM     28  C   UNL     1       3.758   5.586   0.672  0.00  0.00    +0.280 C 
ENDBRANCH  25  27
ENDBRANCH   3  25
TORSDOF 5
