REMARK  Name = ZINC38573503
REMARK  7 active torsions:
REMARK  status: ('A' for Active; 'I' for Inactive)
REMARK    1  A    between atoms: C_4  and  O_37
REMARK    2  A    between atoms: C_5  and  C_7
REMARK    3  A    between atoms: C_9  and  C_13
REMARK    4  A    between atoms: N_15  and  C_16
REMARK    5  A    between atoms: C_18  and  C_27
REMARK    6  A    between atoms: N_29  and  C_30
REMARK    7  A    between atoms: C_30  and  C_31
REMARK                            x       y       z     vdW  Elec       q    Type
REMARK                         _______ _______ _______ _____ _____    ______ ____
ROOT
ATOM      1  C   UNL     1       3.975  -6.273  -2.565  0.00  0.00    +0.167 C 
ATOM      2  C   UNL     1       5.394  -5.890  -2.942  0.00  0.00    +0.045 C 
ATOM      3  C   UNL     1       6.364  -6.729  -2.683  0.00  0.00    -0.046 C 
ATOM      4  C   UNL     1       7.824  -6.545  -3.098  0.00  0.00    +0.032 C 
ATOM      5  C   UNL     1       8.629  -7.603  -2.338  0.00  0.00    +0.004 C 
ATOM      6  C   UNL     1       8.181  -9.015  -2.684  0.00  0.00    +0.002 C 
ATOM      7  C   UNL     1       6.665  -9.149  -2.799  0.00  0.00    +0.018 C 
ATOM      8  C   UNL     1       5.992  -8.044  -1.982  0.00  0.00    +0.075 C 
ATOM      9  S   UNL     1       4.172  -8.081  -2.249  0.00  0.00    -0.126 S 
ENDROOT
BRANCH   1  12
ATOM     10  C   UNL     1       2.293  -5.066  -1.280  0.00  0.00    +0.244 C 
ATOM     11  O   UNL     1       1.529  -5.195  -2.214  0.00  0.00    -0.273 OA
ATOM     12  N   UNL     1       3.541  -5.570  -1.356  0.00  0.00    -0.297 N 
ATOM     13  H   UNL     1       4.152  -5.466  -0.609  0.00  0.00    +0.150 HD
BRANCH  10  16
ATOM     14  C   UNL     1       1.244  -2.166  -0.022  0.00  0.00    +0.095 C 
ATOM     15  C   UNL     1       2.364  -2.915  -0.032  0.00  0.00    +0.041 C 
ATOM     16  C   UNL     1       1.847  -4.342  -0.036  0.00  0.00    +0.238 C 
ATOM     17  N   UNL     1       0.385  -4.169  -0.028  0.00  0.00    -0.170 NA
ATOM     18  N   UNL     1       0.142  -2.960  -0.015  0.00  0.00    -0.153 NA
BRANCH  14  23
ATOM     19  C   UNL     1      -0.017   1.376   0.010  0.00  0.00    +0.001 A 
ATOM     20  C   UNL     1       1.169   2.089   0.002  0.00  0.00    +0.004 A 
ATOM     21  C   UNL     1       2.382   1.426  -0.013  0.00  0.00    +0.046 A 
ATOM     22  C   UNL     1       2.415   0.041  -0.021  0.00  0.00    +0.126 A 
ATOM     23  C   UNL     1       1.219  -0.683  -0.013  0.00  0.00    +0.043 A 
ATOM     24  C   UNL     1       0.002  -0.004   0.002  0.00  0.00    +0.014 A 
BRANCH  22  25
ATOM     25  O   UNL     1       3.606  -0.612  -0.036  0.00  0.00    -0.506 OA
ATOM     26  H   UNL     1       3.960  -0.806   0.843  0.00  0.00    +0.292 HD
ENDBRANCH  22  25
ENDBRANCH  14  23
ENDBRANCH  10  16
ENDBRANCH   1  12
BRANCH   2  27
ATOM     27  C   UNL     1       5.674  -4.598  -3.587  0.00  0.00    +0.243 C 
ATOM     28  O   UNL     1       6.815  -4.301  -3.884  0.00  0.00    -0.270 OA
ATOM     29  N   UNL     1       4.666  -3.742  -3.848  0.00  0.00    -0.309 N 
ATOM     30  H   UNL     1       3.756  -3.979  -3.610  0.00  0.00    +0.149 HD
BRANCH  29  31
ATOM     31  C   UNL     1       4.945  -2.455  -4.490  0.00  0.00    +0.136 C 
BRANCH  31  32
ATOM     32  C   UNL     1       3.637  -1.682  -4.670  0.00  0.00    +0.135 C 
ATOM     33  C   UNL     1       3.904  -0.379  -5.454  0.00  0.00    +0.035 C 
ATOM     34  C   UNL     1       2.978   0.636  -4.731  0.00  0.00    +0.031 C 
ATOM     35  C   UNL     1       3.050   0.114  -3.274  0.00  0.00    +0.160 C 
ATOM     36  O   UNL     1       3.106  -1.318  -3.391  0.00  0.00    -0.375 OA
ENDBRANCH  31  32
ENDBRANCH  29  31
ENDBRANCH   2  27
TORSDOF 7
