REMARK  Name = ZINC15826367
REMARK  4 active torsions:
REMARK  status: ('A' for Active; 'I' for Inactive)
REMARK    1  A    between atoms: C_1  and  C_2
REMARK    2  A    between atoms: C_5  and  C_8
REMARK    3  A    between atoms: C_8  and  N_9
REMARK    4  A    between atoms: C_19  and  C_21
REMARK                            x       y       z     vdW  Elec       q    Type
REMARK                         _______ _______ _______ _____ _____    ______ ____
ROOT
ATOM      1  N   UNL     1      -0.043   4.420  -0.144  0.00  0.00    -0.310 N 
ATOM      2  C   UNL     1      -0.813   4.188   1.001  0.00  0.00    +0.052 A 
ATOM      3  C   UNL     1      -0.935   5.095   2.034  0.00  0.00    +0.025 A 
ATOM      4  C   UNL     1      -1.752   4.775   3.109  0.00  0.00    +0.002 A 
ATOM      5  C   UNL     1      -2.430   3.570   3.140  0.00  0.00    +0.002 A 
ATOM      6  C   UNL     1      -2.294   2.658   2.105  0.00  0.00    +0.025 A 
ATOM      7  C   UNL     1      -1.469   2.974   1.042  0.00  0.00    +0.052 A 
ATOM      8  N   UNL     1      -1.228   2.103  -0.025  0.00  0.00    -0.316 N 
ATOM      9  C   UNL     1      -0.005   1.496  -0.096  0.00  0.00    +0.017 C 
ATOM     10  C   UNL     1       1.135   2.227  -0.108  0.00  0.00    +0.040 C 
ATOM     11  C   UNL     1       1.240   3.736  -0.124  0.00  0.00    +0.175 C 
ATOM     12  C   UNL     1       2.381   1.558  -0.124  0.00  0.00    +0.163 C 
ATOM     13  O   UNL     1       3.400   2.220  -0.136  0.00  0.00    -0.292 OA
ATOM     14  C   UNL     1       2.491   0.064  -0.125  0.00  0.00    +0.080 C 
ATOM     15  C   UNL     1       1.265  -0.533   0.574  0.00  0.00    +0.014 C 
ATOM     16  C   UNL     1       0.018  -0.012  -0.142  0.00  0.00    +0.051 C 
ATOM     17  H   UNL     1      -1.909   1.935  -0.696  0.00  0.00    +0.152 HD
ENDROOT
BRANCH  11  18
ATOM     18  C   UNL     1       2.023   4.150  -1.343  0.00  0.00    +0.130 A 
ATOM     19  C   UNL     1       3.323   4.495  -1.363  0.00  0.00    +0.047 A 
ATOM     20  C   UNL     1       3.643   4.805  -2.705  0.00  0.00    +0.041 A 
ATOM     21  C   UNL     1       2.518   4.638  -3.423  0.00  0.00    +0.195 A 
ATOM     22  O   UNL     1       1.540   4.241  -2.593  0.00  0.00    -0.466 OA
ENDBRANCH  11  18
BRANCH   1  23
ATOM     23  C   UNL     1       0.132   5.860  -0.378  0.00  0.00    +0.141 C 
BRANCH  23  28
ATOM     24  C   UNL     1      -4.911   8.175  -1.992  0.00  0.00    +0.044 C 
ATOM     25  C   UNL     1      -3.596   7.572  -1.571  0.00  0.00    -0.050 A 
ATOM     26  C   UNL     1      -3.200   7.631  -0.248  0.00  0.00    +0.003 A 
ATOM     27  C   UNL     1      -1.994   7.077   0.138  0.00  0.00    +0.005 A 
ATOM     28  C   UNL     1      -1.184   6.463  -0.798  0.00  0.00    -0.030 A 
ATOM     29  C   UNL     1      -1.577   6.408  -2.123  0.00  0.00    +0.005 A 
ATOM     30  C   UNL     1      -2.785   6.958  -2.508  0.00  0.00    +0.003 A 
ENDBRANCH  23  28
ENDBRANCH   1  23
TORSDOF 3
