REMARK  Name = ZINC06172216
REMARK  6 active torsions:
REMARK  status: ('A' for Active; 'I' for Inactive)
REMARK    1  A    between atoms: C_1  and  C_2
REMARK    2  A    between atoms: C_4  and  C_26
REMARK    3  A    between atoms: C_10  and  S_11
REMARK    4  A    between atoms: S_11  and  C_12
REMARK    5  A    between atoms: C_12  and  C_13
REMARK    6  A    between atoms: N_15  and  C_16
REMARK                            x       y       z     vdW  Elec       q    Type
REMARK                         _______ _______ _______ _____ _____    ______ ____
ROOT
ATOM      1  C   UNL     1      -0.742   1.585  -1.213  0.00  0.00    +0.224 C 
ATOM      2  O   UNL     1      -1.736   2.268  -1.088  0.00  0.00    -0.275 OA
ATOM      3  N   UNL     1      -0.288   1.272  -2.443  0.00  0.00    -0.309 N 
ATOM      4  H   UNL     1       0.507   0.726  -2.543  0.00  0.00    +0.149 HD
ENDROOT
BRANCH   3   5
ATOM      5  C   UNL     1      -0.997   1.758  -3.630  0.00  0.00    +0.035 C 
ATOM      6  C   UNL     1      -2.432   1.228  -3.619  0.00  0.00    +0.029 C 
ATOM      7  C   UNL     1      -3.172   1.735  -4.859  0.00  0.00    -0.008 C 
ATOM      8  C   UNL     1      -2.456   1.242  -6.117  0.00  0.00    +0.007 C 
ATOM      9  C   UNL     1      -1.021   1.771  -6.128  0.00  0.00    -0.008 C 
ATOM     10  C   UNL     1      -0.281   1.264  -4.889  0.00  0.00    +0.029 C 
ATOM     11  C   UNL     1      -1.042   3.301  -6.120  0.00  0.00    +0.007 C 
ATOM     12  C   UNL     1      -1.758   3.794  -4.861  0.00  0.00    -0.008 C 
ATOM     13  C   UNL     1      -3.193   3.265  -4.850  0.00  0.00    +0.007 C 
ATOM     14  C   UNL     1      -1.018   3.288  -3.622  0.00  0.00    +0.029 C 
ENDBRANCH   3   5
BRANCH   1  15
ATOM     15  C   UNL     1      -0.013   1.086   0.008  0.00  0.00    +0.173 C 
BRANCH  15  16
ATOM     16  S   UNL     1      -0.862   1.671   1.500  0.00  0.00    -0.076 S 
BRANCH  16  26
ATOM     17  C   UNL     1       0.060   1.045   8.362  0.00  0.00    +0.066 C 
ATOM     18  C   UNL     1      -0.007   1.089   6.857  0.00  0.00    +0.044 A 
ATOM     19  C   UNL     1      -1.042   1.800   6.227  0.00  0.00    +0.044 A 
ATOM     20  C   UNL     1      -1.096   1.837   4.874  0.00  0.00    +0.028 A 
ATOM     21  N   UNL     1      -0.139   1.177   4.156  0.00  0.00    -0.259 N 
ATOM     22  C   UNL     1       0.863   0.489   4.807  0.00  0.00    +0.257 A 
ATOM     23  N   UNL     1       0.901   0.464   6.147  0.00  0.00    -0.216 NA
ATOM     24  N   UNL     1       1.630  -0.040   3.872  0.00  0.00    -0.108 NA
ATOM     25  N   UNL     1       1.174   0.267   2.709  0.00  0.00    -0.120 NA
ATOM     26  C   UNL     1       0.099   1.013   2.823  0.00  0.00    +0.198 A 
ATOM     27  C   UNL     1      -2.195   2.593   4.173  0.00  0.00    +0.064 C 
ENDBRANCH  16  26
ENDBRANCH  15  16
ENDBRANCH   1  15
TORSDOF 4
