REMARK  Name = ZINC39678569
REMARK  7 active torsions:
REMARK  status: ('A' for Active; 'I' for Inactive)
REMARK    1  A    between atoms: C_3  and  C_11
REMARK    2  A    between atoms: C_5  and  O_7
REMARK    3  A    between atoms: O_7  and  C_8
REMARK    4  A    between atoms: C_11  and  N_12
REMARK    5  A    between atoms: C_13  and  C_15
REMARK    6  A    between atoms: C_26  and  C_28
REMARK    7  A    between atoms: C_31  and  C_33
REMARK                            x       y       z     vdW  Elec       q    Type
REMARK                         _______ _______ _______ _____ _____    ______ ____
ROOT
ATOM      1  C   UNL     1       5.686   3.366   3.014  0.00  0.00    +0.100 C 
ATOM      2  C   UNL     1       5.857   2.028   3.769  0.00  0.00    +0.121 C 
ATOM      3  N   UNL     1       7.298   1.707   3.639  0.00  0.00    -0.294 N 
ATOM      4  C   UNL     1       7.982   3.014   3.788  0.00  0.00    +0.115 C 
ATOM      5  C   UNL     1       7.081   4.011   3.032  0.00  0.00    -0.004 C 
ATOM      6  C   UNL     1       7.592   4.206   1.607  0.00  0.00    -0.010 C 
ATOM      7  C   UNL     1       8.956   4.901   1.649  0.00  0.00    -0.082 C 
ATOM      8  N   UNL     1       8.826   6.197   2.325  0.00  0.00    +0.379 N 
ATOM      9  C   UNL     1       8.424   5.995   3.723  0.00  0.00    -0.082 C 
ATOM     10  C   UNL     1       7.037   5.346   3.768  0.00  0.00    -0.010 C 
ATOM     11  C   UNL     1       7.860   0.500   3.432  0.00  0.00    +0.282 C 
ATOM     12  O   UNL     1       9.070   0.398   3.347  0.00  0.00    -0.267 OA
ATOM     13  H   UNL     1       9.712   6.679   2.298  0.00  0.00    -0.086 HD
ATOM     14  H   UNL     1       8.129   6.753   1.853  0.00  0.00    -0.086 HD
ENDROOT
BRANCH  11  15
ATOM     15  C   UNL     1       7.015  -0.690   3.308  0.00  0.00    +0.190 A 
ATOM     16  C   UNL     1       7.457  -1.979   3.102  0.00  0.00    +0.055 A 
ATOM     17  C   UNL     1       6.320  -2.791   3.047  0.00  0.00    +0.050 A 
ATOM     18  C   UNL     1       5.236  -1.978   3.221  0.00  0.00    +0.136 A 
ATOM     19  O   UNL     1       5.667  -0.716   3.383  0.00  0.00    -0.450 OA
BRANCH  18  20
ATOM     20  C   UNL     1       3.826  -2.415   3.234  0.00  0.00    +0.017 A 
ATOM     21  C   UNL     1       3.508  -3.764   3.065  0.00  0.00    +0.014 A 
ATOM     22  C   UNL     1       2.189  -4.166   3.079  0.00  0.00    +0.039 A 
ATOM     23  C   UNL     1       1.180  -3.234   3.260  0.00  0.00    +0.123 A 
ATOM     24  C   UNL     1       1.489  -1.893   3.428  0.00  0.00    +0.039 A 
ATOM     25  C   UNL     1       2.804  -1.481   3.421  0.00  0.00    +0.014 A 
ATOM     26  F   UNL     1      -0.111  -3.634   3.272  0.00  0.00    -0.205 F 
ENDBRANCH  18  20
ENDBRANCH  11  15
BRANCH   1  28
ATOM     27  N   UNL     1       4.506   4.039   0.947  0.00  0.00    -0.311 N 
ATOM     28  C   UNL     1       5.242   3.115   1.596  0.00  0.00    +0.218 C 
ATOM     29  O   UNL     1       5.546   2.081   1.040  0.00  0.00    -0.275 OA
ATOM     30  H   UNL     1       4.263   4.865   1.392  0.00  0.00    +0.149 HD
BRANCH  27  31
ATOM     31  C   UNL     1       4.074   3.795  -0.431  0.00  0.00    +0.139 C 
BRANCH  31  34
ATOM     32  C   UNL     1       3.176   7.109  -2.005  0.00  0.00    +0.004 A 
ATOM     33  C   UNL     1       3.909   6.026  -1.553  0.00  0.00    +0.005 A 
ATOM     34  C   UNL     1       3.273   4.973  -0.923  0.00  0.00    -0.027 A 
ATOM     35  C   UNL     1       1.903   4.999  -0.743  0.00  0.00    +0.051 A 
ATOM     36  C   UNL     1       1.166   6.083  -1.196  0.00  0.00    +0.127 A 
ATOM     37  C   UNL     1       1.807   7.139  -1.827  0.00  0.00    +0.046 A 
BRANCH  36  38
ATOM     38  O   UNL     1      -0.181   6.111  -1.020  0.00  0.00    -0.434 OA
BRANCH  38  39
ATOM     39  C   UNL     1      -0.876   7.260  -1.511  0.00  0.00    +0.541 C 
ATOM     40  F   UNL     1      -0.390   8.406  -0.874  0.00  0.00    -0.166 F 
ATOM     41  F   UNL     1      -0.674   7.372  -2.891  0.00  0.00    -0.166 F 
ENDBRANCH  38  39
ENDBRANCH  36  38
ENDBRANCH  31  34
ENDBRANCH  27  31
ENDBRANCH   1  28
TORSDOF 7
