REMARK  Name = ZINC19333975
REMARK  3 active torsions:
REMARK  status: ('A' for Active; 'I' for Inactive)
REMARK    1  A    between atoms: C_6  and  C_7
REMARK    2  A    between atoms: C_7  and  N_8
REMARK    3  A    between atoms: C_12  and  C_15
REMARK                            x       y       z     vdW  Elec       q    Type
REMARK                         _______ _______ _______ _____ _____    ______ ____
ROOT
ATOM      1  N   UNL     1      -0.723   1.572  -1.182  0.00  0.00    -0.298 NA
ATOM      2  C   UNL     1      -0.013   1.086   0.008  0.00  0.00    +0.085 C 
ATOM      3  C   UNL     1      -0.729   1.579   1.267  0.00  0.00    +0.016 C 
ATOM      4  C   UNL     1      -2.170   1.064   1.264  0.00  0.00    +0.012 C 
ATOM      5  C   UNL     1      -2.873   1.544  -0.009  0.00  0.00    +0.056 C 
ATOM      6  C   UNL     1      -2.095   1.052  -1.231  0.00  0.00    +0.094 C 
ENDROOT
BRANCH   5   7
ATOM      7  C   UNL     1      -4.275   0.993  -0.049  0.00  0.00    +0.095 A 
ATOM      8  C   UNL     1      -5.463   1.762  -0.091  0.00  0.00    +0.130 A 
ATOM      9  C   UNL     1      -6.539   0.849  -0.119  0.00  0.00    +0.175 A 
ATOM     10  N   UNL     1      -5.987  -0.404  -0.094  0.00  0.00    -0.259 N 
ATOM     11  H   UNL     1      -6.638  -1.292  -0.104  0.00  0.00    +0.191 HD
ATOM     12  N   UNL     1      -4.595  -0.268  -0.057  0.00  0.00    -0.175 NA
ATOM     13  N   UNL     1      -7.785   1.301  -0.161  0.00  0.00    -0.233 NA
ATOM     14  C   UNL     1      -8.011   2.600  -0.176  0.00  0.00    +0.133 A 
ATOM     15  C   UNL     1      -6.954   3.502  -0.149  0.00  0.00    +0.131 A 
ATOM     16  N   UNL     1      -5.710   3.071  -0.107  0.00  0.00    -0.248 NA
ENDBRANCH   5   7
BRANCH   1  17
ATOM     17  C   UNL     1       0.013   1.235  -2.408  0.00  0.00    +0.119 C 
BRANCH  17  23
ATOM     18  C   UNL     1       1.059  -1.010  -2.047  0.00  0.00    +0.008 A 
ATOM     19  C   UNL     1       1.074  -2.383  -2.207  0.00  0.00    +0.038 A 
ATOM     20  C   UNL     1       0.063  -3.007  -2.918  0.00  0.00    +0.123 A 
ATOM     21  C   UNL     1      -0.964  -2.256  -3.463  0.00  0.00    +0.038 A 
ATOM     22  C   UNL     1      -0.979  -0.884  -3.298  0.00  0.00    +0.008 A 
ATOM     23  C   UNL     1       0.030  -0.262  -2.588  0.00  0.00    -0.033 A 
ATOM     24  F   UNL     1       0.079  -4.348  -3.079  0.00  0.00    -0.205 F 
ENDBRANCH  17  23
ENDBRANCH   1  17
TORSDOF 3
