REMARK  Name = ZINC29133893
REMARK  9 active torsions:
REMARK  status: ('A' for Active; 'I' for Inactive)
REMARK    1  A    between atoms: C_1  and  C_2
REMARK    2  A    between atoms: C_6  and  C_8
REMARK    3  A    between atoms: C_8  and  N_9
REMARK    4  A    between atoms: C_12  and  C_26
REMARK    5  A    between atoms: N_18  and  C_19
REMARK    6  A    between atoms: N_22  and  C_25
REMARK    7  A    between atoms: C_26  and  N_27
REMARK    8  A    between atoms: N_27  and  C_28
REMARK    9  A    between atoms: N_27  and  C_29
REMARK                            x       y       z     vdW  Elec       q    Type
REMARK                         _______ _______ _______ _____ _____    ______ ____
ROOT
ATOM      1  N   UNL     1      -4.487   3.878  -1.993  0.00  0.00    -0.307 N 
ATOM      2  C   UNL     1      -4.522   4.641  -0.838  0.00  0.00    +0.069 A 
ATOM      3  C   UNL     1      -4.333   4.360   0.506  0.00  0.00    +0.033 A 
ATOM      4  C   UNL     1      -4.439   5.369   1.441  0.00  0.00    -0.028 A 
ATOM      5  C   UNL     1      -4.734   6.665   1.044  0.00  0.00    +0.007 A 
ATOM      6  C   UNL     1      -4.925   6.963  -0.286  0.00  0.00    +0.028 A 
ATOM      7  C   UNL     1      -4.821   5.952  -1.245  0.00  0.00    +0.066 A 
ATOM      8  N   UNL     1      -4.952   5.931  -2.597  0.00  0.00    -0.327 N 
ATOM      9  C   UNL     1      -4.751   4.714  -3.040  0.00  0.00    +0.175 A 
ATOM     10  N   UNL     1      -4.801   4.335  -4.364  0.00  0.00    -0.314 N 
ATOM     11  H   UNL     1      -4.713   3.399  -4.604  0.00  0.00    +0.149 HD
ATOM     12  H   UNL     1      -5.159   6.700  -3.151  0.00  0.00    +0.169 HD
ENDROOT
BRANCH  10  13
ATOM     13  C   UNL     1      -4.986   5.345  -5.409  0.00  0.00    +0.070 C 
ATOM     14  C   UNL     1      -6.481   5.622  -5.595  0.00  0.00    +0.003 C 
ATOM     15  C   UNL     1      -6.671   6.617  -6.741  0.00  0.00    -0.077 C 
ATOM     16  N   UNL     1      -6.119   6.055  -7.979  0.00  0.00    +0.378 N 
ATOM     17  C   UNL     1      -4.673   5.854  -7.833  0.00  0.00    -0.077 C 
ATOM     18  C   UNL     1      -4.405   4.829  -6.729  0.00  0.00    +0.003 C 
ATOM     19  C   UNL     1      -6.374   6.980  -9.091  0.00  0.00    -0.096 C 
ATOM     20  H   UNL     1      -6.563   5.170  -8.172  0.00  0.00    -0.082 HD
ENDBRANCH  10  13
BRANCH   1  21
ATOM     21  C   UNL     1      -4.213   2.441  -2.077  0.00  0.00    +0.182 C 
BRANCH  21  27
ATOM     22  C   UNL     1      -7.753   0.358  -4.712  0.00  0.00    +0.063 C 
ATOM     23  C   UNL     1      -7.186   0.699  -3.358  0.00  0.00    +0.013 A 
ATOM     24  C   UNL     1      -7.865   0.311  -2.217  0.00  0.00    +0.024 A 
ATOM     25  C   UNL     1      -7.338   0.628  -0.976  0.00  0.00    +0.054 A 
ATOM     26  C   UNL     1      -6.137   1.329  -0.927  0.00  0.00    +0.200 A 
ATOM     27  C   UNL     1      -5.514   1.682  -2.115  0.00  0.00    +0.083 A 
ATOM     28  N   UNL     1      -6.047   1.357  -3.276  0.00  0.00    -0.358 N 
ATOM     29  O   UNL     1      -5.582   1.662   0.268  0.00  0.00    -0.286 OA
ATOM     30  H   UNL     1      -5.590   1.612  -4.093  0.00  0.00    +0.165 HD
ENDBRANCH  21  27
ENDBRANCH   1  21
BRANCH   4  31
ATOM     31  C   UNL     1      -4.233   5.062   2.902  0.00  0.00    +0.140 C 
BRANCH  31  32
ATOM     32  N   UNL     1      -2.818   5.228   3.241  0.00  0.00    -0.329 N 
ATOM     33  C   UNL     1      -2.321   6.528   3.697  0.00  0.00    +0.129 C 
BRANCH  32  34
ATOM     34  C   UNL     1      -1.942   4.146   3.130  0.00  0.00    +0.030 A 
ATOM     35  C   UNL     1      -2.409   2.913   2.693  0.00  0.00    +0.023 A 
ATOM     36  C   UNL     1      -1.540   1.845   2.584  0.00  0.00    +0.002 A 
ATOM     37  C   UNL     1      -0.206   2.002   2.910  0.00  0.00    +0.000 A 
ATOM     38  C   UNL     1       0.264   3.228   3.346  0.00  0.00    +0.002 A 
ATOM     39  C   UNL     1      -0.599   4.301   3.452  0.00  0.00    +0.023 A 
ENDBRANCH  32  34
ENDBRANCH  31  32
ENDBRANCH   4  31
TORSDOF 6
