REMARK  Name = ZINC39664564
REMARK  8 active torsions:
REMARK  status: ('A' for Active; 'I' for Inactive)
REMARK    1  A    between atoms: C_1  and  N_2
REMARK    2  A    between atoms: N_2  and  C_3
REMARK    3  A    between atoms: N_2  and  C_4
REMARK    4  A    between atoms: C_4  and  C_5
REMARK    5  A    between atoms: C_5  and  C_7
REMARK    6  A    between atoms: C_5  and  N_13
REMARK    7  A    between atoms: C_14  and  C_16
REMARK    8  A    between atoms: C_27  and  C_29
REMARK                            x       y       z     vdW  Elec       q    Type
REMARK                         _______ _______ _______ _____ _____    ______ ____
ROOT
ATOM      1  C   UNL     1       1.620  -3.328   1.934  0.00  0.00    +0.100 C 
ATOM      2  C   UNL     1       1.403  -2.739   3.346  0.00  0.00    +0.121 C 
ATOM      3  N   UNL     1       2.760  -2.675   3.937  0.00  0.00    -0.296 N 
ATOM      4  C   UNL     1       3.630  -2.244   2.817  0.00  0.00    +0.115 C 
ATOM      5  C   UNL     1       3.083  -3.000   1.590  0.00  0.00    -0.004 C 
ATOM      6  C   UNL     1       3.148  -2.111   0.351  0.00  0.00    -0.010 C 
ATOM      7  C   UNL     1       4.614  -1.847  -0.005  0.00  0.00    -0.082 C 
ATOM      8  N   UNL     1       5.296  -3.122  -0.256  0.00  0.00    +0.379 N 
ATOM      9  C   UNL     1       5.310  -3.932   0.968  0.00  0.00    -0.082 C 
ATOM     10  C   UNL     1       3.874  -4.285   1.365  0.00  0.00    -0.010 C 
ATOM     11  C   UNL     1       3.122  -2.946   5.207  0.00  0.00    +0.249 C 
ATOM     12  O   UNL     1       4.286  -2.845   5.542  0.00  0.00    -0.270 OA
ATOM     13  H   UNL     1       4.811  -3.624  -0.985  0.00  0.00    -0.086 HD
ATOM     14  H   UNL     1       6.245  -2.942  -0.550  0.00  0.00    -0.086 HD
ENDROOT
BRANCH  11  15
ATOM     15  C   UNL     1       2.103  -3.366   6.191  0.00  0.00    +0.073 A 
ATOM     16  C   UNL     1       1.810  -4.722   6.362  0.00  0.00    +0.054 A 
ATOM     17  C   UNL     1       0.857  -5.107   7.285  0.00  0.00    +0.021 A 
ATOM     18  C   UNL     1       0.193  -4.155   8.037  0.00  0.00    +0.003 A 
ATOM     19  C   UNL     1       0.478  -2.811   7.873  0.00  0.00    +0.021 A 
ATOM     20  C   UNL     1       1.433  -2.411   6.959  0.00  0.00    +0.054 A 
ATOM     21 CL   UNL     1       1.794  -0.725   6.760  0.00  0.00    -0.083 Cl
ATOM     22 CL   UNL     1       2.641  -5.918   5.418  0.00  0.00    -0.083 Cl
ENDBRANCH  11  15
BRANCH   1  24
ATOM     23  N   UNL     1       0.261  -3.363  -0.132  0.00  0.00    -0.310 N 
ATOM     24  C   UNL     1       0.690  -2.675   0.944  0.00  0.00    +0.219 C 
ATOM     25  O   UNL     1       0.327  -1.531   1.117  0.00  0.00    -0.275 OA
ATOM     26  H   UNL     1       0.495  -4.299  -0.235  0.00  0.00    +0.149 HD
BRANCH  23  27
ATOM     27  C   UNL     1      -0.559  -2.697  -1.148  0.00  0.00    +0.087 C 
BRANCH  27  28
ATOM     28  C   UNL     1      -0.343  -3.362  -2.483  0.00  0.00    -0.029 A 
ATOM     29  C   UNL     1      -0.237  -4.739  -2.561  0.00  0.00    +0.005 A 
ATOM     30  C   UNL     1      -0.038  -5.349  -3.785  0.00  0.00    +0.000 A 
ATOM     31  C   UNL     1       0.053  -4.583  -4.932  0.00  0.00    +0.000 A 
ATOM     32  C   UNL     1      -0.054  -3.207  -4.855  0.00  0.00    +0.000 A 
ATOM     33  C   UNL     1      -0.256  -2.597  -3.631  0.00  0.00    +0.005 A 
ENDBRANCH  27  28
BRANCH  27  34
ATOM     34  C   UNL     1      -2.035  -2.801  -0.760  0.00  0.00    -0.052 C 
BRANCH  34  36
ATOM     35  C   UNL     1      -4.271  -2.231  -1.416  0.00  0.00    -0.097 C 
ATOM     36  N   UNL     1      -2.846  -2.023  -1.706  0.00  0.00    +0.377 N 
ATOM     37  C   UNL     1      -2.522  -0.597  -1.571  0.00  0.00    -0.097 C 
ATOM     38  H   UNL     1      -2.647  -2.325  -2.648  0.00  0.00    -0.083 HD
ENDBRANCH  34  36
ENDBRANCH  27  34
ENDBRANCH  23  27
ENDBRANCH   1  24
TORSDOF 6
