REMARK  Name = ZINC02717860
REMARK  6 active torsions:
REMARK  status: ('A' for Active; 'I' for Inactive)
REMARK    1  A    between atoms: C_3  and  C_6
REMARK    2  A    between atoms: C_6  and  N_7
REMARK    3  A    between atoms: C_8  and  C_10
REMARK    4  A    between atoms: C_10  and  S_11
REMARK    5  A    between atoms: S_11  and  C_12
REMARK    6  A    between atoms: N_19  and  C_22
REMARK                            x       y       z     vdW  Elec       q    Type
REMARK                         _______ _______ _______ _____ _____    ______ ____
ROOT
ATOM      1  C   UNL     1       8.200   0.495   4.683  0.00  0.00    +0.194 A 
ATOM      2  N   UNL     1       7.234   0.507   5.596  0.00  0.00    -0.183 NA
ATOM      3  C   UNL     1       7.514   0.494   6.891  0.00  0.00    +0.285 A 
ATOM      4  O   UNL     1       6.524   0.507   7.813  0.00  0.00    -0.265 OA
ATOM      5  C   UNL     1       8.865   0.466   7.286  0.00  0.00    +0.105 A 
ATOM      6  C   UNL     1       9.533   0.446   8.530  0.00  0.00    +0.150 A 
ATOM      7  N   UNL     1      10.817   0.424   8.310  0.00  0.00    -0.172 NA
ATOM      8  N   UNL     1      11.060   0.427   6.931  0.00  0.00    -0.214 N 
ATOM      9  C   UNL     1       9.856   0.454   6.285  0.00  0.00    +0.171 A 
ATOM     10  N   UNL     1       9.482   0.463   5.008  0.00  0.00    -0.202 NA
ENDROOT
BRANCH   8  11
ATOM     11  C   UNL     1      12.320   0.408   6.319  0.00  0.00    +0.068 A 
ATOM     12  C   UNL     1      12.502  -0.273   5.122  0.00  0.00    +0.029 A 
ATOM     13  C   UNL     1      13.745  -0.291   4.521  0.00  0.00    +0.022 A 
ATOM     14  C   UNL     1      14.809   0.368   5.111  0.00  0.00    +0.041 A 
ATOM     15  C   UNL     1      14.631   1.046   6.304  0.00  0.00    +0.022 A 
ATOM     16  C   UNL     1      13.389   1.073   6.905  0.00  0.00    +0.029 A 
ATOM     17 CL   UNL     1      16.371   0.343   4.353  0.00  0.00    -0.084 Cl
ENDBRANCH   8  11
BRANCH   1  18
ATOM     18  S   UNL     1       7.757   0.513   2.978  0.00  0.00    -0.077 S 
BRANCH  18  19
ATOM     19  C   UNL     1       5.944   0.555   2.996  0.00  0.00    +0.173 C 
BRANCH  19  21
ATOM     20  N   UNL     1       4.101   0.607   1.347  0.00  0.00    -0.308 N 
ATOM     21  C   UNL     1       5.428   0.575   1.580  0.00  0.00    +0.224 C 
ATOM     22  O   UNL     1       6.207   0.561   0.650  0.00  0.00    -0.275 OA
ATOM     23  H   UNL     1       3.478   0.617   2.090  0.00  0.00    +0.149 HD
BRANCH  20  24
ATOM     24  C   UNL     1       3.599   0.625  -0.029  0.00  0.00    +0.178 C 
BRANCH  24  27
ATOM     25  C   UNL     1      -0.016   1.341   0.009  0.00  0.00    +0.041 A 
ATOM     26  C   UNL     1       1.331   1.769  -0.001  0.00  0.00    +0.046 A 
ATOM     27  C   UNL     1       2.092   0.660  -0.014  0.00  0.00    +0.122 A 
ATOM     28  O   UNL     1       1.282  -0.411  -0.012  0.00  0.00    -0.466 OA
ATOM     29  C   UNL     1       0.002  -0.004   0.002  0.00  0.00    +0.195 A 
ENDBRANCH  24  27
ENDBRANCH  20  24
ENDBRANCH  19  21
ENDBRANCH  18  19
ENDBRANCH   1  18
TORSDOF 6
