REMARK  Name = ZINC41951578
REMARK  3 active torsions:
REMARK  status: ('A' for Active; 'I' for Inactive)
REMARK    1  A    between atoms: C_7  and  C_11
REMARK    2  A    between atoms: C_7  and  O_14
REMARK    3  A    between atoms: O_14  and  C_15
REMARK                            x       y       z     vdW  Elec       q    Type
REMARK                         _______ _______ _______ _____ _____    ______ ____
ROOT
ATOM      1  C   UNL     1       0.524   1.441  -0.060  0.00  0.00    +0.001 A 
ATOM      2  C   UNL     1       1.750   2.051   0.133  0.00  0.00    +0.004 A 
ATOM      3  C   UNL     1       2.884   1.282   0.298  0.00  0.00    +0.046 A 
ATOM      4  C   UNL     1       2.798  -0.106   0.273  0.00  0.00    +0.128 A 
ATOM      5  C   UNL     1       1.570  -0.714   0.083  0.00  0.00    +0.048 A 
ATOM      6  C   UNL     1       0.435   0.063  -0.085  0.00  0.00    +0.012 A 
ATOM      7  C   UNL     1       1.431  -2.215   0.059  0.00  0.00    +0.241 C 
ATOM      8  C   UNL     1       2.801  -2.856  -0.179  0.00  0.00    +0.106 C 
ATOM      9  C   UNL     1       3.809  -2.208   0.780  0.00  0.00    +0.234 C 
ATOM     10  O   UNL     1       3.937  -0.829   0.433  0.00  0.00    -0.491 OA
ENDROOT
BRANCH   7  11
ATOM     11  C   UNL     1       0.491  -2.615  -1.049  0.00  0.00    +0.404 C 
ATOM     12  O   UNL     1       0.752  -2.324  -2.204  0.00  0.00    -0.241 OA
ATOM     13  O   UNL     1      -0.530  -3.228  -0.791  0.00  0.00    -0.241 OA
ENDBRANCH   7  11
BRANCH   7  14
ATOM     14  O   UNL     1       0.907  -2.664   1.311  0.00  0.00    -0.468 OA
BRANCH  14  15
ATOM     15  C   UNL     1       0.749  -4.005   1.468  0.00  0.00    +0.137 A 
ATOM     16  C   UNL     1       0.969  -4.861   0.399  0.00  0.00    +0.047 A 
ATOM     17  C   UNL     1       0.807  -6.223   0.562  0.00  0.00    +0.004 A 
ATOM     18  C   UNL     1       0.428  -6.734   1.789  0.00  0.00    +0.001 A 
ATOM     19  C   UNL     1       0.208  -5.883   2.857  0.00  0.00    +0.019 A 
ATOM     20  C   UNL     1       0.374  -4.520   2.701  0.00  0.00    +0.060 A 
ATOM     21 BR   UNL     1       0.082  -3.358   4.164  0.00  0.00    -0.047 Br
ENDBRANCH  14  15
ENDBRANCH   7  14
TORSDOF 3
