REMARK  Name = ZINC39685933
REMARK  8 active torsions:
REMARK  status: ('A' for Active; 'I' for Inactive)
REMARK    1  A    between atoms: C_1  and  C_2
REMARK    2  A    between atoms: C_2  and  C_3
REMARK    3  A    between atoms: C_2  and  C_4
REMARK    4  A    between atoms: C_9  and  N_12
REMARK    5  A    between atoms: C_13  and  C_15
REMARK    6  A    between atoms: C_26  and  C_28
REMARK    7  A    between atoms: C_28  and  C_29
REMARK    8  A    between atoms: C_28  and  C_30
REMARK                            x       y       z     vdW  Elec       q    Type
REMARK                         _______ _______ _______ _____ _____    ______ ____
ROOT
ATOM      1  C   UNL     1       6.663   3.390  -4.184  0.00  0.00    +0.100 C 
ATOM      2  C   UNL     1       7.099   4.412  -3.110  0.00  0.00    +0.121 C 
ATOM      3  N   UNL     1       8.545   4.154  -2.912  0.00  0.00    -0.300 N 
ATOM      4  C   UNL     1       9.060   3.882  -4.276  0.00  0.00    +0.115 C 
ATOM      5  C   UNL     1       7.952   3.047  -4.949  0.00  0.00    -0.004 C 
ATOM      6  C   UNL     1       8.263   1.559  -4.821  0.00  0.00    -0.010 C 
ATOM      7  C   UNL     1       9.517   1.233  -5.636  0.00  0.00    -0.082 C 
ATOM      8  N   UNL     1       9.294   1.587  -7.043  0.00  0.00    +0.379 N 
ATOM      9  C   UNL     1       9.088   3.035  -7.168  0.00  0.00    -0.082 C 
ATOM     10  C   UNL     1       7.816   3.438  -6.417  0.00  0.00    -0.010 C 
ATOM     11  C   UNL     1       9.236   4.165  -1.755  0.00  0.00    +0.218 C 
ATOM     12  O   UNL     1      10.426   3.933  -1.757  0.00  0.00    -0.275 OA
ATOM     13  H   UNL     1      10.098   1.315  -7.589  0.00  0.00    -0.086 HD
ATOM     14  H   UNL     1       8.479   1.102  -7.386  0.00  0.00    -0.086 HD
ENDROOT
BRANCH   1  16
ATOM     15  N   UNL     1       5.164   1.423  -4.176  0.00  0.00    -0.312 N 
ATOM     16  C   UNL     1       6.095   2.155  -3.533  0.00  0.00    +0.218 C 
ATOM     17  O   UNL     1       6.476   1.821  -2.431  0.00  0.00    -0.275 OA
ATOM     18  H   UNL     1       4.859   1.691  -5.057  0.00  0.00    +0.149 HD
BRANCH  15  24
ATOM     19  C   UNL     1       3.181  -3.591  -4.080  0.00  0.00    +0.218 C 
ATOM     20  O   UNL     1       3.945  -4.532  -4.101  0.00  0.00    -0.275 OA
ATOM     21  N   UNL     1       3.579  -2.411  -3.564  0.00  0.00    -0.301 N 
ATOM     22  C   UNL     1       2.632  -1.296  -3.426  0.00  0.00    +0.109 C 
ATOM     23  C   UNL     1       3.220  -0.061  -4.114  0.00  0.00    +0.041 C 
ATOM     24  C   UNL     1       4.612   0.222  -3.543  0.00  0.00    +0.076 C 
ATOM     25  C   UNL     1       5.531  -0.969  -3.821  0.00  0.00    +0.041 C 
ATOM     26  C   UNL     1       4.967  -2.217  -3.124  0.00  0.00    +0.109 C 
BRANCH  19  28
ATOM     27  C   UNL     1       1.749  -3.224  -6.071  0.00  0.00    +0.017 C 
ATOM     28  C   UNL     1       1.786  -3.740  -4.631  0.00  0.00    +0.069 C 
ATOM     29  C   UNL     1       1.384  -5.216  -4.608  0.00  0.00    +0.017 C 
ENDBRANCH  19  28
ENDBRANCH  15  24
ENDBRANCH   1  16
BRANCH  11  30
ATOM     30  C   UNL     1       8.529   4.466  -0.459  0.00  0.00    +0.069 C 
ATOM     31  C   UNL     1       9.534   4.415   0.694  0.00  0.00    +0.017 C 
ATOM     32  C   UNL     1       7.905   5.861  -0.530  0.00  0.00    +0.017 C 
ENDBRANCH  11  30
TORSDOF 4
