REMARK  Name = ZINC27230121
REMARK  5 active torsions:
REMARK  status: ('A' for Active; 'I' for Inactive)
REMARK    1  A    between atoms: C_3  and  C_6
REMARK    2  A    between atoms: C_7  and  C_8
REMARK    3  A    between atoms: N_12  and  C_16
REMARK    4  A    between atoms: C_19  and  O_25
REMARK    5  A    between atoms: C_20  and  C_22
REMARK                            x       y       z     vdW  Elec       q    Type
REMARK                         _______ _______ _______ _____ _____    ______ ____
ROOT
ATOM      1  C   UNL     1       0.303  -7.157   2.147  0.00  0.00    +0.020 C 
ATOM      2  C   UNL     1       0.191  -6.258   1.109  0.00  0.00    +0.077 C 
ATOM      3  C   UNL     1       0.176  -4.832   1.141  0.00  0.00    +0.263 C 
ATOM      4  O   UNL     1       0.270  -4.227   2.194  0.00  0.00    -0.269 OA
ATOM      5  N   UNL     1       0.057  -4.186  -0.006  0.00  0.00    -0.224 N 
ATOM      6  C   UNL     1      -0.054  -4.857  -1.174  0.00  0.00    +0.125 C 
ATOM      7  S   UNL     1      -0.224  -4.233  -2.759  0.00  0.00    -0.027 S 
ATOM      8  S   UNL     1       0.025  -6.562  -0.645  0.00  0.00    -0.061 S 
ENDROOT
BRANCH   5   9
ATOM      9  C   UNL     1       0.038  -2.783  -0.011  0.00  0.00    +0.044 A 
ATOM     10  C   UNL     1      -1.170  -2.105   0.107  0.00  0.00    +0.027 A 
ATOM     11  C   UNL     1      -1.198  -0.725   0.103  0.00  0.00    +0.048 A 
ATOM     12  C   UNL     1      -0.019  -0.004  -0.018  0.00  0.00    +0.131 A 
ATOM     13  C   UNL     1       1.202  -0.681  -0.142  0.00  0.00    +0.106 A 
ATOM     14  C   UNL     1       1.223  -2.078  -0.132  0.00  0.00    +0.042 A 
BRANCH  13  15
ATOM     15  C   UNL     1       2.458   0.077  -0.278  0.00  0.00    +0.390 C 
ATOM     16  O   UNL     1       2.437   1.292  -0.282  0.00  0.00    -0.240 OA
ATOM     17  O   UNL     1       3.631  -0.577  -0.397  0.00  0.00    -0.240 OA
ENDBRANCH  13  15
BRANCH  12  18
ATOM     18  O   UNL     1      -0.049   1.352  -0.022  0.00  0.00    -0.506 OA
ATOM     19  H   UNL     1       0.887   1.922  -0.119  0.00  0.00    +0.292 HD
ENDBRANCH  12  18
ENDBRANCH   5   9
BRANCH   1  21
ATOM     20  C   UNL     1       0.535  -7.582   4.492  0.00  0.00    +0.046 C 
ATOM     21  C   UNL     1       0.424  -6.694   3.466  0.00  0.00    +0.005 C 
BRANCH  20  24
ATOM     22  C   UNL     1       0.872  -7.018   8.040  0.00  0.00    +0.042 A 
ATOM     23  C   UNL     1       0.777  -7.899   6.952  0.00  0.00    +0.049 A 
ATOM     24  C   UNL     1       0.657  -7.114   5.822  0.00  0.00    +0.128 A 
ATOM     25  O   UNL     1       0.685  -5.823   6.211  0.00  0.00    -0.464 OA
ATOM     26  C   UNL     1       0.808  -5.762   7.546  0.00  0.00    +0.195 A 
ENDBRANCH  20  24
ENDBRANCH   1  21
TORSDOF 5
