REMARK  Name = ZINC58391404
REMARK  11 active torsions:
REMARK  status: ('A' for Active; 'I' for Inactive)
REMARK    1  A    between atoms: C_1  and  C_2
REMARK    2  A    between atoms: C_2  and  C_4
REMARK    3  A    between atoms: C_2  and  N_12
REMARK    4  A    between atoms: N_12  and  C_13
REMARK    5  A    between atoms: C_13  and  C_14
REMARK    6  A    between atoms: C_15  and  C_22
REMARK    7  A    between atoms: N_17  and  C_21
REMARK    8  A    between atoms: C_18  and  O_19
REMARK    9  A    between atoms: O_19  and  C_20
REMARK   10  A    between atoms: C_22  and  C_23
REMARK   11  A    between atoms: C_22  and  C_24
REMARK                            x       y       z     vdW  Elec       q    Type
REMARK                         _______ _______ _______ _____ _____    ______ ____
ROOT
ATOM      1  N   UNL     1       0.906  -0.019   1.433  0.00  0.00    +0.388 N 
ATOM      2  H   UNL     1       0.612   0.451   2.276  0.00  0.00    -0.084 HD
ATOM      3  H   UNL     1       0.624  -0.987   1.471  0.00  0.00    -0.084 HD
ENDROOT
BRANCH   1   5
ATOM      4  C   UNL     1       0.610   2.122   0.280  0.00  0.00    -0.006 C 
ATOM      5  C   UNL     1       0.283   0.627   0.269  0.00  0.00    -0.005 C 
BRANCH   5   6
ATOM      6  C   UNL     1      -1.211   0.439   0.330  0.00  0.00    +0.119 A 
ATOM      7  N   UNL     1      -1.969   0.601   1.380  0.00  0.00    -0.136 NA
ATOM      8  N   UNL     1      -3.193   0.356   1.072  0.00  0.00    -0.134 NA
ATOM      9  C   UNL     1      -3.270   0.024  -0.190  0.00  0.00    +0.133 A 
ATOM     10  N   UNL     1      -2.018   0.076  -0.697  0.00  0.00    -0.316 N 
ATOM     11  C   UNL     1      -2.010  -0.270  -2.124  0.00  0.00    +0.125 C 
ATOM     12  C   UNL     1      -3.360  -0.973  -2.387  0.00  0.00    +0.029 C 
ATOM     13  C   UNL     1      -4.248  -0.387  -1.269  0.00  0.00    +0.078 C 
ENDBRANCH   5   6
ENDBRANCH   1   5
BRANCH   1  14
ATOM     14  C   UNL     1       2.368   0.060   1.312  0.00  0.00    -0.039 C 
BRANCH  14  15
ATOM     15  C   UNL     1       3.007  -0.602   2.505  0.00  0.00    +0.020 A 
ATOM     16  C   UNL     1       3.343   0.021   3.711  0.00  0.00    +0.071 A 
ATOM     17  N   UNL     1       3.875  -0.876   4.502  0.00  0.00    -0.173 NA
ATOM     18  N   UNL     1       3.896  -2.103   3.826  0.00  0.00    -0.236 N 
ATOM     19  C   UNL     1       3.353  -1.913   2.603  0.00  0.00    +0.214 A 
ATOM     20  C   UNL     1       4.411  -3.369   4.354  0.00  0.00    +0.176 C 
BRANCH  16  21
ATOM     21  C   UNL     1       3.130   1.475   4.043  0.00  0.00    +0.034 C 
ATOM     22  C   UNL     1       2.213   1.591   5.263  0.00  0.00    +0.014 C 
ATOM     23  C   UNL     1       4.477   2.130   4.354  0.00  0.00    +0.014 C 
ENDBRANCH  16  21
BRANCH  19  24
ATOM     24  O   UNL     1       3.187  -2.860   1.644  0.00  0.00    -0.480 OA
ATOM     25  C   UNL     1       4.277  -3.071   0.745  0.00  0.00    +0.279 C 
ENDBRANCH  19  24
ENDBRANCH  14  15
ENDBRANCH   1  14
TORSDOF 6
