REMARK  Name = ZINC31807315
REMARK  4 active torsions:
REMARK  status: ('A' for Active; 'I' for Inactive)
REMARK    1  A    between atoms: C_1  and  C_2
REMARK    2  A    between atoms: C_18  and  O_33
REMARK    3  A    between atoms: C_21  and  C_23
REMARK    4  A    between atoms: C_26  and  C_29
REMARK                            x       y       z     vdW  Elec       q    Type
REMARK                         _______ _______ _______ _____ _____    ______ ____
ROOT
ATOM      1  C   UNL     1       0.467   1.747  -0.271  0.00  0.00    +0.068 C 
ATOM      2  C   UNL     1       0.523   0.247  -0.138  0.00  0.00    +0.067 A 
ATOM      3  C   UNL     1       0.210  -0.676  -1.154  0.00  0.00    +0.037 A 
ATOM      4  C   UNL     1       0.380  -1.933  -0.642  0.00  0.00    +0.166 A 
ATOM      5  N   UNL     1       0.799  -1.773   0.667  0.00  0.00    -0.194 N 
ATOM      6  N   UNL     1       0.873  -0.406   0.934  0.00  0.00    -0.168 NA
ATOM      7  C   UNL     1       1.097  -2.797   1.562  0.00  0.00    +0.187 A 
ATOM      8  C   UNL     1       1.509  -2.509   2.872  0.00  0.00    +0.152 A 
ATOM      9  C   UNL     1       1.797  -3.587   3.730  0.00  0.00    +0.163 A 
ATOM     10  N   UNL     1       2.169  -3.028   4.926  0.00  0.00    -0.329 N 
ATOM     11  H   UNL     1       2.430  -3.508   5.728  0.00  0.00    +0.168 HD
ATOM     12  C   UNL     1       2.103  -1.674   4.783  0.00  0.00    +0.198 A 
ATOM     13  N   UNL     1       1.716  -1.372   3.578  0.00  0.00    -0.231 NA
ATOM     14  N   UNL     1       1.670  -4.827   3.272  0.00  0.00    -0.216 NA
ATOM     15  C   UNL     1       1.280  -5.048   2.035  0.00  0.00    +0.226 A 
ATOM     16  N   UNL     1       0.995  -4.070   1.196  0.00  0.00    -0.214 NA
ATOM     17  N   UNL     1       0.205  -3.152  -1.177  0.00  0.00    -0.197 NA
ATOM     18  C   UNL     1      -0.153  -3.616  -2.284  0.00  0.00    +0.199 C 
ATOM     19  C   UNL     1      -0.496  -2.916  -3.539  0.00  0.00    +0.165 C 
ATOM     20  S   UNL     1      -1.397  -1.383  -3.270  0.00  0.00    -0.138 S 
ATOM     21  C   UNL     1      -0.220  -0.248  -2.525  0.00  0.00    +0.112 C 
ENDROOT
BRANCH  21  22
ATOM     22  C   UNL     1      -0.853   1.117  -2.432  0.00  0.00    -0.030 A 
ATOM     23  C   UNL     1      -2.065   1.274  -1.786  0.00  0.00    +0.005 A 
ATOM     24  C   UNL     1      -2.645   2.526  -1.702  0.00  0.00    +0.012 A 
ATOM     25  C   UNL     1      -2.013   3.620  -2.262  0.00  0.00    +0.055 A 
ATOM     26  C   UNL     1      -0.800   3.463  -2.907  0.00  0.00    +0.012 A 
ATOM     27  C   UNL     1      -0.218   2.212  -2.988  0.00  0.00    +0.005 A 
BRANCH  25  28
ATOM     28  C   UNL     1      -2.646   4.985  -2.170  0.00  0.00    +0.417 C 
ATOM     29  F   UNL     1      -2.209   5.624  -1.005  0.00  0.00    -0.166 F 
ATOM     30  F   UNL     1      -2.278   5.746  -3.285  0.00  0.00    -0.166 F 
ATOM     31  F   UNL     1      -4.038   4.852  -2.136  0.00  0.00    -0.166 F 
ENDBRANCH  25  28
ENDBRANCH  21  22
BRANCH  18  32
ATOM     32  O   UNL     1      -0.239  -4.961  -2.339  0.00  0.00    -0.495 OA
ATOM     33  H   UNL     1      -0.011  -5.404  -1.510  0.00  0.00    +0.293 HD
ENDBRANCH  18  32
TORSDOF 3
