REMARK  Name = ZINC02406061
REMARK  11 active torsions:
REMARK  status: ('A' for Active; 'I' for Inactive)
REMARK    1  A    between atoms: C_1  and  N_2
REMARK    2  A    between atoms: C_5  and  C_21
REMARK    3  A    between atoms: N_7  and  C_10
REMARK    4  A    between atoms: C_10  and  C_11
REMARK    5  A    between atoms: C_14  and  S_17
REMARK    6  A    between atoms: S_17  and  N_20
REMARK    7  A    between atoms: C_21  and  C_22
REMARK    8  A    between atoms: N_24  and  C_25
REMARK    9  A    between atoms: C_28  and  C_31
REMARK   10  A    between atoms: C_31  and  O_33
REMARK   11  A    between atoms: O_33  and  C_34
REMARK                            x       y       z     vdW  Elec       q    Type
REMARK                         _______ _______ _______ _____ _____    ______ ____
ROOT
ATOM      1  C   UNL     1       0.598   1.419   0.097  0.00  0.00    +0.140 C 
ATOM      2  N   UNL     1       0.350  -0.025   0.072  0.00  0.00    -0.255 N 
ATOM      3  C   UNL     1      -0.877  -0.582   0.058  0.00  0.00    +0.242 C 
ATOM      4  O   UNL     1      -1.944  -0.005   0.063  0.00  0.00    -0.273 OA
ATOM      5  C   UNL     1      -0.647  -2.080   0.033  0.00  0.00    +0.171 C 
ATOM      6  N   UNL     1       0.821  -2.205   0.036  0.00  0.00    -0.296 N 
ATOM      7  C   UNL     1       1.313  -0.953   0.054  0.00  0.00    +0.143 C 
ATOM      8  S   UNL     1       2.986  -0.589   0.060  0.00  0.00    -0.018 S 
ENDROOT
BRANCH   6   9
ATOM      9  C   UNL     1       1.593  -3.449   0.018  0.00  0.00    +0.142 C 
BRANCH   9  10
ATOM     10  C   UNL     1       1.954  -3.796  -1.404  0.00  0.00    -0.030 A 
ATOM     11  C   UNL     1       1.103  -4.578  -2.162  0.00  0.00    +0.007 A 
ATOM     12  C   UNL     1       1.434  -4.896  -3.466  0.00  0.00    +0.029 A 
ATOM     13  C   UNL     1       2.615  -4.432  -4.012  0.00  0.00    +0.105 A 
ATOM     14  C   UNL     1       3.466  -3.649  -3.254  0.00  0.00    +0.029 A 
ATOM     15  C   UNL     1       3.133  -3.327  -1.952  0.00  0.00    +0.007 A 
BRANCH  13  16
ATOM     16  S   UNL     1       3.038  -4.838  -5.673  0.00  0.00    +0.056 S 
ATOM     17  O   UNL     1       4.452  -4.735  -5.770  0.00  0.00    -0.153 OA
ATOM     18  O   UNL     1       2.338  -6.034  -5.989  0.00  0.00    -0.153 OA
BRANCH  16  19
ATOM     19  N   UNL     1       2.410  -3.651  -6.642  0.00  0.00    -0.204 NA
ATOM     20  H   UNL     1       1.916  -2.915  -6.249  0.00  0.00    +0.144 HD
ATOM     21  H   UNL     1       2.535  -3.693  -7.603  0.00  0.00    +0.144 HD
ENDBRANCH  16  19
ENDBRANCH  13  16
ENDBRANCH   9  10
ENDBRANCH   6   9
BRANCH   5  22
ATOM     22  C   UNL     1      -1.250  -2.738   1.276  0.00  0.00    +0.128 C 
BRANCH  22  23
ATOM     23  C   UNL     1      -2.751  -2.616   1.231  0.00  0.00    +0.219 C 
ATOM     24  O   UNL     1      -3.294  -2.170   0.242  0.00  0.00    -0.275 OA
ATOM     25  N   UNL     1      -3.490  -3.001   2.290  0.00  0.00    -0.285 N 
ATOM     26  H   UNL     1      -3.062  -3.421   3.053  0.00  0.00    +0.155 HD
BRANCH  25  27
ATOM     27  C   UNL     1      -4.869  -2.798   2.289  0.00  0.00    +0.033 A 
ATOM     28  C   UNL     1      -5.588  -2.921   1.103  0.00  0.00    +0.024 A 
ATOM     29  C   UNL     1      -6.950  -2.720   1.098  0.00  0.00    +0.017 A 
ATOM     30  C   UNL     1      -7.611  -2.394   2.286  0.00  0.00    +0.059 A 
ATOM     31  C   UNL     1      -6.886  -2.272   3.475  0.00  0.00    +0.017 A 
ATOM     32  C   UNL     1      -5.525  -2.478   3.474  0.00  0.00    +0.024 A 
BRANCH  30  33
ATOM     33  C   UNL     1      -9.070  -2.178   2.284  0.00  0.00    +0.339 C 
ATOM     34  O   UNL     1      -9.698  -2.284   1.250  0.00  0.00    -0.245 OA
BRANCH  33  35
ATOM     35  O   UNL     1      -9.705  -1.863   3.430  0.00  0.00    -0.464 OA
ATOM     36  C   UNL     1     -11.119  -1.668   3.355  0.00  0.00    +0.280 C 
ENDBRANCH  33  35
ENDBRANCH  30  33
ENDBRANCH  25  27
ENDBRANCH  22  23
ENDBRANCH   5  22
TORSDOF 9
