REMARK  Name = ZINC06321089
REMARK  8 active torsions:
REMARK  status: ('A' for Active; 'I' for Inactive)
REMARK    1  A    between atoms: C_1  and  C_2
REMARK    2  A    between atoms: C_6  and  C_15
REMARK    3  A    between atoms: C_13  and  C_14
REMARK    4  A    between atoms: C_15  and  C_17
REMARK    5  A    between atoms: C_15  and  N_69
REMARK    6  A    between atoms: N_21  and  C_22
REMARK    7  A    between atoms: C_22  and  C_23
REMARK    8  A    between atoms: C_34  and  C_36
REMARK                            x       y       z     vdW  Elec       q    Type
REMARK                         _______ _______ _______ _____ _____    ______ ____
ROOT
ATOM      1  C   UNL     1       4.691   4.872  -0.299  0.00  0.00    +0.039 C 
ENDROOT
BRANCH   1   7
ATOM      2  C   UNL     1      -2.611   5.447  -1.700  0.00  0.00    +0.044 C 
ATOM      3  C   UNL     1      -1.414   4.634  -1.279  0.00  0.00    -0.047 A 
ATOM      4  C   UNL     1      -0.182   5.222  -1.225  0.00  0.00    +0.013 A 
ATOM      5  C   UNL     1       0.930   4.469  -0.835  0.00  0.00    -0.001 A 
ATOM      6  C   UNL     1       2.264   5.067  -0.766  0.00  0.00    +0.017 A 
ATOM      7  C   UNL     1       3.305   4.287  -0.381  0.00  0.00    +0.011 A 
ATOM      8  C   UNL     1       3.094   2.930  -0.057  0.00  0.00    +0.251 A 
ATOM      9  O   UNL     1       4.043   2.247   0.286  0.00  0.00    -0.268 OA
ATOM     10  N   UNL     1       1.872   2.371  -0.117  0.00  0.00    -0.322 N 
ATOM     11  H   UNL     1       1.763   1.435   0.113  0.00  0.00    +0.169 HD
ATOM     12  C   UNL     1       0.773   3.110  -0.501  0.00  0.00    +0.049 A 
ATOM     13  C   UNL     1      -0.491   2.533  -0.563  0.00  0.00    +0.030 A 
ATOM     14  C   UNL     1      -1.571   3.294  -0.955  0.00  0.00    -0.046 A 
ATOM     15  C   UNL     1      -2.939   2.665  -1.028  0.00  0.00    +0.044 C 
ENDBRANCH   1   7
BRANCH   1  23
ATOM     16  C   UNL     1       6.950   4.683  -1.152  0.00  0.00    -0.058 C 
ATOM     17  C   UNL     1       7.890   3.778  -1.954  0.00  0.00    +0.089 C 
ATOM     18  N   UNL     1       7.333   3.604  -3.304  0.00  0.00    -0.299 N 
ATOM     19  C   UNL     1       5.929   3.185  -3.429  0.00  0.00    +0.089 C 
ATOM     20  C   UNL     1       5.065   4.114  -2.568  0.00  0.00    -0.058 C 
ATOM     21  C   UNL     1       8.089   3.825  -4.398  0.00  0.00    +0.282 C 
ATOM     22  O   UNL     1       7.582   3.794  -5.504  0.00  0.00    -0.267 OA
ATOM     23  N   UNL     1       5.590   4.103  -1.185  0.00  0.00    +0.391 N 
ATOM     24  H   UNL     1       5.633   3.132  -0.854  0.00  0.00    -0.080 HD
BRANCH  21  25
ATOM     25  C   UNL     1       9.522   4.101  -4.256  0.00  0.00    +0.189 A 
ATOM     26  C   UNL     1      10.373   4.463  -5.260  0.00  0.00    +0.054 A 
ATOM     27  C   UNL     1      11.639   4.625  -4.677  0.00  0.00    +0.042 A 
ATOM     28  C   UNL     1      11.508   4.357  -3.360  0.00  0.00    +0.196 A 
ATOM     29  O   UNL     1      10.229   4.047  -3.108  0.00  0.00    -0.458 OA
ENDBRANCH  21  25
ENDBRANCH   1  23
BRANCH   1  30
ATOM     30  C   UNL     1       5.197   4.768   1.116  0.00  0.00    +0.143 A 
ATOM     31  N   UNL     1       5.624   3.684   1.718  0.00  0.00    -0.115 NA
ATOM     32  N   UNL     1       5.970   4.004   2.917  0.00  0.00    -0.023 NA
ATOM     33  N   UNL     1       5.775   5.264   3.096  0.00  0.00    -0.044 NA
ATOM     34  N   UNL     1       5.305   5.771   2.007  0.00  0.00    -0.228 N 
BRANCH  34  35
ATOM     35  C   UNL     1       4.950   7.175   1.784  0.00  0.00    +0.178 C 
BRANCH  35  36
ATOM     36  C   UNL     1       3.485   7.398   2.166  0.00  0.00    +0.140 C 
ATOM     37  C   UNL     1       3.070   8.846   1.826  0.00  0.00    +0.035 C 
ATOM     38  C   UNL     1       2.169   9.222   3.034  0.00  0.00    +0.031 C 
ATOM     39  C   UNL     1       2.870   8.446   4.177  0.00  0.00    +0.160 C 
ATOM     40  O   UNL     1       3.319   7.221   3.578  0.00  0.00    -0.375 OA
ENDBRANCH  35  36
ENDBRANCH  34  35
ENDBRANCH   1  30
TORSDOF 6
