REMARK  Name = ZINC49514058
REMARK  4 active torsions:
REMARK  status: ('A' for Active; 'I' for Inactive)
REMARK    1  A    between atoms: C_2  and  C_8
REMARK    2  A    between atoms: N_10  and  S_11
REMARK    3  A    between atoms: S_11  and  C_14
REMARK    4  A    between atoms: C_14  and  C_15
REMARK                            x       y       z     vdW  Elec       q    Type
REMARK                         _______ _______ _______ _____ _____    ______ ____
ROOT
ATOM      1  C   UNL     1       1.406   3.457   0.007  0.00  0.00    +0.297 C 
ATOM      2  O   UNL     1       0.299   4.234   0.021  0.00  0.00    -0.264 OA
ATOM      3  N   UNL     1       2.587   4.007  -0.002  0.00  0.00    -0.090 NA
ENDROOT
BRANCH   1   5
ATOM      4  C   UNL     1      -0.016   1.345   0.009  0.00  0.00    +0.042 A 
ATOM      5  C   UNL     1       1.275   1.989   0.001  0.00  0.00    +0.069 A 
ATOM      6  C   UNL     1       2.380   1.168  -0.014  0.00  0.00    +0.092 A 
ATOM      7  S   UNL     1       1.741  -0.383  -0.017  0.00  0.00    -0.064 S 
ATOM      8  C   UNL     1       0.002  -0.004   0.002  0.00  0.00    +0.080 A 
ATOM      9 CL   UNL     1      -1.342  -1.102   0.009  0.00  0.00    -0.076 Cl
ATOM     10 CL   UNL     1       4.052   1.633  -0.029  0.00  0.00    -0.075 Cl
ENDBRANCH   1   5
BRANCH   3  11
ATOM     11  S   UNL     1       2.734   5.656   0.005  0.00  0.00    +0.073 S 
ATOM     12  O   UNL     1       2.154   6.077  -1.222  0.00  0.00    -0.151 OA
ATOM     13  O   UNL     1       2.177   6.064   1.247  0.00  0.00    -0.151 OA
BRANCH  11  14
ATOM     14  C   UNL     1       4.521   5.966  -0.010  0.00  0.00    +0.196 C 
BRANCH  14  15
ATOM     15  C   UNL     1       4.777   7.474  -0.005  0.00  0.00    +0.012 C 
ATOM     16  C   UNL     1       4.250   8.085  -1.304  0.00  0.00    +0.005 C 
ATOM     17  C   UNL     1       4.506   9.594  -1.299  0.00  0.00    +0.000 C 
ATOM     18  C   UNL     1       6.009   9.855  -1.186  0.00  0.00    +0.000 C 
ATOM     19  C   UNL     1       6.537   9.244   0.113  0.00  0.00    +0.000 C 
ATOM     20  C   UNL     1       6.281   7.735   0.108  0.00  0.00    +0.005 C 
ENDBRANCH  14  15
ENDBRANCH  11  14
ENDBRANCH   3  11
TORSDOF 4
