REMARK  Name = ZINC00795659
REMARK  6 active torsions:
REMARK  status: ('A' for Active; 'I' for Inactive)
REMARK    1  A    between atoms: C_1  and  O_2
REMARK    2  A    between atoms: O_2  and  C_3
REMARK    3  A    between atoms: C_6  and  C_10
REMARK    4  A    between atoms: C_8  and  O_9
REMARK    5  A    between atoms: C_22  and  C_27
REMARK    6  A    between atoms: C_27  and  C_29
REMARK                            x       y       z     vdW  Elec       q    Type
REMARK                         _______ _______ _______ _____ _____    ______ ____
ROOT
ATOM      1  C   UNL     1      -0.073   0.821   0.148  0.00  0.00    +0.136 C 
ATOM      2  C   UNL     1       1.372   1.245   0.272  0.00  0.00    +0.036 C 
ATOM      3  C   UNL     1       1.862   2.118   1.166  0.00  0.00    +0.017 C 
ATOM      4  C   UNL     1       3.339   2.479   1.157  0.00  0.00    +0.051 C 
ATOM      5  C   UNL     1       4.166   1.274   0.712  0.00  0.00    +0.014 C 
ATOM      6  C   UNL     1       3.707   0.888  -0.699  0.00  0.00    +0.080 C 
ATOM      7  C   UNL     1       2.231   0.624  -0.665  0.00  0.00    +0.163 C 
ATOM      8  O   UNL     1       1.756  -0.152  -1.472  0.00  0.00    -0.292 OA
ATOM      9  N   UNL     1       1.136   2.744   2.128  0.00  0.00    -0.316 N 
ATOM     10  C   UNL     1      -0.087   3.373   1.914  0.00  0.00    +0.053 A 
ATOM     11  C   UNL     1      -0.258   4.729   2.093  0.00  0.00    +0.036 A 
ATOM     12  C   UNL     1      -1.529   5.289   1.908  0.00  0.00    +0.024 A 
ATOM     13  C   UNL     1      -2.605   4.471   1.547  0.00  0.00    +0.013 A 
ATOM     14  C   UNL     1      -2.418   3.120   1.353  0.00  0.00    +0.025 A 
ATOM     15  C   UNL     1      -1.150   2.570   1.515  0.00  0.00    +0.049 A 
ATOM     16  N   UNL     1      -0.911   1.230   1.254  0.00  0.00    -0.331 N 
ATOM     17  H   UNL     1       1.495   2.753   3.029  0.00  0.00    +0.152 HD
ATOM     18  H   UNL     1      -1.313   0.555   1.822  0.00  0.00    +0.147 HD
ENDROOT
BRANCH   1  22
ATOM     19  C   UNL     1      -1.671   2.499  -3.447  0.00  0.00    +0.161 A 
ATOM     20  C   UNL     1      -1.237   3.328  -2.425  0.00  0.00    +0.050 A 
ATOM     21  C   UNL     1      -0.722   2.783  -1.264  0.00  0.00    +0.009 A 
ATOM     22  C   UNL     1      -0.637   1.411  -1.120  0.00  0.00    -0.019 A 
ATOM     23  C   UNL     1      -1.063   0.578  -2.138  0.00  0.00    +0.055 A 
ATOM     24  C   UNL     1      -1.586   1.118  -3.301  0.00  0.00    +0.159 A 
BRANCH  19  26
ATOM     25  C   UNL     1      -2.235   4.460  -4.669  0.00  0.00    +0.277 C 
ATOM     26  O   UNL     1      -2.178   3.034  -4.590  0.00  0.00    -0.491 OA
ENDBRANCH  19  26
BRANCH  24  27
ATOM     27  O   UNL     1      -2.011   0.300  -4.302  0.00  0.00    -0.503 OA
ATOM     28  H   UNL     1      -1.324   0.076  -4.944  0.00  0.00    +0.292 HD
ENDBRANCH  24  27
ENDBRANCH   1  22
BRANCH  12  29
ATOM     29  C   UNL     1      -1.731   6.737   2.092  0.00  0.00    +0.193 C 
ATOM     30  O   UNL     1      -2.672   7.292   1.558  0.00  0.00    -0.287 OA
BRANCH  29  31
ATOM     31  C   UNL     1      -0.792   7.514   2.928  0.00  0.00    +0.022 A 
ATOM     32  C   UNL     1      -0.028   6.873   3.905  0.00  0.00    +0.012 A 
ATOM     33  C   UNL     1       0.851   7.603   4.678  0.00  0.00    +0.001 A 
ATOM     34  C   UNL     1       0.968   8.970   4.494  0.00  0.00    +0.000 A 
ATOM     35  C   UNL     1       0.210   9.612   3.531  0.00  0.00    +0.001 A 
ATOM     36  C   UNL     1      -0.668   8.893   2.747  0.00  0.00    +0.012 A 
ENDBRANCH  29  31
ENDBRANCH  12  29
TORSDOF 5
