REMARK  Name = ZINC16996685
REMARK  13 active torsions:
REMARK  status: ('A' for Active; 'I' for Inactive)
REMARK    1  A    between atoms: C_1  and  C_2
REMARK    2  A    between atoms: C_2  and  C_3
REMARK    3  A    between atoms: C_4  and  C_34
REMARK    4  A    between atoms: N_10  and  C_27
REMARK    5  A    between atoms: C_11  and  S_13
REMARK    6  A    between atoms: S_13  and  C_14
REMARK    7  A    between atoms: C_14  and  C_16
REMARK    8  A    between atoms: C_14  and  C_17
REMARK    9  A    between atoms: N_22  and  C_23
REMARK   10  A    between atoms: C_23  and  C_24
REMARK   11  A    between atoms: C_23  and  C_25
REMARK   12  A    between atoms: C_23  and  C_26
REMARK   13  A    between atoms: C_27  and  C_28
REMARK                            x       y       z     vdW  Elec       q    Type
REMARK                         _______ _______ _______ _____ _____    ______ ____
ROOT
ATOM      1  C   UNL     1      -3.473   0.683  -3.620  0.00  0.00    -0.023 A 
ATOM      2  C   UNL     1      -3.975   1.317  -4.690  0.00  0.00    -0.007 A 
ATOM      3  S   UNL     1      -3.016   2.817  -4.771  0.00  0.00    -0.073 S 
ATOM      4  C   UNL     1      -1.967   2.550  -3.365  0.00  0.00    +0.117 A 
ATOM      5  C   UNL     1      -2.392   1.302  -2.872  0.00  0.00    +0.076 A 
ATOM      6  C   UNL     1      -1.701   0.821  -1.716  0.00  0.00    +0.263 A 
ATOM      7  O   UNL     1      -1.997  -0.253  -1.221  0.00  0.00    -0.267 OA
ATOM      8  N   UNL     1      -0.721   1.571  -1.179  0.00  0.00    -0.285 N 
ATOM      9  C   UNL     1      -0.372   2.773  -1.722  0.00  0.00    +0.173 A 
ATOM     10  N   UNL     1      -0.989   3.238  -2.790  0.00  0.00    -0.216 NA
ATOM     11  C   UNL     1      -5.086   0.868  -5.605  0.00  0.00    +0.052 C 
ENDROOT
BRANCH   1  13
ATOM     12  C   UNL     1      -5.173  -0.447  -2.212  0.00  0.00    +0.009 C 
ATOM     13  C   UNL     1      -4.023  -0.655  -3.199  0.00  0.00    +0.033 C 
ENDBRANCH   1  13
BRANCH   9  14
ATOM     14  S   UNL     1       0.923   3.716  -0.987  0.00  0.00    -0.075 S 
BRANCH  14  15
ATOM     15  C   UNL     1       0.936   5.148  -2.094  0.00  0.00    +0.137 C 
ATOM     16  C   UNL     1       1.358   4.705  -3.496  0.00  0.00    +0.029 C 
BRANCH  15  17
ATOM     17  C   UNL     1       1.911   6.174  -1.576  0.00  0.00    +0.233 C 
ATOM     18  O   UNL     1       2.837   5.830  -0.874  0.00  0.00    -0.274 OA
ATOM     19  N   UNL     1       1.753   7.474  -1.894  0.00  0.00    -0.239 N 
ATOM     20  C   UNL     1       2.625   8.392  -1.431  0.00  0.00    +0.306 C 
ATOM     21  O   UNL     1       3.554   8.047  -0.727  0.00  0.00    -0.252 OA
ATOM     22  N   UNL     1       2.467   9.692  -1.749  0.00  0.00    -0.294 N 
ATOM     23  H   UNL     1       1.012   7.750  -2.456  0.00  0.00    +0.159 HD
ATOM     24  H   UNL     1       1.726   9.968  -2.311  0.00  0.00    +0.151 HD
BRANCH  22  25
ATOM     25  C   UNL     1       3.415  10.690  -1.246  0.00  0.00    +0.028 C 
ATOM     26  C   UNL     1       4.821  10.355  -1.746  0.00  0.00    +0.031 C 
ATOM     27  C   UNL     1       3.011  12.077  -1.750  0.00  0.00    +0.031 C 
ATOM     28  C   UNL     1       3.402  10.679   0.284  0.00  0.00    +0.031 C 
ENDBRANCH  22  25
ENDBRANCH  15  17
ENDBRANCH  14  15
ENDBRANCH   9  14
BRANCH   8  29
ATOM     29  C   UNL     1      -0.013   1.086   0.008  0.00  0.00    +0.159 C 
BRANCH  29  30
ATOM     30  C   UNL     1      -0.729   1.579   1.267  0.00  0.00    +0.138 C 
ATOM     31  C   UNL     1       0.074   1.170   2.520  0.00  0.00    +0.035 C 
ATOM     32  C   UNL     1      -1.050   0.776   3.518  0.00  0.00    +0.031 C 
ATOM     33  C   UNL     1      -2.099   0.169   2.553  0.00  0.00    +0.160 C 
ATOM     34  O   UNL     1      -2.021   0.968   1.362  0.00  0.00    -0.375 OA
ENDBRANCH  29  30
ENDBRANCH   8  29
TORSDOF 7
