REMARK  Name = ZINC62241931
REMARK  9 active torsions:
REMARK  status: ('A' for Active; 'I' for Inactive)
REMARK    1  A    between atoms: C_1  and  C_2
REMARK    2  A    between atoms: C_3  and  O_27
REMARK    3  A    between atoms: C_12  and  C_13
REMARK    4  A    between atoms: C_13  and  N_14
REMARK    5  A    between atoms: N_14  and  C_15
REMARK    6  A    between atoms: C_18  and  N_21
REMARK    7  A    between atoms: N_21  and  C_22
REMARK    8  A    between atoms: C_23  and  O_25
REMARK    9  A    between atoms: O_25  and  C_26
REMARK                            x       y       z     vdW  Elec       q    Type
REMARK                         _______ _______ _______ _____ _____    ______ ____
ROOT
ATOM      1  C   UNL     1       0.059  -4.348   2.518  0.00  0.00    +0.137 C 
ENDROOT
BRANCH   1  13
ATOM      2  C   UNL     1       0.072   1.486   0.014  0.00  0.00    +0.051 C 
ATOM      3  C   UNL     1       0.094  -0.021   0.019  0.00  0.00    +0.034 A 
ATOM      4  C   UNL     1       0.150  -0.719  -1.177  0.00  0.00    +0.123 A 
ATOM      5  C   UNL     1       0.171  -2.112  -1.183  0.00  0.00    +0.046 A 
ATOM      6  C   UNL     1       0.136  -2.809  -0.010  0.00  0.00    +0.015 A 
ATOM      7  C   UNL     1       0.079  -2.120   1.207  0.00  0.00    +0.023 A 
ATOM      8  C   UNL     1       0.063  -0.713   1.220  0.00  0.00    +0.146 A 
ATOM      9  O   UNL     1       0.014  -0.052   2.396  0.00  0.00    -0.422 OA
ATOM     10  C   UNL     1      -0.016  -0.707   3.567  0.00  0.00    +0.338 A 
ATOM     11  O   UNL     1      -0.061  -0.069   4.603  0.00  0.00    -0.245 OA
ATOM     12  C   UNL     1       0.002  -2.116   3.628  0.00  0.00    +0.097 A 
ATOM     13  C   UNL     1       0.040  -2.842   2.480  0.00  0.00    -0.013 A 
BRANCH   4  14
ATOM     14  O   UNL     1       0.186  -0.040  -2.352  0.00  0.00    -0.506 OA
ATOM     15  H   UNL     1       1.079   0.170  -2.658  0.00  0.00    +0.292 HD
ENDBRANCH   4  14
ENDBRANCH   1  13
BRANCH   1  16
ATOM     16  N   UNL     1      -1.304  -4.859   2.356  0.00  0.00    -0.340 N 
ATOM     17  H   UNL     1      -2.044  -4.240   2.248  0.00  0.00    +0.146 HD
BRANCH  16  18
ATOM     18  C   UNL     1      -1.540  -6.238   2.358  0.00  0.00    +0.027 A 
ATOM     19  C   UNL     1      -0.482  -7.123   2.519  0.00  0.00    +0.025 A 
ATOM     20  C   UNL     1      -0.715  -8.484   2.521  0.00  0.00    +0.025 A 
ATOM     21  C   UNL     1      -2.006  -8.967   2.363  0.00  0.00    +0.039 A 
ATOM     22  C   UNL     1      -3.064  -8.083   2.202  0.00  0.00    +0.025 A 
ATOM     23  C   UNL     1      -2.833  -6.722   2.205  0.00  0.00    +0.025 A 
BRANCH  21  24
ATOM     24  N   UNL     1      -2.242 -10.349   2.365  0.00  0.00    -0.240 N 
ATOM     25  C   UNL     1      -2.991 -10.963   3.464  0.00  0.00    +0.142 C 
ATOM     26  C   UNL     1      -1.780 -11.113   1.355  0.00  0.00    +0.407 C 
ATOM     27  O   UNL     1      -1.081 -10.621   0.492  0.00  0.00    -0.226 OA
BRANCH  26  28
ATOM     28  O   UNL     1      -2.093 -12.422   1.304  0.00  0.00    -0.453 OA
ATOM     29  C   UNL     1      -1.569 -13.172   0.206  0.00  0.00    +0.282 C 
ENDBRANCH  26  28
ENDBRANCH  21  24
ENDBRANCH  16  18
ENDBRANCH   1  16
TORSDOF 6
