REMARK  Name = ZINC00434807
REMARK  3 active torsions:
REMARK  status: ('A' for Active; 'I' for Inactive)
REMARK    1  A    between atoms: C_9  and  C_12
REMARK    2  A    between atoms: N_13  and  N_14
REMARK    3  A    between atoms: C_15  and  C_17
REMARK                            x       y       z     vdW  Elec       q    Type
REMARK                         _______ _______ _______ _____ _____    ______ ____
ROOT
ATOM      1  C   UNL     1       7.170  -3.060   3.861  0.00  0.00    +0.145 C 
ATOM      2  N   UNL     1       6.772  -1.935   3.349  0.00  0.00    -0.187 NA
ENDROOT
BRANCH   1  11
ATOM      3  C   UNL     1      12.928  -1.414   5.687  0.00  0.00    +0.001 A 
ATOM      4  C   UNL     1      13.236  -2.665   6.202  0.00  0.00    +0.004 A 
ATOM      5  C   UNL     1      12.319  -3.693   6.150  0.00  0.00    +0.047 A 
ATOM      6  C   UNL     1      11.069  -3.482   5.576  0.00  0.00    +0.138 A 
ATOM      7  C   UNL     1      10.761  -2.215   5.056  0.00  0.00    +0.065 A 
ATOM      8  C   UNL     1      11.697  -1.183   5.115  0.00  0.00    +0.015 A 
ATOM      9  C   UNL     1       9.431  -2.009   4.451  0.00  0.00    +0.201 A 
ATOM     10  O   UNL     1       9.102  -0.933   3.982  0.00  0.00    -0.286 OA
ATOM     11  C   UNL     1       8.519  -3.168   4.442  0.00  0.00    +0.077 A 
ATOM     12  C   UNL     1       8.950  -4.341   4.989  0.00  0.00    +0.209 A 
ATOM     13  O   UNL     1      10.165  -4.480   5.521  0.00  0.00    -0.462 OA
ENDBRANCH   1  11
BRANCH   2  14
ATOM     14  N   UNL     1       5.489  -1.831   2.796  0.00  0.00    -0.203 N 
ATOM     15  C   UNL     1       5.076  -0.664   2.265  0.00  0.00    +0.263 C 
ATOM     16  O   UNL     1       5.817   0.301   2.265  0.00  0.00    -0.268 OA
ATOM     17  H   UNL     1       4.898  -2.600   2.796  0.00  0.00    +0.178 HD
BRANCH  15  18
ATOM     18  C   UNL     1       3.724  -0.555   1.683  0.00  0.00    +0.042 A 
ATOM     19  C   UNL     1       2.871  -1.662   1.681  0.00  0.00    +0.017 A 
ATOM     20  C   UNL     1       1.609  -1.558   1.138  0.00  0.00    +0.050 A 
ATOM     21  C   UNL     1       1.181  -0.356   0.590  0.00  0.00    +0.166 A 
ATOM     22  C   UNL     1       2.028   0.752   0.588  0.00  0.00    +0.167 A 
ATOM     23  C   UNL     1       3.294   0.655   1.132  0.00  0.00    +0.062 A 
ATOM     24  O   UNL     1       1.376   1.797  -0.001  0.00  0.00    -0.453 OA
ATOM     25  C   UNL     1      -0.017   1.435   0.010  0.00  0.00    +0.466 C 
ATOM     26  O   UNL     1       0.002  -0.004   0.002  0.00  0.00    -0.453 OA
ENDBRANCH  15  18
ENDBRANCH   2  14
TORSDOF 3
