REMARK  Name = ZINC00802961
REMARK  6 active torsions:
REMARK  status: ('A' for Active; 'I' for Inactive)
REMARK    1  A    between atoms: C_4  and  N_7
REMARK    2  A    between atoms: N_7  and  S_8
REMARK    3  A    between atoms: S_8  and  C_11
REMARK    4  A    between atoms: C_14  and  N_17
REMARK    5  A    between atoms: N_17  and  S_18
REMARK    6  A    between atoms: S_18  and  C_21
REMARK                            x       y       z     vdW  Elec       q    Type
REMARK                         _______ _______ _______ _____ _____    ______ ____
ROOT
ATOM      1  C   UNL     1       4.805   2.329  -4.129  0.00  0.00    +0.109 A 
ATOM      2  C   UNL     1       5.425   1.099  -4.014  0.00  0.00    +0.030 A 
ATOM      3  C   UNL     1       5.098   0.253  -2.972  0.00  0.00    +0.026 A 
ATOM      4  C   UNL     1       4.145   0.641  -2.039  0.00  0.00    +0.048 A 
ATOM      5  C   UNL     1       3.520   1.876  -2.160  0.00  0.00    +0.026 A 
ATOM      6  C   UNL     1       3.856   2.718  -3.201  0.00  0.00    +0.030 A 
ENDROOT
BRANCH   1   7
ATOM      7  S   UNL     1       5.224   3.404  -5.460  0.00  0.00    +0.072 S 
ATOM      8  O   UNL     1       4.787   4.704  -5.087  0.00  0.00    -0.150 OA
ATOM      9  O   UNL     1       6.576   3.123  -5.799  0.00  0.00    -0.150 OA
BRANCH   7  10
ATOM     10  N   UNL     1       4.307   2.952  -6.763  0.00  0.00    -0.216 N 
ATOM     11  H   UNL     1       4.736   2.615  -7.565  0.00  0.00    +0.174 HD
BRANCH  10  15
ATOM     12  C   UNL     1       0.158   3.263  -6.595  0.00  0.00    +0.000 A 
ATOM     13  C   UNL     1       0.930   4.402  -6.735  0.00  0.00    +0.002 A 
ATOM     14  C   UNL     1       2.306   4.302  -6.791  0.00  0.00    +0.024 A 
ATOM     15  C   UNL     1       2.915   3.057  -6.706  0.00  0.00    +0.048 A 
ATOM     16  C   UNL     1       2.136   1.914  -6.571  0.00  0.00    +0.024 A 
ATOM     17  C   UNL     1       0.761   2.021  -6.511  0.00  0.00    +0.002 A 
ENDBRANCH  10  15
ENDBRANCH   7  10
ENDBRANCH   1   7
BRANCH   4  18
ATOM     18  N   UNL     1       3.811  -0.212  -0.984  0.00  0.00    -0.216 N 
ATOM     19  H   UNL     1       2.966  -0.686  -0.993  0.00  0.00    +0.174 HD
BRANCH  18  20
ATOM     20  S   UNL     1       4.860  -0.411   0.282  0.00  0.00    +0.072 S 
ATOM     21  O   UNL     1       6.128  -0.711  -0.284  0.00  0.00    -0.150 OA
ATOM     22  O   UNL     1       4.217  -1.275   1.210  0.00  0.00    -0.150 OA
BRANCH  20  23
ATOM     23  C   UNL     1       5.020   1.153   1.078  0.00  0.00    +0.112 A 
ATOM     24  C   UNL     1       4.097   1.539   2.032  0.00  0.00    +0.032 A 
ATOM     25  C   UNL     1       4.218   2.766   2.657  0.00  0.00    +0.051 A 
ATOM     26  C   UNL     1       5.267   3.612   2.329  0.00  0.00    +0.162 A 
ATOM     27  C   UNL     1       6.196   3.223   1.372  0.00  0.00    +0.164 A 
ATOM     28  C   UNL     1       6.068   1.991   0.748  0.00  0.00    +0.078 A 
ATOM     29  O   UNL     1       7.237   4.034   1.041  0.00  0.00    -0.485 OA
ATOM     30  C   UNL     1       7.123   5.412   1.413  0.00  0.00    +0.270 C 
ATOM     31  C   UNL     1       6.638   5.478   2.868  0.00  0.00    +0.270 C 
ATOM     32  O   UNL     1       5.368   4.821   2.947  0.00  0.00    -0.485 OA
ENDBRANCH  20  23
ENDBRANCH  18  20
ENDBRANCH   4  18
TORSDOF 6
