REMARK  Name = ZINC03902440
REMARK  3 active torsions:
REMARK  status: ('A' for Active; 'I' for Inactive)
REMARK    1  A    between atoms: C_1  and  C_2
REMARK    2  A    between atoms: C_10  and  O_25
REMARK    3  A    between atoms: C_21  and  O_23
REMARK                            x       y       z     vdW  Elec       q    Type
REMARK                         _______ _______ _______ _____ _____    ______ ____
ROOT
ATOM      1  C   UNL     1       0.602   3.673   1.425  0.00  0.00    +0.014 C 
ATOM      2  C   UNL     1      -0.793   3.071   1.276  0.00  0.00    -0.003 C 
ATOM      3  C   UNL     1      -0.722   1.562   1.222  0.00  0.00    +0.010 C 
ATOM      4  C   UNL     1      -0.026   1.143  -0.080  0.00  0.00    +0.009 C 
ATOM      5  C   UNL     1      -0.765   1.669  -1.307  0.00  0.00    +0.023 C 
ATOM      6  C   UNL     1      -0.030   1.251  -2.555  0.00  0.00    -0.040 A 
ATOM      7  C   UNL     1      -0.030  -0.102  -2.872  0.00  0.00    +0.008 A 
ATOM      8  C   UNL     1       0.617  -0.561  -3.999  0.00  0.00    +0.047 A 
ATOM      9  C   UNL     1       1.273   0.337  -4.828  0.00  0.00    +0.131 A 
ATOM     10  C   UNL     1       1.273   1.686  -4.514  0.00  0.00    +0.063 A 
ATOM     11  C   UNL     1       0.623   2.144  -3.376  0.00  0.00    -0.026 A 
ATOM     12  C   UNL     1       0.664   3.624  -3.088  0.00  0.00    +0.037 C 
ATOM     13  C   UNL     1       0.392   3.860  -1.596  0.00  0.00    +0.009 C 
ATOM     14  C   UNL     1      -0.934   3.190  -1.261  0.00  0.00    +0.000 C 
ATOM     15  C   UNL     1      -1.551   3.590   0.038  0.00  0.00    +0.001 C 
ATOM     16  C   UNL     1      -1.706   5.078   0.366  0.00  0.00    +0.007 C 
ATOM     17  C   UNL     1      -2.075   5.051   1.877  0.00  0.00    +0.032 C 
ATOM     18  C   UNL     1      -1.670   3.650   2.403  0.00  0.00    +0.121 C 
ATOM     19 BR   UNL     1       2.167   2.909  -5.646  0.00  0.00    -0.046 Br
ENDROOT
BRANCH  18  20
ATOM     20  O   UNL     1      -0.907   3.764   3.602  0.00  0.00    -0.391 OA
ATOM     21  H   UNL     1      -1.403   4.123   4.351  0.00  0.00    +0.210 HD
ENDBRANCH  18  20
BRANCH   9  22
ATOM     22  O   UNL     1       1.912  -0.104  -5.943  0.00  0.00    -0.506 OA
ATOM     23  H   UNL     1       2.838  -0.341  -5.798  0.00  0.00    +0.292 HD
ENDBRANCH   9  22
TORSDOF 2
