REMARK  Name = ZINC63384116
REMARK  8 active torsions:
REMARK  status: ('A' for Active; 'I' for Inactive)
REMARK    1  A    between atoms: C_1  and  C_2
REMARK    2  A    between atoms: C_2  and  C_4
REMARK    3  A    between atoms: C_2  and  N_12
REMARK    4  A    between atoms: C_4  and  C_5
REMARK    5  A    between atoms: C_5  and  C_6
REMARK    6  A    between atoms: C_15  and  C_22
REMARK    7  A    between atoms: C_29  and  O_34
REMARK    8  A    between atoms: O_34  and  C_35
REMARK                            x       y       z     vdW  Elec       q    Type
REMARK                         _______ _______ _______ _____ _____    ______ ____
ROOT
ATOM      1  N   UNL     1       0.688  -0.476  -1.203  0.00  0.00    -0.258 N 
ATOM      2  C   UNL     1       1.792  -1.241  -1.089  0.00  0.00    +0.262 A 
ATOM      3  O   UNL     1       2.219  -1.540   0.013  0.00  0.00    -0.267 OA
ATOM      4  C   UNL     1       2.446  -1.693  -2.248  0.00  0.00    +0.070 A 
ATOM      5  C   UNL     1       1.947  -1.345  -3.469  0.00  0.00    +0.259 A 
ATOM      6  N   UNL     1       0.821  -0.565  -3.540  0.00  0.00    -0.275 N 
ATOM      7  H   UNL     1       0.462  -0.315  -4.406  0.00  0.00    +0.173 HD
ATOM      8  C   UNL     1       0.208  -0.148  -2.417  0.00  0.00    +0.332 A 
ATOM      9  O   UNL     1      -0.792   0.538  -2.500  0.00  0.00    -0.246 OA
ATOM     10  O   UNL     1       2.556  -1.765  -4.598  0.00  0.00    -0.267 OA
ENDROOT
BRANCH   4  11
ATOM     11  C   UNL     1       3.682  -2.549  -2.144  0.00  0.00    -0.003 C 
ATOM     12  C   UNL     1       3.329  -3.887  -1.491  0.00  0.00    +0.097 C 
ATOM     13  C   UNL     1       4.649  -4.622  -1.288  0.00  0.00    -0.041 C 
ATOM     14  C   UNL     1       4.508  -5.809  -1.858  0.00  0.00    +0.002 A 
ATOM     15  C   UNL     1       5.391  -6.985  -1.918  0.00  0.00    +0.055 A 
ATOM     16  C   UNL     1       4.932  -8.060  -2.615  0.00  0.00    +0.121 A 
ATOM     17  C   UNL     1       3.689  -8.101  -3.264  0.00  0.00    +0.047 A 
ATOM     18  C   UNL     1       2.796  -7.078  -3.268  0.00  0.00    +0.029 A 
ATOM     19  C   UNL     1       3.177  -5.861  -2.540  0.00  0.00    +0.043 A 
ATOM     20  N   UNL     1       2.512  -4.739  -2.353  0.00  0.00    -0.379 N 
ATOM     21  C   UNL     1       5.833  -3.949  -0.637  0.00  0.00    +0.014 C 
ATOM     22  C   UNL     1       5.970  -2.574  -1.316  0.00  0.00    -0.077 C 
ATOM     23  N   UNL     1       4.684  -1.872  -1.306  0.00  0.00    +0.386 N 
ATOM     24  H   UNL     1       4.819  -0.933  -1.649  0.00  0.00    -0.085 HD
ATOM     25  H   UNL     1       1.643  -4.511  -2.719  0.00  0.00    +0.160 HD
ATOM     26  H   UNL     1       4.342  -1.828  -0.357  0.00  0.00    -0.085 HD
BRANCH  16  27
ATOM     27  O   UNL     1       5.726  -9.160  -2.688  0.00  0.00    -0.495 OA
ATOM     28  C   UNL     1       5.222 -10.276  -3.426  0.00  0.00    +0.277 C 
ENDBRANCH  16  27
ENDBRANCH   4  11
BRANCH   1  30
ATOM     29  C   UNL     1      -0.019   1.526   0.010  0.00  0.00    +0.031 C 
ATOM     30  C   UNL     1       0.002  -0.004   0.002  0.00  0.00    +0.092 C 
BRANCH  30  31
ATOM     31  C   UNL     1      -1.433  -0.534   0.013  0.00  0.00    +0.030 C 
BRANCH  31  32
ATOM     32  C   UNL     1      -1.413  -2.059   0.130  0.00  0.00    +0.037 C 
BRANCH  32  33
ATOM     33  C   UNL     1      -2.827  -2.581   0.141  0.00  0.00    -0.047 A 
ATOM     34  C   UNL     1      -3.502  -2.723   1.339  0.00  0.00    +0.003 A 
ATOM     35  C   UNL     1      -4.799  -3.201   1.349  0.00  0.00    +0.000 A 
ATOM     36  C   UNL     1      -5.421  -3.537   0.161  0.00  0.00    +0.000 A 
ATOM     37  C   UNL     1      -4.746  -3.394  -1.037  0.00  0.00    +0.000 A 
ATOM     38  C   UNL     1      -3.451  -2.911  -1.048  0.00  0.00    +0.003 A 
ENDBRANCH  32  33
ENDBRANCH  31  32
ENDBRANCH  30  31
ENDBRANCH   1  30
TORSDOF 6
