REMARK  Name = ZINC28444198
REMARK  4 active torsions:
REMARK  status: ('A' for Active; 'I' for Inactive)
REMARK    1  A    between atoms: C_4  and  C_7
REMARK    2  A    between atoms: C_11  and  C_28
REMARK    3  A    between atoms: C_12  and  O_13
REMARK    4  A    between atoms: C_17  and  C_18
REMARK                            x       y       z     vdW  Elec       q    Type
REMARK                         _______ _______ _______ _____ _____    ______ ____
ROOT
ATOM      1  C   UNL     1      -2.775   7.043  -2.509  0.00  0.00    +0.021 C 
ATOM      2  C   UNL     1      -3.584   6.134  -1.576  0.00  0.00    -0.061 C 
ATOM      3  N   UNL     1      -3.795   6.830  -0.297  0.00  0.00    +0.395 N 
ATOM      4  C   UNL     1      -4.595   8.048  -0.496  0.00  0.00    -0.061 C 
ATOM      5  C   UNL     1      -3.816   9.013  -1.397  0.00  0.00    +0.021 C 
ATOM      6  C   UNL     1      -3.569   8.333  -2.749  0.00  0.00    +0.134 C 
ATOM      7  C   UNL     1      -2.462   9.314  -0.742  0.00  0.00    +0.095 C 
ATOM      8  N   UNL     1      -1.741   8.049  -0.535  0.00  0.00    -0.308 NA
ATOM      9  C   UNL     1      -1.451   7.399  -1.822  0.00  0.00    +0.095 C 
ATOM     10  C   UNL     1      -2.509   7.150   0.339  0.00  0.00    +0.050 C 
ATOM     11  H   UNL     1      -4.351   6.158   0.373  0.00  0.00    -0.079 HD
ENDROOT
BRANCH  10  12
ATOM     12  C   UNL     1      -1.730   5.880   0.563  0.00  0.00    +0.017 A 
ATOM     13  C   UNL     1      -2.272   4.672   0.787  0.00  0.00    +0.030 A 
ATOM     14  C   UNL     1      -1.163   3.728   0.950  0.00  0.00    -0.000 A 
ATOM     15  C   UNL     1      -1.084   2.356   1.193  0.00  0.00    +0.010 A 
ATOM     16  C   UNL     1       0.138   1.755   1.299  0.00  0.00    +0.001 A 
ATOM     17  C   UNL     1       1.303   2.495   1.154  0.00  0.00    +0.002 A 
ATOM     18  C   UNL     1       1.249   3.850   0.908  0.00  0.00    +0.026 A 
ATOM     19  C   UNL     1       0.015   4.484   0.803  0.00  0.00    +0.047 A 
ATOM     20  N   UNL     1      -0.365   5.787   0.569  0.00  0.00    -0.358 N 
ATOM     21  H   UNL     1       0.249   6.684   0.401  0.00  0.00    +0.166 HD
ENDBRANCH  10  12
BRANCH   1  25
ATOM     22  C   UNL     1      -2.012   5.039  -6.204  0.00  0.00    +0.000 A 
ATOM     23  C   UNL     1      -1.500   6.304  -5.985  0.00  0.00    +0.000 A 
ATOM     24  C   UNL     1      -1.747   6.953  -4.790  0.00  0.00    +0.004 A 
ATOM     25  C   UNL     1      -2.506   6.336  -3.813  0.00  0.00    -0.039 A 
ATOM     26  C   UNL     1      -3.013   5.068  -4.029  0.00  0.00    +0.004 A 
ATOM     27  C   UNL     1      -2.770   4.421  -5.226  0.00  0.00    +0.000 A 
ENDBRANCH   1  25
BRANCH   5  28
ATOM     28  C   UNL     1      -4.595  10.290  -1.581  0.00  0.00    -0.039 A 
ATOM     29  C   UNL     1      -5.830  10.439  -0.979  0.00  0.00    +0.004 A 
ATOM     30  C   UNL     1      -6.542  11.612  -1.144  0.00  0.00    +0.000 A 
ATOM     31  C   UNL     1      -6.024  12.633  -1.919  0.00  0.00    +0.000 A 
ATOM     32  C   UNL     1      -4.791  12.481  -2.526  0.00  0.00    +0.000 A 
ATOM     33  C   UNL     1      -4.076  11.310  -2.357  0.00  0.00    +0.004 A 
ENDBRANCH   5  28
BRANCH   6  34
ATOM     34  O   UNL     1      -4.820   8.019  -3.364  0.00  0.00    -0.390 OA
ATOM     35  H   UNL     1      -5.528   8.823  -3.613  0.00  0.00    +0.210 HD
ENDBRANCH   6  34
TORSDOF 4
