REMARK  Name = ZINC01078277
REMARK  4 active torsions:
REMARK  status: ('A' for Active; 'I' for Inactive)
REMARK    1  A    between atoms: C_1  and  O_2
REMARK    2  A    between atoms: O_2  and  C_3
REMARK    3  A    between atoms: C_6  and  C_9
REMARK    4  A    between atoms: C_14  and  C_19
REMARK                            x       y       z     vdW  Elec       q    Type
REMARK                         _______ _______ _______ _____ _____    ______ ____
ROOT
ATOM      1  C   UNL     1       1.145   3.727  -0.016  0.00  0.00    +0.156 C 
ATOM      2  C   UNL     1       1.130   2.215   0.003  0.00  0.00    +0.039 C 
ATOM      3  C   UNL     1      -0.018   1.507   0.010  0.00  0.00    +0.020 C 
ATOM      4  C   UNL     1       0.002  -0.004   0.002  0.00  0.00    +0.063 C 
ATOM      5  C   UNL     1       1.246  -0.506   0.739  0.00  0.00    +0.068 C 
ATOM      6  C   UNL     1       2.483   0.066   0.038  0.00  0.00    +0.091 C 
ATOM      7  C   UNL     1       2.378   1.565   0.007  0.00  0.00    +0.164 C 
ATOM      8  O   UNL     1       3.395   2.230  -0.014  0.00  0.00    -0.292 OA
ATOM      9  N   UNL     1      -1.249   2.118   0.031  0.00  0.00    -0.288 N 
ATOM     10  C   UNL     1      -1.308   3.466   0.337  0.00  0.00    +0.202 A 
ATOM     11  N   UNL     1      -0.175   4.250   0.324  0.00  0.00    -0.300 N 
ATOM     12  C   UNL     1      -0.556   5.514   0.670  0.00  0.00    +0.071 A 
ATOM     13  C   UNL     1       0.146   6.704   0.822  0.00  0.00    +0.028 A 
ATOM     14  C   UNL     1      -0.582   7.824   1.191  0.00  0.00    +0.002 A 
ATOM     15  C   UNL     1      -1.949   7.773   1.404  0.00  0.00    +0.002 A 
ATOM     16  C   UNL     1      -2.670   6.601   1.261  0.00  0.00    +0.030 A 
ATOM     17  C   UNL     1      -1.956   5.457   0.888  0.00  0.00    +0.091 A 
ATOM     18  N   UNL     1      -2.345   4.186   0.668  0.00  0.00    -0.214 NA
ATOM     19  H   UNL     1      -2.056   1.617  -0.164  0.00  0.00    +0.155 HD
ENDROOT
BRANCH   1  23
ATOM     20  C   UNL     1       2.243   5.081  -3.918  0.00  0.00    +0.120 A 
ATOM     21  C   UNL     1       3.019   5.424  -2.819  0.00  0.00    +0.046 A 
ATOM     22  C   UNL     1       2.662   4.985  -1.559  0.00  0.00    +0.009 A 
ATOM     23  C   UNL     1       1.532   4.205  -1.392  0.00  0.00    -0.020 A 
ATOM     24  C   UNL     1       0.761   3.857  -2.486  0.00  0.00    +0.009 A 
ATOM     25  C   UNL     1       1.111   4.299  -3.747  0.00  0.00    +0.046 A 
BRANCH  20  27
ATOM     26  C   UNL     1       1.748   5.120  -6.242  0.00  0.00    +0.277 C 
ATOM     27  O   UNL     1       2.593   5.511  -5.158  0.00  0.00    -0.495 OA
ENDBRANCH  20  27
ENDBRANCH   1  23
BRANCH   5  28
ATOM     28  C   UNL     1       1.288  -2.012   0.696  0.00  0.00    +0.109 A 
ATOM     29  C   UNL     1       1.289  -2.829   1.764  0.00  0.00    +0.045 A 
ATOM     30  C   UNL     1       1.333  -4.152   1.268  0.00  0.00    +0.041 A 
ATOM     31  C   UNL     1       1.364  -4.064  -0.074  0.00  0.00    +0.195 A 
ATOM     32  O   UNL     1       1.337  -2.765  -0.415  0.00  0.00    -0.468 OA
ENDBRANCH   5  28
TORSDOF 3
