REMARK  Name = ZINC13387912
REMARK  6 active torsions:
REMARK  status: ('A' for Active; 'I' for Inactive)
REMARK    1  A    between atoms: C_1  and  C_2
REMARK    2  A    between atoms: C_5  and  C_8
REMARK    3  A    between atoms: C_11  and  C_34
REMARK    4  A    between atoms: C_16  and  C_18
REMARK    5  A    between atoms: N_23  and  C_26
REMARK    6  A    between atoms: C_26  and  C_27
REMARK                            x       y       z     vdW  Elec       q    Type
REMARK                         _______ _______ _______ _____ _____    ______ ____
ROOT
ATOM      1  C   UNL     1       0.123  -4.288  -0.026  0.00  0.00    +0.104 C 
ATOM      2  C   UNL     1      -1.370  -4.485   0.257  0.00  0.00    +0.063 C 
ATOM      3  C   UNL     1      -1.745  -3.805   1.579  0.00  0.00    +0.215 C 
ATOM      4  N   UNL     1      -0.798  -4.228   2.614  0.00  0.00    -0.238 N 
ATOM      5  C   UNL     1       0.429  -4.766   2.346  0.00  0.00    +0.119 A 
ATOM      6  C   UNL     1       1.032  -5.042   3.519  0.00  0.00    +0.078 A 
ATOM      7  C   UNL     1       0.149  -4.660   4.553  0.00  0.00    +0.149 A 
ATOM      8  N   UNL     1      -0.948  -4.172   3.999  0.00  0.00    -0.164 NA
ATOM      9  N   UNL     1       0.898  -4.956   1.038  0.00  0.00    -0.322 N 
ATOM     10  H   UNL     1       1.682  -5.494   0.843  0.00  0.00    +0.148 HD
ENDROOT
BRANCH   7  11
ATOM     11  C   UNL     1       0.406  -4.785   6.003  0.00  0.00    +0.267 C 
ATOM     12  O   UNL     1       1.503  -5.128   6.398  0.00  0.00    -0.268 OA
ATOM     13  N   UNL     1      -0.576  -4.517   6.887  0.00  0.00    -0.294 N 
ATOM     14  C   UNL     1      -0.302  -4.482   8.331  0.00  0.00    +0.123 C 
ATOM     15  C   UNL     1      -1.322  -5.378   9.042  0.00  0.00    +0.103 C 
ATOM     16  N   UNL     1      -2.679  -4.970   8.657  0.00  0.00    -0.295 NA
ATOM     17  C   UNL     1      -2.905  -5.157   7.218  0.00  0.00    +0.103 C 
ATOM     18  C   UNL     1      -1.948  -4.246   6.432  0.00  0.00    +0.123 C 
BRANCH  16  19
ATOM     19  C   UNL     1      -3.689  -5.688   9.446  0.00  0.00    +0.119 C 
BRANCH  19  20
ATOM     20  C   UNL     1      -5.045  -5.075   9.205  0.00  0.00    -0.033 A 
ATOM     21  C   UNL     1      -5.486  -4.037  10.004  0.00  0.00    +0.005 A 
ATOM     22  C   UNL     1      -6.729  -3.475   9.783  0.00  0.00    +0.000 A 
ATOM     23  C   UNL     1      -7.531  -3.951   8.762  0.00  0.00    +0.000 A 
ATOM     24  C   UNL     1      -7.089  -4.988   7.962  0.00  0.00    +0.000 A 
ATOM     25  C   UNL     1      -5.844  -5.547   8.181  0.00  0.00    +0.005 A 
ENDBRANCH  19  20
ENDBRANCH  16  19
ENDBRANCH   7  11
BRANCH   1  30
ATOM     26  C   UNL     1       1.360   1.356  -0.080  0.00  0.00    +0.044 C 
ATOM     27  C   UNL     1       1.038  -0.116  -0.066  0.00  0.00    -0.050 A 
ATOM     28  C   UNL     1       0.874  -0.799  -1.256  0.00  0.00    +0.004 A 
ATOM     29  C   UNL     1       0.578  -2.149  -1.244  0.00  0.00    +0.006 A 
ATOM     30  C   UNL     1       0.447  -2.816  -0.040  0.00  0.00    -0.027 A 
ATOM     31  C   UNL     1       0.612  -2.134   1.151  0.00  0.00    +0.006 A 
ATOM     32  C   UNL     1       0.911  -0.784   1.138  0.00  0.00    +0.004 A 
ENDBRANCH   1  30
BRANCH   3  33
ATOM     33  C   UNL     1      -3.164  -4.214   1.980  0.00  0.00    +0.412 C 
ATOM     34  F   UNL     1      -3.222  -5.603   2.138  0.00  0.00    -0.168 F 
ATOM     35  F   UNL     1      -3.504  -3.593   3.187  0.00  0.00    -0.168 F 
ATOM     36  F   UNL     1      -4.062  -3.819   0.984  0.00  0.00    -0.168 F 
ENDBRANCH   3  33
TORSDOF 5
