REMARK  Name = ZINC02340654
REMARK  3 active torsions:
REMARK  status: ('A' for Active; 'I' for Inactive)
REMARK    1  A    between atoms: C_9  and  C_11
REMARK    2  A    between atoms: N_15  and  C_19
REMARK    3  A    between atoms: C_23  and  C_25
REMARK                            x       y       z     vdW  Elec       q    Type
REMARK                         _______ _______ _______ _____ _____    ______ ____
ROOT
ATOM      1  C   UNL     1       3.875  -3.135  -0.939  0.00  0.00    +0.066 C 
ATOM      2  C   UNL     1       5.169  -3.132  -0.526  0.00  0.00    +0.080 C 
ATOM      3  C   UNL     1       6.179  -4.215  -0.578  0.00  0.00    +0.263 C 
ATOM      4  O   UNL     1       5.921  -5.311  -1.039  0.00  0.00    -0.269 OA
ATOM      5  N   UNL     1       7.377  -3.927  -0.097  0.00  0.00    -0.224 N 
ATOM      6  C   UNL     1       7.659  -2.711   0.413  0.00  0.00    +0.125 C 
ATOM      7  S   UNL     1       9.136  -2.154   1.075  0.00  0.00    -0.027 S 
ATOM      8  S   UNL     1       6.124  -1.820   0.223  0.00  0.00    -0.061 S 
ENDROOT
BRANCH   1  17
ATOM      9  C   UNL     1       0.077   1.482  -0.583  0.00  0.00    +0.002 A 
ATOM     10  C   UNL     1       1.181   2.107  -0.018  0.00  0.00    +0.002 A 
ATOM     11  C   UNL     1       2.361   1.437   0.131  0.00  0.00    +0.030 A 
ATOM     12  C   UNL     1       2.465   0.104  -0.288  0.00  0.00    +0.089 A 
ATOM     13  C   UNL     1       1.344  -0.529  -0.860  0.00  0.00    +0.066 A 
ATOM     14  C   UNL     1       0.154   0.171  -1.002  0.00  0.00    +0.028 A 
ATOM     15  N   UNL     1       1.742  -1.813  -1.170  0.00  0.00    -0.338 N 
ATOM     16  H   UNL     1       1.197  -2.503  -1.578  0.00  0.00    +0.167 HD
ATOM     17  C   UNL     1       3.057  -1.929  -0.790  0.00  0.00    +0.133 A 
ATOM     18  N   UNL     1       3.469  -0.793  -0.273  0.00  0.00    -0.228 NA
ENDBRANCH   1  17
BRANCH   5  19
ATOM     19  C   UNL     1       8.377  -4.909  -0.117  0.00  0.00    +0.043 A 
ATOM     20  C   UNL     1       8.523  -5.774   0.961  0.00  0.00    +0.024 A 
ATOM     21  C   UNL     1       9.507  -6.745   0.947  0.00  0.00    +0.003 A 
ATOM     22  C   UNL     1      10.352  -6.862  -0.138  0.00  0.00    +0.015 A 
ATOM     23  C   UNL     1      10.213  -5.998  -1.227  0.00  0.00    +0.065 A 
ATOM     24  C   UNL     1       9.215  -5.021  -1.214  0.00  0.00    +0.039 A 
BRANCH  23  25
ATOM     25  C   UNL     1      11.115  -6.120  -2.389  0.00  0.00    +0.387 C 
ATOM     26  O   UNL     1      11.985  -6.979  -2.400  0.00  0.00    -0.241 OA
ATOM     27  O   UNL     1      10.992  -5.363  -3.341  0.00  0.00    -0.241 OA
ENDBRANCH  23  25
ENDBRANCH   5  19
TORSDOF 3
