REMARK  Name = ZINC07081240
REMARK  6 active torsions:
REMARK  status: ('A' for Active; 'I' for Inactive)
REMARK    1  A    between atoms: C_1  and  C_2
REMARK    2  A    between atoms: C_2  and  C_22
REMARK    3  A    between atoms: N_5  and  C_9
REMARK    4  A    between atoms: C_9  and  C_10
REMARK    5  A    between atoms: C_25  and  O_28
REMARK    6  A    between atoms: O_28  and  C_29
REMARK                            x       y       z     vdW  Elec       q    Type
REMARK                         _______ _______ _______ _____ _____    ______ ____
ROOT
ATOM      1  C   UNL     1      -0.013   1.086   0.008  0.00  0.00    +0.047 C 
ATOM      2  C   UNL     1      -0.729   1.579   1.267  0.00  0.00    +0.135 C 
ATOM      3  C   UNL     1      -0.006   1.105   2.512  0.00  0.00    +0.251 C 
ATOM      4  O   UNL     1       0.184  -0.041   2.857  0.00  0.00    -0.272 OA
ATOM      5  N   UNL     1       0.383   2.224   3.156  0.00  0.00    -0.220 N 
ATOM      6  C   UNL     1       0.010   3.327   2.497  0.00  0.00    +0.310 C 
ATOM      7  O   UNL     1       0.247   4.455   2.881  0.00  0.00    -0.252 OA
ATOM      8  N   UNL     1      -0.657   3.047   1.362  0.00  0.00    -0.281 N 
ATOM      9  H   UNL     1      -1.019   3.688   0.730  0.00  0.00    +0.152 HD
ENDROOT
BRANCH   2  10
ATOM     10  C   UNL     1      -2.162   1.114   1.276  0.00  0.00    -0.015 A 
ATOM     11  C   UNL     1      -2.492  -0.092   1.866  0.00  0.00    +0.010 A 
ATOM     12  C   UNL     1      -3.806  -0.519   1.881  0.00  0.00    +0.046 A 
ATOM     13  C   UNL     1      -4.793   0.260   1.293  0.00  0.00    +0.120 A 
ATOM     14  C   UNL     1      -4.459   1.467   0.698  0.00  0.00    +0.046 A 
ATOM     15  C   UNL     1      -3.144   1.891   0.691  0.00  0.00    +0.010 A 
BRANCH  13  16
ATOM     16  O   UNL     1      -6.086  -0.161   1.301  0.00  0.00    -0.495 OA
ATOM     17  C   UNL     1      -6.357  -1.414   1.932  0.00  0.00    +0.277 C 
ENDBRANCH  13  16
ENDBRANCH   2  10
BRANCH   5  18
ATOM     18  C   UNL     1       1.122   2.231   4.421  0.00  0.00    +0.153 C 
BRANCH  18  19
ATOM     19  C   UNL     1       2.602   2.219   4.138  0.00  0.00    -0.025 A 
ATOM     20  C   UNL     1       3.273   1.014   4.025  0.00  0.00    +0.054 A 
ATOM     21  C   UNL     1       4.632   1.007   3.760  0.00  0.00    +0.164 A 
ATOM     22  C   UNL     1       5.319   2.204   3.618  0.00  0.00    +0.180 A 
ATOM     23  C   UNL     1       4.646   3.409   3.737  0.00  0.00    +0.086 A 
ATOM     24  C   UNL     1       3.286   3.412   3.998  0.00  0.00    +0.029 A 
ATOM     25 CL   UNL     1       5.503   4.907   3.561  0.00  0.00    -0.080 Cl
ATOM     26  O   UNL     1       6.659   2.185   3.360  0.00  0.00    -0.487 OA
ATOM     27  C   UNL     1       7.493   1.711   4.419  0.00  0.00    +0.232 C 
ATOM     28  C   UNL     1       7.581   0.193   4.398  0.00  0.00    +0.082 C 
ATOM     29  C   UNL     1       6.241  -0.469   4.678  0.00  0.00    +0.232 C 
ATOM     30  O   UNL     1       5.304  -0.175   3.640  0.00  0.00    -0.488 OA
ENDBRANCH  18  19
ENDBRANCH   5  18
TORSDOF 4
