REMARK  Name = ZINC31938534
REMARK  3 active torsions:
REMARK  status: ('A' for Active; 'I' for Inactive)
REMARK    1  A    between atoms: C_1  and  O_2
REMARK    2  A    between atoms: O_2  and  C_3
REMARK    3  A    between atoms: C_21  and  O_22
REMARK                            x       y       z     vdW  Elec       q    Type
REMARK                         _______ _______ _______ _____ _____    ______ ____
ROOT
ATOM      1  C   UNL     1       0.205   7.517   2.345  0.00  0.00    +0.162 A 
ATOM      2  C   UNL     1      -0.486   8.007   1.230  0.00  0.00    +0.050 A 
ATOM      3  C   UNL     1      -1.155   7.201   0.372  0.00  0.00    +0.012 A 
ATOM      4  C   UNL     1      -1.167   5.755   0.605  0.00  0.00    -0.015 A 
ATOM      5  C   UNL     1      -1.838   4.905  -0.196  0.00  0.00    +0.008 C 
ATOM      6  C   UNL     1      -1.859   3.431   0.058  0.00  0.00    +0.127 C 
ATOM      7  C   UNL     1      -1.566   2.670  -1.210  0.00  0.00    -0.016 A 
ATOM      8  C   UNL     1      -2.199   3.115  -2.372  0.00  0.00    +0.055 A 
ATOM      9  C   UNL     1      -1.971   2.416  -3.544  0.00  0.00    +0.167 A 
ATOM     10  C   UNL     1      -1.126   1.295  -3.560  0.00  0.00    +0.167 A 
ATOM     11  C   UNL     1      -0.496   0.865  -2.405  0.00  0.00    +0.053 A 
ATOM     12  C   UNL     1      -0.727   1.578  -1.226  0.00  0.00    -0.037 A 
ATOM     13  C   UNL     1      -0.013   1.086   0.008  0.00  0.00    +0.054 C 
ATOM     14  C   UNL     1      -0.712   1.571   1.276  0.00  0.00    +0.110 C 
ATOM     15  N   UNL     1      -0.965   3.016   1.126  0.00  0.00    -0.324 N 
ATOM     16  C   UNL     1      -0.344   3.890   1.972  0.00  0.00    +0.083 C 
ATOM     17  C   UNL     1      -0.406   5.229   1.763  0.00  0.00    +0.041 A 
ATOM     18  C   UNL     1       0.270   6.188   2.639  0.00  0.00    +0.167 A 
ATOM     19  O   UNL     1      -1.081   0.801  -4.818  0.00  0.00    -0.453 OA
ATOM     20  C   UNL     1      -2.207   1.387  -5.504  0.00  0.00    +0.466 C 
ATOM     21  O   UNL     1      -2.446   2.620  -4.794  0.00  0.00    -0.453 OA
ENDROOT
BRANCH   1  23
ATOM     22  C   UNL     1       0.742   9.786   2.822  0.00  0.00    +0.277 C 
ATOM     23  O   UNL     1       0.835   8.402   3.166  0.00  0.00    -0.491 OA
ENDBRANCH   1  23
BRANCH  18  24
ATOM     24  O   UNL     1       0.955   5.758   3.730  0.00  0.00    -0.503 OA
ATOM     25  H   UNL     1       1.003   4.684   3.961  0.00  0.00    +0.292 HD
ENDBRANCH  18  24
TORSDOF 2
