REMARK  Name = ZINC12772626
REMARK  8 active torsions:
REMARK  status: ('A' for Active; 'I' for Inactive)
REMARK    1  A    between atoms: C_1  and  C_2
REMARK    2  A    between atoms: C_5  and  N_9
REMARK    3  A    between atoms: C_10  and  C_12
REMARK    4  A    between atoms: C_12  and  N_44
REMARK    5  A    between atoms: C_13  and  C_14
REMARK    6  A    between atoms: C_13  and  N_44
REMARK    7  A    between atoms: C_19  and  C_20
REMARK    8  A    between atoms: C_19  and  N_44
REMARK                            x       y       z     vdW  Elec       q    Type
REMARK                         _______ _______ _______ _____ _____    ______ ____
ROOT
ATOM      1  C   UNL     1       5.956  -0.562  -0.322  0.00  0.00    +0.020 C 
ENDROOT
BRANCH   1   3
ATOM      2  N   UNL     1       5.019  -1.481   1.776  0.00  0.00    -0.285 N 
ATOM      3  C   UNL     1       5.857  -0.609   1.182  0.00  0.00    +0.201 C 
ATOM      4  O   UNL     1       6.533   0.139   1.857  0.00  0.00    -0.278 OA
ATOM      5  H   UNL     1       4.517  -2.114   1.238  0.00  0.00    +0.155 HD
BRANCH   2  10
ATOM      6  C   UNL     1       4.436  -1.453   7.420  0.00  0.00    +0.044 C 
ATOM      7  C   UNL     1       4.586  -1.460   5.921  0.00  0.00    -0.048 A 
ATOM      8  C   UNL     1       4.729  -2.660   5.248  0.00  0.00    +0.020 A 
ATOM      9  C   UNL     1       4.872  -2.671   3.874  0.00  0.00    +0.040 A 
ATOM     10  C   UNL     1       4.873  -1.474   3.168  0.00  0.00    +0.062 A 
ATOM     11  C   UNL     1       4.729  -0.271   3.847  0.00  0.00    +0.040 A 
ATOM     12  C   UNL     1       4.586  -0.268   5.221  0.00  0.00    +0.020 A 
ATOM     13 BR   UNL     1       4.729   1.361   2.891  0.00  0.00    -0.048 Br
ATOM     14 BR   UNL     1       5.067  -4.312   2.955  0.00  0.00    -0.048 Br
ENDBRANCH   2  10
ENDBRANCH   1   3
BRANCH   1  15
ATOM     15  N   UNL     1       7.029   0.383  -0.697  0.00  0.00    +0.395 N 
ATOM     16  H   UNL     1       6.970   1.211  -0.092  0.00  0.00    -0.080 HD
BRANCH  15  17
ATOM     17  C   UNL     1       8.350  -0.254  -0.513  0.00  0.00    -0.002 C 
BRANCH  17  18
ATOM     18  C   UNL     1       9.421   0.791  -0.688  0.00  0.00    +0.089 A 
ATOM     19  C   UNL     1       9.927   1.570   0.285  0.00  0.00    +0.042 A 
ATOM     20  C   UNL     1      10.901   2.399  -0.319  0.00  0.00    +0.041 A 
ATOM     21  C   UNL     1      10.931   2.077  -1.624  0.00  0.00    +0.195 A 
ATOM     22  O   UNL     1      10.037   1.099  -1.841  0.00  0.00    -0.470 OA
ENDBRANCH  17  18
ENDBRANCH  15  17
BRANCH  15  23
ATOM     23  C   UNL     1       6.862   0.803  -2.104  0.00  0.00    -0.002 C 
BRANCH  23  24
ATOM     24  C   UNL     1       5.758   1.826  -2.175  0.00  0.00    +0.089 A 
ATOM     25  C   UNL     1       5.917   3.161  -2.123  0.00  0.00    +0.042 A 
ATOM     26  C   UNL     1       4.628   3.732  -2.223  0.00  0.00    +0.041 A 
ATOM     27  C   UNL     1       3.757   2.712  -2.330  0.00  0.00    +0.195 A 
ATOM     28  O   UNL     1       4.448   1.560  -2.306  0.00  0.00    -0.470 OA
ENDBRANCH  23  24
ENDBRANCH  15  23
ENDBRANCH   1  15
TORSDOF 7
