REMARK  Name = ZINC35827659
REMARK  2 active torsions:
REMARK  status: ('A' for Active; 'I' for Inactive)
REMARK    1  A    between atoms: C_5  and  C_7
REMARK    2  A    between atoms: C_18  and  C_20
REMARK                            x       y       z     vdW  Elec       q    Type
REMARK                         _______ _______ _______ _____ _____    ______ ____
ROOT
ATOM      1  C   UNL     1       1.255  -2.152  -0.022  0.00  0.00    +0.016 C 
ATOM      2  C   UNL     1       0.126  -2.898   0.072  0.00  0.00    -0.027 C 
ATOM      3  C   UNL     1      -1.186  -2.184   0.073  0.00  0.00    +0.037 C 
ATOM      4  C   UNL     1      -2.372  -3.134   0.115  0.00  0.00    +0.005 C 
ATOM      5  C   UNL     1      -2.067  -4.353   0.983  0.00  0.00    +0.012 C 
ATOM      6  C   UNL     1      -0.951  -5.168   0.324  0.00  0.00    +0.063 C 
ATOM      7  C   UNL     1       0.263  -4.288   0.158  0.00  0.00    +0.027 C 
ATOM      8  N   UNL     1       1.459  -4.832   0.078  0.00  0.00    -0.339 N 
ATOM      9  C   UNL     1       1.642  -6.151   0.213  0.00  0.00    +0.152 C 
ATOM     10  S   UNL     1       3.088  -6.823  -0.246  0.00  0.00    -0.013 SA
ATOM     11  N   UNL     1       0.658  -6.957   0.724  0.00  0.00    -0.358 N 
ATOM     12  C   UNL     1      -0.598  -6.362   1.214  0.00  0.00    +0.123 C 
ATOM     13  H   UNL     1       2.227  -4.263  -0.083  0.00  0.00    +0.167 HD
ATOM     14  H   UNL     1       0.790  -7.917   0.769  0.00  0.00    +0.162 HD
ENDROOT
BRANCH   1  19
ATOM     15  C   UNL     1       0.362   1.308   1.109  0.00  0.00    +0.001 A 
ATOM     16  C   UNL     1       1.025   2.078   0.168  0.00  0.00    +0.003 A 
ATOM     17  C   UNL     1       1.762   1.476  -0.836  0.00  0.00    +0.039 A 
ATOM     18  C   UNL     1       1.844   0.099  -0.906  0.00  0.00    +0.131 A 
ATOM     19  C   UNL     1       1.176  -0.688   0.043  0.00  0.00    +0.010 A 
ATOM     20  C   UNL     1       0.432  -0.067   1.055  0.00  0.00    +0.011 A 
ATOM     21  F   UNL     1       2.564  -0.489  -1.887  0.00  0.00    -0.205 F 
ENDBRANCH   1  19
BRANCH  12  22
ATOM     22  C   UNL     1      -0.431  -5.897   2.638  0.00  0.00    +0.011 A 
ATOM     23  C   UNL     1       0.825  -5.582   3.119  0.00  0.00    +0.008 A 
ATOM     24  C   UNL     1       0.979  -5.156   4.426  0.00  0.00    +0.001 A 
ATOM     25  C   UNL     1      -0.124  -5.045   5.252  0.00  0.00    +0.003 A 
ATOM     26  C   UNL     1      -1.382  -5.359   4.772  0.00  0.00    +0.039 A 
ATOM     27  C   UNL     1      -1.537  -5.781   3.462  0.00  0.00    +0.129 A 
ATOM     28  F   UNL     1      -2.767  -6.084   2.991  0.00  0.00    -0.205 F 
ENDBRANCH  12  22
TORSDOF 2
