REMARK  Name = ZINC01429333
REMARK  5 active torsions:
REMARK  status: ('A' for Active; 'I' for Inactive)
REMARK    1  A    between atoms: C_1  and  C_2
REMARK    2  A    between atoms: C_4  and  C_27
REMARK    3  A    between atoms: C_11  and  C_19
REMARK    4  A    between atoms: C_13  and  C_17
REMARK    5  A    between atoms: C_14  and  N_16
REMARK                            x       y       z     vdW  Elec       q    Type
REMARK                         _______ _______ _______ _____ _____    ______ ____
ROOT
ATOM      1  C   UNL     1       3.330   7.484  -1.577  0.00  0.00    +0.044 C 
ATOM      2  C   UNL     1       3.555   6.508  -2.702  0.00  0.00    -0.036 A 
ATOM      3  C   UNL     1       3.667   6.918  -4.019  0.00  0.00    +0.027 A 
ATOM      4  C   UNL     1       3.873   6.023  -5.053  0.00  0.00    +0.040 A 
ATOM      5  N   UNL     1       3.977   4.715  -4.846  0.00  0.00    -0.245 NA
ATOM      6  C   UNL     1       3.877   4.281  -3.610  0.00  0.00    +0.113 A 
ATOM      7  C   UNL     1       3.665   5.113  -2.479  0.00  0.00    +0.053 A 
ATOM      8  C   UNL     1       3.583   4.430  -1.198  0.00  0.00    +0.151 A 
ATOM      9  C   UNL     1       3.720   3.081  -1.215  0.00  0.00    +0.047 A 
ATOM     10  S   UNL     1       3.959   2.657  -2.918  0.00  0.00    -0.069 S 
ATOM     11  C   UNL     1       3.673   2.183  -0.020  0.00  0.00    +0.105 C 
ATOM     12  C   UNL     1       3.760   3.048   1.216  0.00  0.00    +0.098 C 
ATOM     13  C   UNL     1       3.611   4.391   1.141  0.00  0.00    +0.199 C 
ATOM     14  O   UNL     1       3.378   5.069   0.007  0.00  0.00    -0.440 OA
ATOM     15  C   UNL     1       3.983   6.548  -6.460  0.00  0.00    +0.065 C 
ENDROOT
BRANCH  11  16
ATOM     16  C   UNL     1       2.378   1.412  -0.013  0.00  0.00    -0.033 A 
ATOM     17  C   UNL     1       2.397   0.029  -0.021  0.00  0.00    +0.006 A 
ATOM     18  C   UNL     1       1.210  -0.679  -0.013  0.00  0.00    +0.022 A 
ATOM     19  C   UNL     1       0.002  -0.004   0.002  0.00  0.00    +0.059 A 
ATOM     20  C   UNL     1      -0.017   1.380   0.010  0.00  0.00    +0.060 A 
ATOM     21  C   UNL     1       1.172   2.087   0.002  0.00  0.00    +0.026 A 
ATOM     22 CL   UNL     1      -1.532   2.228   0.021  0.00  0.00    -0.082 Cl
ATOM     23 CL   UNL     1      -1.489  -0.893   0.011  0.00  0.00    -0.082 Cl
ENDBRANCH  11  16
BRANCH  13  24
ATOM     24  N   UNL     1       3.706   5.110   2.307  0.00  0.00    -0.328 N 
ATOM     25  H   UNL     1       3.874   4.653   3.146  0.00  0.00    +0.145 HD
ATOM     26  H   UNL     1       3.605   6.074   2.291  0.00  0.00    +0.145 HD
ENDBRANCH  13  24
BRANCH  12  27
ATOM     27  C   UNL     1       4.003   2.437   2.488  0.00  0.00    +0.101 C 
ATOM     28  N   UNL     1       4.196   1.952   3.497  0.00  0.00    -0.191 NA
ENDBRANCH  12  27
TORSDOF 3
