REMARK  Name = ZINC39371836
REMARK  7 active torsions:
REMARK  status: ('A' for Active; 'I' for Inactive)
REMARK    1  A    between atoms: C_3  and  C_8
REMARK    2  A    between atoms: C_8  and  C_9
REMARK    3  A    between atoms: C_9  and  N_10
REMARK    4  A    between atoms: C_23  and  N_27
REMARK    5  A    between atoms: N_27  and  C_28
REMARK    6  A    between atoms: C_28  and  C_29
REMARK    7  A    between atoms: C_32  and  C_34
REMARK                            x       y       z     vdW  Elec       q    Type
REMARK                         _______ _______ _______ _____ _____    ______ ____
ROOT
ATOM      1  N   UNL     1       5.381   3.188   1.410  0.00  0.00    -0.262 N 
ATOM      2  C   UNL     1       6.590   2.520   1.390  0.00  0.00    +0.186 C 
ATOM      3  N   UNL     1       7.665   3.007   1.953  0.00  0.00    -0.261 NA
ATOM      4  C   UNL     1       7.507   4.305   2.586  0.00  0.00    +0.184 C 
ATOM      5  C   UNL     1       6.722   5.159   1.537  0.00  0.00    +0.137 C 
ATOM      6  C   UNL     1       5.368   4.561   1.418  0.00  0.00    +0.230 C 
ATOM      7  O   UNL     1       4.352   5.219   1.338  0.00  0.00    -0.274 OA
ATOM      8  C   UNL     1       6.930   6.604   1.783  0.00  0.00    -0.046 C 
ATOM      9  C   UNL     1       8.126   6.921   2.311  0.00  0.00    -0.014 C 
ATOM     10  S   UNL     1       9.013   5.353   2.592  0.00  0.00    -0.102 S 
ATOM     11  C   UNL     1       8.639   8.294   2.617  0.00  0.00    +0.026 C 
ATOM     12  C   UNL     1       7.733   9.326   1.933  0.00  0.00    -0.066 C 
ATOM     13  C   UNL     1       6.274   8.962   2.229  0.00  0.00    -0.011 C 
ATOM     14  C   UNL     1       5.903   7.686   1.474  0.00  0.00    +0.031 C 
ENDROOT
BRANCH  12  15
ATOM     15  N   UNL     1       8.028  10.666   2.457  0.00  0.00    +0.385 N 
ATOM     16  H   UNL     1       7.377  11.331   2.067  0.00  0.00    -0.085 HD
ATOM     17  H   UNL     1       7.942  10.661   3.462  0.00  0.00    -0.085 HD
BRANCH  15  18
ATOM     18  C   UNL     1       9.397  11.046   2.085  0.00  0.00    -0.028 C 
BRANCH  18  19
ATOM     19  C   UNL     1       9.700  12.421   2.623  0.00  0.00    +0.030 C 
ATOM     20  N   UNL     1       8.912  13.179   3.312  0.00  0.00    -0.160 NA
ATOM     21  N   UNL     1       9.504  14.391   3.653  0.00  0.00    -0.158 NA
ATOM     22  C   UNL     1      10.712  14.493   3.205  0.00  0.00    +0.050 C 
ATOM     23  C   UNL     1      10.994  13.197   2.471  0.00  0.00    +0.103 C 
BRANCH  22  24
ATOM     24  C   UNL     1      11.650  15.659   3.381  0.00  0.00    +0.036 C 
ATOM     25  C   UNL     1      12.090  16.003   4.805  0.00  0.00    +0.010 C 
ATOM     26  C   UNL     1      11.100  16.910   4.071  0.00  0.00    +0.010 C 
ENDBRANCH  22  24
ENDBRANCH  18  19
ENDBRANCH  15  18
ENDBRANCH  12  15
BRANCH   1  27
ATOM     27  C   UNL     1       4.123   2.438   1.418  0.00  0.00    +0.119 C 
BRANCH  27  28
ATOM     28  C   UNL     1       3.672   2.184  -0.021  0.00  0.00    +0.054 C 
BRANCH  28  31
ATOM     29  C   UNL     1      -0.017   1.378   0.010  0.00  0.00    +0.002 A 
ATOM     30  C   UNL     1       1.171   2.086   0.002  0.00  0.00    +0.004 A 
ATOM     31  C   UNL     1       2.378   1.412  -0.013  0.00  0.00    -0.044 A 
ATOM     32  C   UNL     1       2.398   0.029  -0.021  0.00  0.00    +0.023 A 
ATOM     33  C   UNL     1       1.210  -0.679  -0.013  0.00  0.00    +0.041 A 
ATOM     34  C   UNL     1       0.002  -0.004   0.002  0.00  0.00    +0.020 A 
ATOM     35 CL   UNL     1       1.234  -2.415  -0.024  0.00  0.00    -0.084 Cl
ENDBRANCH  28  31
ENDBRANCH  27  28
ENDBRANCH   1  27
TORSDOF 7
