REMARK  Name = ZINC13399328
REMARK  8 active torsions:
REMARK  status: ('A' for Active; 'I' for Inactive)
REMARK    1  A    between atoms: C_1  and  C_2
REMARK    2  A    between atoms: C_2  and  C_3
REMARK    3  A    between atoms: C_2  and  C_4
REMARK    4  A    between atoms: C_4  and  N_5
REMARK    5  A    between atoms: C_15  and  S_16
REMARK    6  A    between atoms: S_16  and  C_17
REMARK    7  A    between atoms: C_17  and  C_18
REMARK    8  A    between atoms: C_25  and  C_27
REMARK                            x       y       z     vdW  Elec       q    Type
REMARK                         _______ _______ _______ _____ _____    ______ ____
ROOT
ATOM      1  N   UNL     1       4.604   1.686  -5.144  0.00  0.00    -0.287 N 
ATOM      2  C   UNL     1       3.619   2.196  -5.920  0.00  0.00    +0.262 A 
ATOM      3  O   UNL     1       3.804   3.185  -6.606  0.00  0.00    -0.267 OA
ATOM      4  C   UNL     1       2.319   1.512  -5.905  0.00  0.00    +0.066 A 
ATOM      5  C   UNL     1       1.243   1.960  -6.669  0.00  0.00    +0.030 A 
ATOM      6  C   UNL     1       0.045   1.279  -6.616  0.00  0.00    +0.019 A 
ATOM      7  C   UNL     1      -0.091   0.152  -5.815  0.00  0.00    +0.017 A 
ATOM      8  C   UNL     1       0.949  -0.300  -5.053  0.00  0.00    +0.029 A 
ATOM      9  C   UNL     1       2.175   0.369  -5.085  0.00  0.00    +0.079 A 
ATOM     10  N   UNL     1       3.232  -0.051  -4.350  0.00  0.00    -0.223 NA
ATOM     11  C   UNL     1       4.381   0.576  -4.381  0.00  0.00    +0.173 A 
ATOM     12 BR   UNL     1      -1.420   1.879  -7.649  0.00  0.00    -0.050 Br
ENDROOT
BRANCH   1  13
ATOM     13  C   UNL     1       5.920   2.331  -5.123  0.00  0.00    +0.130 C 
BRANCH  13  15
ATOM     14  C   UNL     1       6.220   2.037  -7.586  0.00  0.00    +0.009 C 
ATOM     15  C   UNL     1       6.806   1.717  -6.210  0.00  0.00    +0.003 C 
ATOM     16  C   UNL     1       8.216   2.301  -6.107  0.00  0.00    +0.009 C 
ENDBRANCH  13  15
ENDBRANCH   1  13
BRANCH  11  17
ATOM     17  S   UNL     1       5.702  -0.041  -3.390  0.00  0.00    -0.078 S 
BRANCH  17  18
ATOM     18  C   UNL     1       4.882  -1.460  -2.623  0.00  0.00    +0.173 C 
BRANCH  18  19
ATOM     19  C   UNL     1       5.849  -2.162  -1.705  0.00  0.00    +0.227 C 
ATOM     20  O   UNL     1       6.981  -1.745  -1.582  0.00  0.00    -0.275 OA
ATOM     21  N   UNL     1       5.456  -3.255  -1.020  0.00  0.00    -0.287 N 
ATOM     22  C   UNL     1       4.064  -3.720  -1.089  0.00  0.00    +0.108 C 
ATOM     23  C   UNL     1       3.519  -3.856   0.337  0.00  0.00    +0.019 C 
ATOM     24  C   UNL     1       4.446  -4.763   1.149  0.00  0.00    +0.004 C 
ATOM     25  C   UNL     1       5.840  -4.136   1.223  0.00  0.00    +0.034 C 
ATOM     26  C   UNL     1       6.413  -4.007  -0.197  0.00  0.00    +0.189 C 
BRANCH  26  27
ATOM     27  C   UNL     1       7.726  -3.270  -0.149  0.00  0.00    +0.376 C 
ATOM     28  O   UNL     1       7.800  -2.202   0.411  0.00  0.00    -0.244 OA
ATOM     29  O   UNL     1       8.815  -3.800  -0.728  0.00  0.00    -0.244 OA
ENDBRANCH  26  27
ENDBRANCH  18  19
ENDBRANCH  17  18
ENDBRANCH  11  17
TORSDOF 6
