REMARK  Name = ZINC60015806
REMARK  11 active torsions:
REMARK  status: ('A' for Active; 'I' for Inactive)
REMARK    1  A    between atoms: C_1  and  C_2
REMARK    2  A    between atoms: C_5  and  C_30
REMARK    3  A    between atoms: N_8  and  C_10
REMARK    4  A    between atoms: C_10  and  C_11
REMARK    5  A    between atoms: C_11  and  C_13
REMARK    6  A    between atoms: C_11  and  N_14
REMARK    7  A    between atoms: C_15  and  C_17
REMARK    8  A    between atoms: C_17  and  C_18
REMARK    9  A    between atoms: C_18  and  N_19
REMARK   10  A    between atoms: N_19  and  S_20
REMARK   11  A    between atoms: S_20  and  C_23
REMARK                            x       y       z     vdW  Elec       q    Type
REMARK                         _______ _______ _______ _____ _____    ______ ____
ROOT
ATOM      1  N   UNL     1       2.109   1.674   3.488  0.00  0.00    -0.314 N 
ATOM      2  C   UNL     1       1.173   2.414   4.115  0.00  0.00    +0.214 C 
ATOM      3  O   UNL     1       0.353   1.876   4.829  0.00  0.00    -0.276 OA
ATOM      4  H   UNL     1       2.765   2.105   2.918  0.00  0.00    +0.149 HD
ENDROOT
BRANCH   1   5
ATOM      5  C   UNL     1       2.136   0.221   3.668  0.00  0.00    +0.053 C 
ATOM      6  C   UNL     1       2.924  -0.122   4.934  0.00  0.00    +0.026 C 
BRANCH   5   7
ATOM      7  C   UNL     1       2.808  -0.431   2.458  0.00  0.00    -0.057 C 
BRANCH   7  13
ATOM      8  C   UNL     1      -0.019   1.526   0.010  0.00  0.00    +0.005 C 
ATOM      9  C   UNL     1       0.002  -0.004   0.002  0.00  0.00    -0.031 C 
ATOM     10  C   UNL     1       0.721  -0.499  -1.257  0.00  0.00    +0.003 C 
ATOM     11  C   UNL     1       2.177  -0.027  -1.220  0.00  0.00    -0.031 C 
ATOM     12  C   UNL     1       2.839  -0.534   0.063  0.00  0.00    -0.076 C 
ATOM     13  N   UNL     1       2.123  -0.005   1.230  0.00  0.00    +0.381 N 
ATOM     14  C   UNL     1       0.744  -0.512   1.240  0.00  0.00    -0.076 C 
ATOM     15  C   UNL     1       2.924  -0.581  -2.434  0.00  0.00    +0.005 C 
ATOM     16  H   UNL     1       2.109   1.003   1.187  0.00  0.00    -0.082 HD
ENDBRANCH   7  13
ENDBRANCH   5   7
ENDBRANCH   1   5
BRANCH   2  17
ATOM     17  C   UNL     1       1.145   3.909   3.930  0.00  0.00    +0.112 C 
BRANCH  17  18
ATOM     18  C   UNL     1      -0.006   4.503   4.745  0.00  0.00    +0.115 C 
BRANCH  18  19
ATOM     19  N   UNL     1      -0.033   5.956   4.565  0.00  0.00    -0.189 NA
ATOM     20  H   UNL     1       0.733   6.412   4.182  0.00  0.00    +0.148 HD
BRANCH  19  21
ATOM     21  S   UNL     1      -1.372   6.821   5.015  0.00  0.00    +0.058 S 
ATOM     22  O   UNL     1      -1.083   8.186   4.743  0.00  0.00    -0.153 OA
ATOM     23  O   UNL     1      -2.494   6.154   4.454  0.00  0.00    -0.153 OA
BRANCH  21  24
ATOM     24  C   UNL     1      -1.522   6.677   6.764  0.00  0.00    +0.105 A 
ATOM     25  C   UNL     1      -2.254   5.640   7.312  0.00  0.00    +0.029 A 
ATOM     26  C   UNL     1      -2.371   5.526   8.684  0.00  0.00    +0.017 A 
ATOM     27  C   UNL     1      -1.756   6.450   9.510  0.00  0.00    +0.018 A 
ATOM     28  C   UNL     1      -1.023   7.487   8.962  0.00  0.00    +0.017 A 
ATOM     29  C   UNL     1      -0.902   7.598   7.589  0.00  0.00    +0.029 A 
ATOM     30 BR   UNL     1      -1.917   6.295  11.388  0.00  0.00    -0.050 Br
ENDBRANCH  21  24
ENDBRANCH  19  21
ENDBRANCH  18  19
ENDBRANCH  17  18
ENDBRANCH   2  17
TORSDOF 8
