REMARK  Name = ZINC00716593
REMARK  5 active torsions:
REMARK  status: ('A' for Active; 'I' for Inactive)
REMARK    1  A    between atoms: C_6  and  C_7
REMARK    2  A    between atoms: N_9  and  C_10
REMARK    3  A    between atoms: N_9  and  C_20
REMARK    4  A    between atoms: C_10  and  C_11
REMARK    5  A    between atoms: N_25  and  C_28
REMARK                            x       y       z     vdW  Elec       q    Type
REMARK                         _______ _______ _______ _____ _____    ______ ____
ROOT
ATOM      1  C   UNL     1       2.333   4.668   2.528  0.00  0.00    +0.248 C 
ATOM      2  O   UNL     1       2.084   4.260   3.646  0.00  0.00    -0.270 OA
ATOM      3  N   UNL     1       1.330   5.006   1.695  0.00  0.00    -0.281 N 
ENDROOT
BRANCH   1   9
ATOM      4  C   UNL     1       4.126   4.287   0.842  0.00  0.00    +0.014 A 
ATOM      5  C   UNL     1       5.436   4.412   0.430  0.00  0.00    +0.021 A 
ATOM      6  C   UNL     1       6.368   5.027   1.250  0.00  0.00    +0.041 A 
ATOM      7  C   UNL     1       5.989   5.525   2.486  0.00  0.00    +0.021 A 
ATOM      8  C   UNL     1       4.680   5.412   2.906  0.00  0.00    +0.014 A 
ATOM      9  C   UNL     1       3.737   4.793   2.084  0.00  0.00    +0.037 A 
ATOM     10 CL   UNL     1       8.017   5.173   0.728  0.00  0.00    -0.084 Cl
ENDBRANCH   1   9
BRANCH   3  11
ATOM     11  C   UNL     1      -0.053   5.019   2.180  0.00  0.00    +0.172 C 
ATOM     12  C   UNL     1      -0.198   5.976   3.380  0.00  0.00    +0.128 C 
ATOM     13  C   UNL     1      -0.640   5.069   4.507  0.00  0.00    +0.228 C 
ATOM     14  O   UNL     1      -0.871   5.421   5.644  0.00  0.00    -0.275 OA
ATOM     15  N   UNL     1      -0.735   3.814   4.050  0.00  0.00    -0.209 N 
ATOM     16  C   UNL     1      -0.429   3.669   2.751  0.00  0.00    +0.247 C 
ATOM     17  O   UNL     1      -0.450   2.626   2.133  0.00  0.00    -0.273 OA
BRANCH  15  18
ATOM     18  C   UNL     1      -1.125   2.738   4.861  0.00  0.00    +0.044 A 
ATOM     19  C   UNL     1      -0.300   2.311   5.892  0.00  0.00    +0.025 A 
ATOM     20  C   UNL     1      -0.688   1.255   6.694  0.00  0.00    +0.017 A 
ATOM     21  C   UNL     1      -1.893   0.616   6.462  0.00  0.00    +0.018 A 
ATOM     22  C   UNL     1      -2.715   1.037   5.431  0.00  0.00    +0.017 A 
ATOM     23  C   UNL     1      -2.333   2.096   4.630  0.00  0.00    +0.025 A 
ATOM     24 BR   UNL     1      -2.419  -0.835   7.555  0.00  0.00    -0.050 Br
ENDBRANCH  15  18
ENDBRANCH   3  11
BRANCH   3  25
ATOM     25  C   UNL     1       1.621   5.361   0.304  0.00  0.00    +0.144 C 
BRANCH  25  26
ATOM     26  C   UNL     1       0.612   4.706  -0.604  0.00  0.00    -0.026 A 
ATOM     27  C   UNL     1      -0.562   5.364  -0.920  0.00  0.00    +0.009 A 
ATOM     28  C   UNL     1      -1.490   4.767  -1.752  0.00  0.00    +0.050 A 
ATOM     29  C   UNL     1      -1.246   3.506  -2.272  0.00  0.00    +0.166 A 
ATOM     30  C   UNL     1      -0.064   2.843  -1.954  0.00  0.00    +0.167 A 
ATOM     31  C   UNL     1       0.862   3.447  -1.119  0.00  0.00    +0.054 A 
ATOM     32  O   UNL     1      -0.060   1.632  -2.583  0.00  0.00    -0.453 OA
ATOM     33  C   UNL     1      -1.429   1.390  -2.959  0.00  0.00    +0.466 C 
ATOM     34  O   UNL     1      -1.983   2.711  -3.101  0.00  0.00    -0.453 OA
ENDBRANCH  25  26
ENDBRANCH   3  25
TORSDOF 5
