REMARK  Name = ZINC35851716
REMARK  3 active torsions:
REMARK  status: ('A' for Active; 'I' for Inactive)
REMARK    1  A    between atoms: C_1  and  C_2
REMARK    2  A    between atoms: C_7  and  C_8
REMARK    3  A    between atoms: N_25  and  C_28
REMARK                            x       y       z     vdW  Elec       q    Type
REMARK                         _______ _______ _______ _____ _____    ______ ____
ROOT
ATOM      1  C   UNL     1      -0.018   1.503   0.010  0.00  0.00    +0.044 C 
ATOM      2  C   UNL     1       0.002  -0.004   0.002  0.00  0.00    -0.046 A 
ATOM      3  C   UNL     1       0.006  -0.685  -1.202  0.00  0.00    +0.004 A 
ATOM      4  C   UNL     1       0.025  -2.069  -1.209  0.00  0.00    +0.008 A 
ATOM      5  C   UNL     1       0.039  -2.765  -0.021  0.00  0.00    +0.004 A 
ATOM      6  C   UNL     1       0.035  -2.090   1.196  0.00  0.00    +0.042 A 
ATOM      7  C   UNL     1       0.023  -0.697   1.195  0.00  0.00    -0.026 A 
ATOM      8  C   UNL     1       0.025   0.056   2.500  0.00  0.00    +0.046 C 
ATOM      9  N   UNL     1       0.050  -3.001   2.254  0.00  0.00    -0.283 N 
ATOM     10  C   UNL     1       0.063  -4.278   1.823  0.00  0.00    +0.243 C 
ATOM     11  O   UNL     1       0.074  -5.275   2.514  0.00  0.00    -0.273 OA
ATOM     12  C   UNL     1       0.061  -4.227   0.322  0.00  0.00    +0.138 C 
ATOM     13  C   UNL     1       1.251  -4.947  -0.288  0.00  0.00    +0.123 C 
ATOM     14  C   UNL     1       0.709  -6.414  -0.086  0.00  0.00    +0.107 C 
ATOM     15  C   UNL     1      -0.691  -6.358  -0.542  0.00  0.00    +0.071 C 
ATOM     16  N   UNL     1      -1.101  -4.935  -0.252  0.00  0.00    -0.281 NA
ATOM     17  C   UNL     1      -2.293  -4.915   0.585  0.00  0.00    +0.086 C 
ATOM     18  C   UNL     1      -2.859  -6.352   0.588  0.00  0.00    +0.017 C 
ATOM     19  C   UNL     1      -1.594  -7.240   0.352  0.00  0.00    +0.021 C 
ATOM     20  C   UNL     1       1.902  -7.204  -0.267  0.00  0.00    +0.232 C 
ATOM     21  O   UNL     1       1.992  -8.307  -0.761  0.00  0.00    -0.274 OA
ATOM     22  N   UNL     1       2.913  -6.429   0.246  0.00  0.00    -0.209 N 
ATOM     23  C   UNL     1       2.534  -5.120   0.465  0.00  0.00    +0.233 C 
ATOM     24  O   UNL     1       3.109  -4.283   1.128  0.00  0.00    -0.274 OA
ATOM     25  H   UNL     1       0.052  -2.745   3.190  0.00  0.00    +0.155 HD
ENDROOT
BRANCH  22  26
ATOM     26  C   UNL     1       4.201  -6.910   0.508  0.00  0.00    +0.052 A 
ATOM     27  C   UNL     1       5.176  -6.850  -0.462  0.00  0.00    +0.024 A 
ATOM     28  C   UNL     1       6.460  -7.325  -0.211  0.00  0.00    +0.002 A 
ATOM     29  C   UNL     1       6.788  -7.861   0.997  0.00  0.00    +0.008 A 
ATOM     30  C   UNL     1       5.822  -7.940   2.014  0.00  0.00    -0.016 A 
ATOM     31  C   UNL     1       4.513  -7.454   1.772  0.00  0.00    +0.004 A 
ATOM     32  C   UNL     1       3.550  -7.529   2.791  0.00  0.00    +0.010 A 
ATOM     33  C   UNL     1       3.886  -8.061   3.998  0.00  0.00    +0.001 A 
ATOM     34  C   UNL     1       5.175  -8.534   4.239  0.00  0.00    +0.001 A 
ATOM     35  C   UNL     1       6.130  -8.488   3.271  0.00  0.00    +0.008 A 
ENDBRANCH  22  26
TORSDOF 1
