REMARK  Name = ZINC12894280
REMARK  7 active torsions:
REMARK  status: ('A' for Active; 'I' for Inactive)
REMARK    1  A    between atoms: C_1  and  C_2
REMARK    2  A    between atoms: C_12  and  C_13
REMARK    3  A    between atoms: C_13  and  C_14
REMARK    4  A    between atoms: C_14  and  C_15
REMARK    5  A    between atoms: N_17  and  C_18
REMARK    6  A    between atoms: C_25  and  O_27
REMARK    7  A    between atoms: C_30  and  C_31
REMARK                            x       y       z     vdW  Elec       q    Type
REMARK                         _______ _______ _______ _____ _____    ______ ____
ROOT
ATOM      1  C   UNL     1       2.499   4.050  -0.001  0.00  0.00    +0.045 C 
ATOM      2  C   UNL     1       1.207   3.274   0.008  0.00  0.00    -0.030 A 
ATOM      3  C   UNL     1      -0.086   3.965   0.023  0.00  0.00    +0.022 A 
ATOM      4  C   UNL     1      -0.150   5.359   0.030  0.00  0.00    +0.024 A 
ATOM      5  C   UNL     1      -1.389   5.981   0.045  0.00  0.00    +0.029 A 
ATOM      6  C   UNL     1      -2.573   5.218   0.052  0.00  0.00    +0.139 A 
ATOM      7  C   UNL     1      -2.502   3.833   0.045  0.00  0.00    +0.093 A 
ATOM      8  C   UNL     1      -1.270   3.200   0.030  0.00  0.00    +0.143 A 
ATOM      9  O   UNL     1      -1.195   1.850   0.018  0.00  0.00    -0.422 OA
ATOM     10  C   UNL     1      -0.014   1.214   0.009  0.00  0.00    +0.341 A 
ATOM     11  O   UNL     1       0.002  -0.004   0.002  0.00  0.00    -0.245 OA
ATOM     12  C   UNL     1       1.209   1.917   0.001  0.00  0.00    +0.041 A 
ATOM     13  O   UNL     1      -3.608   6.083   0.067  0.00  0.00    -0.462 OA
ATOM     14  C   UNL     1      -3.179   7.356   0.069  0.00  0.00    +0.204 A 
ATOM     15  C   UNL     1      -1.828   7.390   0.056  0.00  0.00    +0.028 A 
ENDROOT
BRANCH  15  16
ATOM     16  C   UNL     1      -0.965   8.595   0.054  0.00  0.00    -0.014 A 
ATOM     17  C   UNL     1       0.078   8.711   0.973  0.00  0.00    +0.008 A 
ATOM     18  C   UNL     1       0.882   9.832   0.962  0.00  0.00    +0.001 A 
ATOM     19  C   UNL     1       0.648  10.846   0.051  0.00  0.00    +0.000 A 
ATOM     20  C   UNL     1      -0.389  10.740  -0.859  0.00  0.00    +0.001 A 
ATOM     21  C   UNL     1      -1.196   9.620  -0.862  0.00  0.00    +0.008 A 
ENDBRANCH  15  16
BRANCH  12  22
ATOM     22  C   UNL     1       2.514   1.163  -0.016  0.00  0.00    +0.052 C 
BRANCH  22  23
ATOM     23  C   UNL     1       2.941   0.916  -1.464  0.00  0.00    +0.100 C 
BRANCH  23  24
ATOM     24  C   UNL     1       4.246   0.162  -1.480  0.00  0.00    +0.214 C 
ATOM     25  O   UNL     1       4.781  -0.147  -0.437  0.00  0.00    -0.276 OA
ATOM     26  N   UNL     1       4.819  -0.169  -2.655  0.00  0.00    -0.308 N 
ATOM     27  H   UNL     1       4.391   0.078  -3.489  0.00  0.00    +0.149 HD
BRANCH  26  28
ATOM     28  C   UNL     1       6.087  -0.902  -2.671  0.00  0.00    +0.124 C 
ATOM     29  C   UNL     1       7.262   0.103  -2.586  0.00  0.00    +0.190 C 
ATOM     30  S   UNL     1       8.581  -0.737  -3.554  0.00  0.00    -0.027 S 
ATOM     31  O   UNL     1       8.899   0.058  -4.688  0.00  0.00    -0.174 OA
ATOM     32  O   UNL     1       9.618  -1.140  -2.670  0.00  0.00    -0.174 OA
ATOM     33  C   UNL     1       7.651  -2.228  -4.109  0.00  0.00    +0.199 C 
ATOM     34  C   UNL     1       6.188  -1.719  -3.970  0.00  0.00    +0.157 C 
BRANCH  34  35
ATOM     35  O   UNL     1       5.294  -2.832  -3.910  0.00  0.00    -0.388 OA
ATOM     36  H   UNL     1       5.308  -3.390  -4.700  0.00  0.00    +0.210 HD
ENDBRANCH  34  35
ENDBRANCH  26  28
ENDBRANCH  23  24
ENDBRANCH  22  23
ENDBRANCH  12  22
TORSDOF 6
