REMARK  Name = ZINC04191269
REMARK  8 active torsions:
REMARK  status: ('A' for Active; 'I' for Inactive)
REMARK    1  A    between atoms: C_1  and  C_2
REMARK    2  A    between atoms: C_2  and  O_3
REMARK    3  A    between atoms: O_3  and  C_4
REMARK    4  A    between atoms: C_9  and  O_10
REMARK    5  A    between atoms: O_10  and  C_11
REMARK    6  A    between atoms: C_11  and  C_12
REMARK    7  A    between atoms: C_18  and  C_22
REMARK    8  A    between atoms: C_27  and  O_28
REMARK                            x       y       z     vdW  Elec       q    Type
REMARK                         _______ _______ _______ _____ _____    ______ ____
ROOT
ATOM      1  C   UNL     1       0.847  -1.843   1.360  0.00  0.00    +0.162 A 
ATOM      2  C   UNL     1       0.306  -2.654   0.374  0.00  0.00    +0.053 A 
ATOM      3  C   UNL     1       0.394  -4.026   0.488  0.00  0.00    -0.037 A 
ATOM      4  C   UNL     1       1.055  -4.584   1.579  0.00  0.00    +0.051 A 
ATOM      5  C   UNL     1       1.565  -3.786   2.582  0.00  0.00    +0.075 A 
ATOM      6  C   UNL     1       1.470  -2.406   2.470  0.00  0.00    +0.164 A 
ATOM      7  N   UNL     1       1.248  -5.978   1.556  0.00  0.00    -0.321 N 
ATOM      8  C   UNL     1       1.088  -6.903   2.528  0.00  0.00    +0.091 A 
ATOM      9  C   UNL     1       1.394  -8.112   2.003  0.00  0.00    +0.020 A 
ATOM     10  C   UNL     1       1.756  -7.910   0.653  0.00  0.00    +0.022 A 
ATOM     11  C   UNL     1       1.661  -6.592   0.404  0.00  0.00    +0.014 A 
ATOM     12  C   UNL     1       1.944  -5.861  -0.876  0.00  0.00    +0.011 C 
ATOM     13  N   UNL     1       0.690  -5.450  -1.532  0.00  0.00    +0.390 N 
ATOM     14  C   UNL     1      -0.244  -4.938  -0.515  0.00  0.00    -0.043 C 
ATOM     15  H   UNL     1       0.884  -4.725  -2.206  0.00  0.00    -0.084 HD
ATOM     16  H   UNL     1       0.278  -6.244  -1.998  0.00  0.00    -0.084 HD
ENDROOT
BRANCH  12  17
ATOM     17  C   UNL     1       2.715  -6.764  -1.803  0.00  0.00    -0.014 A 
ATOM     18  C   UNL     1       2.043  -7.542  -2.727  0.00  0.00    +0.006 A 
ATOM     19  C   UNL     1       2.750  -8.372  -3.578  0.00  0.00    +0.000 A 
ATOM     20  C   UNL     1       4.130  -8.425  -3.507  0.00  0.00    +0.004 A 
ATOM     21  C   UNL     1       4.806  -7.649  -2.586  0.00  0.00    +0.045 A 
ATOM     22  C   UNL     1       4.099  -6.812  -1.734  0.00  0.00    +0.119 A 
BRANCH  22  23
ATOM     23  O   UNL     1       4.763  -6.043  -0.831  0.00  0.00    -0.507 OA
ATOM     24  H   UNL     1       4.902  -6.473   0.024  0.00  0.00    +0.292 HD
ENDBRANCH  22  23
ENDBRANCH  12  17
BRANCH   1  25
ATOM     25  O   UNL     1       0.774  -0.490   1.239  0.00  0.00    -0.489 OA
BRANCH  25  27
ATOM     26  C   UNL     1       0.137   1.552   0.114  0.00  0.00    +0.048 C 
ATOM     27  C   UNL     1       0.122   0.023   0.075  0.00  0.00    +0.226 C 
ENDBRANCH  25  27
ENDBRANCH   1  25
BRANCH   6  28
ATOM     28  O   UNL     1       1.978  -1.606   3.445  0.00  0.00    -0.489 OA
BRANCH  28  29
ATOM     29  C   UNL     1       2.603  -2.253   4.556  0.00  0.00    +0.226 C 
ATOM     30  C   UNL     1       3.111  -1.199   5.541  0.00  0.00    +0.048 C 
ENDBRANCH  28  29
ENDBRANCH   6  28
TORSDOF 6
