REMARK  Name = ZINC20763857
REMARK  4 active torsions:
REMARK  status: ('A' for Active; 'I' for Inactive)
REMARK    1  A    between atoms: C_6  and  C_7
REMARK    2  A    between atoms: C_9  and  C_23
REMARK    3  A    between atoms: C_12  and  C_15
REMARK    4  A    between atoms: C_20  and  O_21
REMARK                            x       y       z     vdW  Elec       q    Type
REMARK                         _______ _______ _______ _____ _____    ______ ____
ROOT
ATOM      1  C   UNL     1       3.809   3.506   1.956  0.00  0.00    +0.040 C 
ATOM      2  N   UNL     1       3.452   3.205   0.764  0.00  0.00    -0.298 NA
ATOM      3  C   UNL     1       2.451   3.939  -0.000  0.00  0.00    +0.082 C 
ATOM      4  N   UNL     1       2.226   5.267   0.582  0.00  0.00    +0.401 N 
ATOM      5  C   UNL     1       1.957   5.151   2.026  0.00  0.00    -0.028 C 
ATOM      6  C   UNL     1       3.239   4.672   2.714  0.00  0.00    +0.044 C 
ATOM      7  H   UNL     1       3.120   5.890   0.432  0.00  0.00    -0.081 HD
ATOM      8  H   UNL     1       1.362   5.741   0.092  0.00  0.00    -0.081 HD
ENDROOT
BRANCH   1  14
ATOM      9  C   UNL     1       5.246   2.970   3.915  0.00  0.00    +0.013 A 
ATOM     10  C   UNL     1       6.195   2.183   4.533  0.00  0.00    +0.050 A 
ATOM     11  C   UNL     1       6.745   1.098   3.865  0.00  0.00    +0.166 A 
ATOM     12  C   UNL     1       6.335   0.796   2.566  0.00  0.00    +0.167 A 
ATOM     13  C   UNL     1       5.381   1.577   1.943  0.00  0.00    +0.059 A 
ATOM     14  C   UNL     1       4.828   2.669   2.617  0.00  0.00    -0.001 A 
ATOM     15  O   UNL     1       7.021  -0.305   2.138  0.00  0.00    -0.453 OA
ATOM     16  C   UNL     1       7.550  -0.915   3.331  0.00  0.00    +0.466 C 
ATOM     17  O   UNL     1       7.685   0.187   4.247  0.00  0.00    -0.453 OA
ENDBRANCH   1  14
BRANCH   3  18
ATOM     18  C   UNL     1       1.157   3.167   0.008  0.00  0.00    -0.022 A 
ATOM     19  C   UNL     1      -0.050   3.842   0.024  0.00  0.00    +0.006 A 
ATOM     20  C   UNL     1      -1.238   3.135   0.032  0.00  0.00    +0.020 A 
ATOM     21  C   UNL     1      -1.220   1.751   0.017  0.00  0.00    +0.042 A 
ATOM     22  C   UNL     1      -0.013   1.076   0.008  0.00  0.00    +0.040 A 
ATOM     23  C   UNL     1       1.176   1.784   0.000  0.00  0.00    +0.046 A 
ATOM     24 CL   UNL     1       2.691   0.937  -0.018  0.00  0.00    -0.083 Cl
ATOM     25 CL   UNL     1      -2.711   0.864   0.020  0.00  0.00    -0.083 Cl
ENDBRANCH   3  18
BRANCH   5  26
ATOM     26  C   UNL     1       1.553   6.494   2.578  0.00  0.00    -0.018 A 
ATOM     27  C   UNL     1       1.871   7.648   1.888  0.00  0.00    +0.025 A 
ATOM     28  C   UNL     1       1.500   8.881   2.394  0.00  0.00    +0.041 A 
ATOM     29  C   UNL     1       0.812   8.961   3.592  0.00  0.00    +0.023 A 
ATOM     30  C   UNL     1       0.493   7.809   4.285  0.00  0.00    +0.047 A 
ATOM     31  C   UNL     1       0.858   6.572   3.776  0.00  0.00    +0.119 A 
ATOM     32 CL   UNL     1       1.900  10.331   1.526  0.00  0.00    -0.084 Cl
BRANCH  31  33
ATOM     33  O   UNL     1       0.540   5.437   4.452  0.00  0.00    -0.507 OA
ATOM     34  H   UNL     1      -0.011   5.499   5.402  0.00  0.00    +0.292 HD
ENDBRANCH  31  33
ENDBRANCH   5  26
TORSDOF 4
