REMARK  Name = ZINC39617773
REMARK  5 active torsions:
REMARK  status: ('A' for Active; 'I' for Inactive)
REMARK    1  A    between atoms: C_8  and  C_13
REMARK    2  A    between atoms: C_13  and  C_14
REMARK    3  A    between atoms: C_14  and  C_15
REMARK    4  A    between atoms: N_20  and  S_23
REMARK    5  A    between atoms: S_23  and  C_26
REMARK                            x       y       z     vdW  Elec       q    Type
REMARK                         _______ _______ _______ _____ _____    ______ ____
ROOT
ATOM      1  C   UNL     1       1.669  -5.420  -2.468  0.00  0.00    +0.216 C 
ATOM      2  O   UNL     1       2.551  -5.258  -3.284  0.00  0.00    -0.276 OA
ATOM      3  N   UNL     1       0.749  -6.387  -2.654  0.00  0.00    -0.299 N 
ATOM      4  C   UNL     1      -0.330  -6.591  -1.677  0.00  0.00    +0.125 C 
ATOM      5  C   UNL     1      -1.676  -6.511  -2.408  0.00  0.00    +0.128 C 
ATOM      6  N   UNL     1      -1.619  -7.380  -3.592  0.00  0.00    -0.173 NA
ATOM      7  C   UNL     1      -0.540  -7.177  -4.569  0.00  0.00    +0.128 C 
ATOM      8  C   UNL     1       0.802  -7.253  -3.840  0.00  0.00    +0.125 C 
ENDROOT
BRANCH   6   9
ATOM      9  S   UNL     1      -2.749  -8.569  -3.820  0.00  0.00    +0.067 S 
ATOM     10  O   UNL     1      -2.150  -9.543  -4.664  0.00  0.00    -0.152 OA
ATOM     11  O   UNL     1      -3.268  -8.888  -2.536  0.00  0.00    -0.152 OA
BRANCH   9  12
ATOM     12  C   UNL     1      -4.075  -7.857  -4.737  0.00  0.00    +0.143 A 
ATOM     13  C   UNL     1      -4.248  -7.794  -6.079  0.00  0.00    +0.036 A 
ATOM     14  C   UNL     1      -5.380  -7.180  -6.582  0.00  0.00    +0.010 A 
ATOM     15  C   UNL     1      -6.284  -6.660  -5.716  0.00  0.00    +0.047 A 
ATOM     16  S   UNL     1      -5.544  -7.038  -4.137  0.00  0.00    -0.077 S 
ENDBRANCH   9  12
ENDBRANCH   6   9
BRANCH   1  17
ATOM     17  C   UNL     1       1.601  -4.540  -1.246  0.00  0.00    +0.098 C 
BRANCH  17  18
ATOM     18  C   UNL     1       2.752  -3.533  -1.278  0.00  0.00    +0.043 C 
BRANCH  18  26
ATOM     19  C   UNL     1      -0.016   1.347   0.009  0.00  0.00    +0.002 A 
ATOM     20  C   UNL     1       1.169   2.101   0.002  0.00  0.00    +0.002 A 
ATOM     21  C   UNL     1       2.398   1.533  -0.013  0.00  0.00    +0.025 A 
ATOM     22  C   UNL     1       2.536   0.127  -0.022  0.00  0.00    +0.057 A 
ATOM     23  N   UNL     1       3.739  -0.422  -0.036  0.00  0.00    -0.282 N 
ATOM     24  C   UNL     1       3.903  -1.747  -0.045  0.00  0.00    +0.240 C 
ATOM     25  O   UNL     1       5.019  -2.228  -0.058  0.00  0.00    -0.273 OA
ATOM     26  C   UNL     1       2.683  -2.640  -0.038  0.00  0.00    +0.166 C 
ATOM     27  N   UNL     1       1.360  -1.997  -0.022  0.00  0.00    -0.372 N 
ATOM     28  C   UNL     1       1.301  -0.697  -0.014  0.00  0.00    +0.057 A 
ATOM     29  C   UNL     1       0.002  -0.004   0.002  0.00  0.00    +0.027 A 
ATOM     30  H   UNL     1       0.550  -2.531  -0.017  0.00  0.00    +0.160 HD
ATOM     31  H   UNL     1       4.521   0.152  -0.041  0.00  0.00    +0.155 HD
ENDBRANCH  18  26
ENDBRANCH  17  18
ENDBRANCH   1  17
TORSDOF 5
