REMARK  Name = ZINC12324782
REMARK  6 active torsions:
REMARK  status: ('A' for Active; 'I' for Inactive)
REMARK    1  A    between atoms: C_1  and  C_2
REMARK    2  A    between atoms: C_2  and  C_3
REMARK    3  A    between atoms: C_2  and  C_4
REMARK    4  A    between atoms: C_7  and  N_10
REMARK    5  A    between atoms: C_11  and  C_13
REMARK    6  A    between atoms: C_21  and  N_30
REMARK                            x       y       z     vdW  Elec       q    Type
REMARK                         _______ _______ _______ _____ _____    ______ ____
ROOT
ATOM      1  C   UNL     1      -7.151  -2.828  -1.100  0.00  0.00    +0.121 C 
ATOM      2  C   UNL     1      -7.992  -1.568  -1.321  0.00  0.00    +0.113 C 
ATOM      3  C   UNL     1      -9.438  -1.947  -1.501  0.00  0.00    +0.219 C 
ATOM      4  O   UNL     1     -10.306  -1.241  -1.033  0.00  0.00    -0.275 OA
ATOM      5  N   UNL     1      -9.778  -3.059  -2.176  0.00  0.00    -0.270 N 
ATOM      6  C   UNL     1      -8.805  -3.941  -2.626  0.00  0.00    +0.136 A 
ATOM      7  C   UNL     1      -7.510  -3.860  -2.134  0.00  0.00    +0.045 A 
ATOM      8  C   UNL     1      -6.554  -4.748  -2.614  0.00  0.00    +0.127 A 
ATOM      9  N   UNL     1      -6.918  -5.658  -3.515  0.00  0.00    -0.199 NA
ATOM     10  C   UNL     1      -8.169  -5.723  -3.945  0.00  0.00    +0.221 A 
ATOM     11  N   UNL     1      -9.102  -4.888  -3.510  0.00  0.00    -0.199 NA
ATOM     12  N   UNL     1      -8.512  -6.689  -4.874  0.00  0.00    -0.300 N 
ATOM     13  C   UNL     1      -9.850  -6.886  -5.452  0.00  0.00    +0.108 C 
ATOM     14  C   UNL     1      -9.760  -8.090  -6.414  0.00  0.00    +0.020 C 
ATOM     15  C   UNL     1      -8.514  -8.856  -5.897  0.00  0.00    +0.020 C 
ATOM     16  C   UNL     1      -7.595  -7.688  -5.453  0.00  0.00    +0.108 C 
ATOM     17  H   UNL     1     -10.713  -3.247  -2.350  0.00  0.00    +0.156 HD
ENDROOT
BRANCH   1  19
ATOM     18  N   UNL     1      -4.875  -2.613  -0.155  0.00  0.00    -0.285 N 
ATOM     19  C   UNL     1      -5.689  -2.483  -1.221  0.00  0.00    +0.225 C 
ATOM     20  O   UNL     1      -5.245  -2.088  -2.279  0.00  0.00    -0.275 OA
ATOM     21  H   UNL     1      -5.215  -2.992   0.671  0.00  0.00    +0.155 HD
BRANCH  18  25
ATOM     22  C   UNL     1      -0.902  -1.387  -0.404  0.00  0.00    -0.045 A 
ATOM     23  C   UNL     1      -1.878  -0.709  -1.110  0.00  0.00    +0.006 A 
ATOM     24  C   UNL     1      -3.197  -1.113  -1.030  0.00  0.00    +0.023 A 
ATOM     25  C   UNL     1      -3.541  -2.201  -0.239  0.00  0.00    +0.033 A 
ATOM     26  C   UNL     1      -2.558  -2.880   0.469  0.00  0.00    +0.023 A 
ATOM     27  C   UNL     1      -1.240  -2.474   0.381  0.00  0.00    +0.006 A 
BRANCH  22  29
ATOM     28  C   UNL     1       1.003  -1.020  -1.948  0.00  0.00    +0.012 C 
ATOM     29  C   UNL     1       0.536  -0.943  -0.494  0.00  0.00    +0.013 C 
ATOM     30  C   UNL     1       0.657   0.498   0.006  0.00  0.00    +0.012 C 
ENDBRANCH  22  29
ENDBRANCH  18  25
ENDBRANCH   1  19
BRANCH   8  31
ATOM     31  N   UNL     1      -5.245  -4.687  -2.162  0.00  0.00    -0.343 N 
ATOM     32  H   UNL     1      -5.060  -4.428  -1.245  0.00  0.00    +0.144 HD
ATOM     33  H   UNL     1      -4.514  -4.904  -2.761  0.00  0.00    +0.144 HD
ENDBRANCH   8  31
TORSDOF 4
