REMARK  Name = ZINC62749657
REMARK  4 active torsions:
REMARK  status: ('A' for Active; 'I' for Inactive)
REMARK    1  A    between atoms: C_1  and  C_2
REMARK    2  A    between atoms: C_5  and  C_22
REMARK    3  A    between atoms: N_8  and  C_10
REMARK    4  A    between atoms: C_17  and  C_19
REMARK                            x       y       z     vdW  Elec       q    Type
REMARK                         _______ _______ _______ _____ _____    ______ ____
ROOT
ATOM      1  C   UNL     1       2.437  -0.534   2.369  0.00  0.00    -0.055 C 
ATOM      2  C   UNL     1       2.351  -2.063   2.545  0.00  0.00    -0.014 C 
ATOM      3  C   UNL     1       2.959  -2.528   3.840  0.00  0.00    -0.002 C 
ATOM      4  C   UNL     1       1.841  -2.631   4.897  0.00  0.00    -0.000 C 
ATOM      5  C   UNL     1       1.499  -1.337   5.470  0.00  0.00    +0.001 C 
ATOM      6  C   UNL     1       0.956  -0.352   4.415  0.00  0.00    +0.013 C 
ATOM      7  C   UNL     1       2.120   0.233   3.666  0.00  0.00    +0.089 C 
ENDROOT
BRANCH   1  13
ATOM      8  C   UNL     1      -0.643   1.674   0.513  0.00  0.00    +0.005 C 
ATOM      9  C   UNL     1      -0.883   0.185   0.774  0.00  0.00    -0.031 C 
ATOM     10  C   UNL     1      -0.689  -0.600  -0.527  0.00  0.00    +0.003 C 
ATOM     11  C   UNL     1       0.763  -0.450  -0.990  0.00  0.00    -0.031 C 
ATOM     12  C   UNL     1       1.699  -0.929   0.122  0.00  0.00    -0.075 C 
ATOM     13  N   UNL     1       1.483  -0.123   1.330  0.00  0.00    +0.382 N 
ATOM     14  C   UNL     1       0.113  -0.317   1.821  0.00  0.00    -0.075 C 
ATOM     15  C   UNL     1       0.988  -1.293  -2.247  0.00  0.00    +0.005 C 
ATOM     16  H   UNL     1       1.626   0.852   1.112  0.00  0.00    -0.081 HD
ENDBRANCH   1  13
BRANCH   7  17
ATOM     17  C   UNL     1       1.803   1.665   3.320  0.00  0.00    +0.357 C 
ATOM     18  O   UNL     1       0.894   2.244   3.891  0.00  0.00    -0.246 OA
ATOM     19  O   UNL     1       2.455   2.246   2.470  0.00  0.00    -0.246 OA
ENDBRANCH   7  17
TORSDOF 2
