REMARK  Name = ZINC07282364
REMARK  3 active torsions:
REMARK  status: ('A' for Active; 'I' for Inactive)
REMARK    1  A    between atoms: C_6  and  C_7
REMARK    2  A    between atoms: N_9  and  N_10
REMARK    3  A    between atoms: C_11  and  C_13
REMARK                            x       y       z     vdW  Elec       q    Type
REMARK                         _______ _______ _______ _____ _____    ______ ____
ROOT
ATOM      1  C   UNL     1      -1.658   5.108   2.846  0.00  0.00    +0.260 C 
ATOM      2  O   UNL     1      -1.214   5.909   2.046  0.00  0.00    -0.269 OA
ATOM      3  N   UNL     1      -1.519   3.786   2.625  0.00  0.00    -0.230 N 
ATOM      4  H   UNL     1      -1.873   3.147   3.263  0.00  0.00    +0.173 HD
ENDROOT
BRANCH   1  10
ATOM      5  C   UNL     1      -2.858   4.663   4.980  0.00  0.00    +0.014 A 
ATOM      6  C   UNL     1      -3.504   5.104   6.114  0.00  0.00    +0.017 A 
ATOM      7  C   UNL     1      -3.647   6.467   6.343  0.00  0.00    +0.029 A 
ATOM      8  C   UNL     1      -3.139   7.393   5.428  0.00  0.00    +0.048 A 
ATOM      9  C   UNL     1      -2.487   6.956   4.293  0.00  0.00    +0.037 A 
ATOM     10  C   UNL     1      -2.348   5.583   4.060  0.00  0.00    +0.040 A 
ATOM     11  N   UNL     1      -3.290   8.765   5.681  0.00  0.00    -0.285 N 
ATOM     12  C   UNL     1      -2.936   9.277   6.866  0.00  0.00    +0.218 C 
ATOM     13  O   UNL     1      -3.249  10.417   7.139  0.00  0.00    -0.275 OA
ATOM     14  C   UNL     1      -2.159   8.469   7.863  0.00  0.00    +0.107 C 
ATOM     15  C   UNL     1      -3.114   7.716   8.805  0.00  0.00    +0.083 C 
ATOM     16  S   UNL     1      -4.473   7.051   7.788  0.00  0.00    -0.123 S 
ATOM     17  H   UNL     1      -3.653   9.345   4.994  0.00  0.00    +0.155 HD
ENDBRANCH   1  10
BRANCH   3  18
ATOM     18  N   UNL     1      -0.863   3.334   1.472  0.00  0.00    -0.234 N 
ATOM     19  C   UNL     1      -0.724   2.012   1.250  0.00  0.00    +0.235 C 
ATOM     20  O   UNL     1      -1.167   1.213   2.049  0.00  0.00    -0.274 OA
ATOM     21  H   UNL     1      -0.509   3.973   0.834  0.00  0.00    +0.173 HD
BRANCH  19  22
ATOM     22  C   UNL     1      -0.019   1.526   0.010  0.00  0.00    +0.049 C 
ATOM     23  C   UNL     1       1.417   2.055  -0.000  0.00  0.00    +0.019 C 
ATOM     24  C   UNL     1       2.133   1.562  -1.259  0.00  0.00    -0.009 C 
ATOM     25  C   UNL     1       2.154   0.032  -1.268  0.00  0.00    +0.007 C 
ATOM     26  C   UNL     1       0.718  -0.497  -1.257  0.00  0.00    -0.009 C 
ATOM     27  C   UNL     1       0.002  -0.004   0.002  0.00  0.00    +0.019 C 
ATOM     28  C   UNL     1      -0.022   0.009  -2.496  0.00  0.00    +0.007 C 
ATOM     29  C   UNL     1      -0.043   1.539  -2.488  0.00  0.00    -0.009 C 
ATOM     30  C   UNL     1       1.393   2.069  -2.499  0.00  0.00    +0.007 C 
ATOM     31  C   UNL     1      -0.759   2.033  -1.229  0.00  0.00    +0.019 C 
ENDBRANCH  19  22
ENDBRANCH   3  18
TORSDOF 3
