REMARK  Name = ZINC66782826
REMARK  8 active torsions:
REMARK  status: ('A' for Active; 'I' for Inactive)
REMARK    1  A    between atoms: C_4  and  C_7
REMARK    2  A    between atoms: C_7  and  C_8
REMARK    3  A    between atoms: C_8  and  C_9
REMARK    4  A    between atoms: N_11  and  N_12
REMARK    5  A    between atoms: C_13  and  C_15
REMARK    6  A    between atoms: C_15  and  N_16
REMARK    7  A    between atoms: N_19  and  C_20
REMARK    8  A    between atoms: C_20  and  C_21
REMARK                            x       y       z     vdW  Elec       q    Type
REMARK                         _______ _______ _______ _____ _____    ______ ____
ROOT
ATOM      1  N   UNL     1       4.590  -4.240  -5.040  0.00  0.00    -0.233 N 
ATOM      2  C   UNL     1       4.819  -5.557  -5.213  0.00  0.00    +0.246 C 
ATOM      3  O   UNL     1       4.456  -6.351  -4.371  0.00  0.00    -0.273 OA
ATOM      4  H   UNL     1       4.880  -3.605  -5.714  0.00  0.00    +0.173 HD
ENDROOT
BRANCH   1   7
ATOM      5  C   UNL     1       3.706  -2.471  -3.715  0.00  0.00    +0.229 C 
ATOM      6  O   UNL     1       4.068  -1.677  -4.557  0.00  0.00    -0.274 OA
ATOM      7  N   UNL     1       3.934  -3.788  -3.887  0.00  0.00    -0.234 N 
ATOM      8  H   UNL     1       3.645  -4.423  -3.214  0.00  0.00    +0.173 HD
BRANCH   5   9
ATOM      9  C   UNL     1       3.001  -1.985  -2.475  0.00  0.00    +0.097 C 
BRANCH   9  10
ATOM     10  C   UNL     1       2.870  -0.461  -2.526  0.00  0.00    +0.013 C 
BRANCH  10  14
ATOM     11  C   UNL     1      -0.019   1.526   0.010  0.00  0.00    +0.000 C 
ATOM     12  C   UNL     1       1.417   2.055  -0.000  0.00  0.00    +0.000 C 
ATOM     13  C   UNL     1       2.133   1.562  -1.259  0.00  0.00    +0.003 C 
ATOM     14  C   UNL     1       2.154   0.032  -1.268  0.00  0.00    -0.011 C 
ATOM     15  C   UNL     1       0.718  -0.497  -1.257  0.00  0.00    +0.003 C 
ATOM     16  C   UNL     1       0.002  -0.004   0.002  0.00  0.00    +0.000 C 
ENDBRANCH  10  14
ENDBRANCH   9  10
ENDBRANCH   5   9
ENDBRANCH   1   7
BRANCH   2  17
ATOM     17  C   UNL     1       5.524  -6.043  -6.453  0.00  0.00    +0.203 C 
BRANCH  17  18
ATOM     18  N   UNL     1       5.649  -7.501  -6.403  0.00  0.00    -0.291 N 
ATOM     19  C   UNL     1       6.251  -8.161  -7.413  0.00  0.00    +0.300 C 
ATOM     20  O   UNL     1       6.690  -7.545  -8.365  0.00  0.00    -0.253 OA
ATOM     21  N   UNL     1       6.367  -9.503  -7.367  0.00  0.00    -0.299 N 
ATOM     22  H   UNL     1       5.299  -7.993  -5.644  0.00  0.00    +0.151 HD
ATOM     23  H   UNL     1       6.016  -9.994  -6.608  0.00  0.00    +0.150 HD
BRANCH  21  24
ATOM     24  C   UNL     1       7.021 -10.220  -8.465  0.00  0.00    +0.109 C 
BRANCH  24  25
ATOM     25  C   UNL     1       7.019 -11.720  -8.167  0.00  0.00    +0.006 C 
ATOM     26  C   UNL     1       7.941 -12.021  -6.967  0.00  0.00    +0.005 C 
ATOM     27  C   UNL     1       8.605 -13.374  -7.328  0.00  0.00    +0.000 C 
ATOM     28  C   UNL     1       8.840 -13.242  -8.854  0.00  0.00    +0.000 C 
ATOM     29  C   UNL     1       7.590 -12.496  -9.366  0.00  0.00    +0.005 C 
ENDBRANCH  24  25
ENDBRANCH  21  24
ENDBRANCH  17  18
ENDBRANCH   2  17
TORSDOF 8
