REMARK  Name = ZINC03291851
REMARK  6 active torsions:
REMARK  status: ('A' for Active; 'I' for Inactive)
REMARK    1  A    between atoms: C_1  and  C_2
REMARK    2  A    between atoms: C_9  and  C_11
REMARK    3  A    between atoms: C_14  and  N_17
REMARK    4  A    between atoms: C_18  and  C_20
REMARK    5  A    between atoms: C_20  and  S_21
REMARK    6  A    between atoms: S_21  and  C_22
REMARK                            x       y       z     vdW  Elec       q    Type
REMARK                         _______ _______ _______ _____ _____    ______ ____
ROOT
ATOM      1  N   UNL     1       3.348   8.222   0.015  0.00  0.00    -0.285 N 
ATOM      2  C   UNL     1       4.117   7.131  -0.169  0.00  0.00    +0.227 C 
ATOM      3  O   UNL     1       5.312   7.253  -0.337  0.00  0.00    -0.275 OA
ATOM      4  H   UNL     1       2.384   8.131   0.073  0.00  0.00    +0.155 HD
ENDROOT
BRANCH   1   8
ATOM      5  C   UNL     1       5.109  11.986   0.334  0.00  0.00    +0.007 A 
ATOM      6  C   UNL     1       3.855  11.848  -0.264  0.00  0.00    +0.012 A 
ATOM      7  C   UNL     1       3.275  10.603  -0.368  0.00  0.00    +0.024 A 
ATOM      8  C   UNL     1       3.938   9.483   0.121  0.00  0.00    +0.033 A 
ATOM      9  C   UNL     1       5.185   9.617   0.722  0.00  0.00    +0.024 A 
ATOM     10  C   UNL     1       5.772  10.859   0.825  0.00  0.00    +0.012 A 
BRANCH   5  19
ATOM     11  C   UNL     1       8.490  19.049   0.973  0.00  0.00    +0.044 C 
ATOM     12  C   UNL     1       7.613  17.852   0.716  0.00  0.00    -0.049 A 
ATOM     13  C   UNL     1       6.384  18.004   0.089  0.00  0.00    +0.005 A 
ATOM     14  C   UNL     1       5.571  16.943  -0.157  0.00  0.00    +0.029 A 
ATOM     15  C   UNL     1       5.953  15.633   0.221  0.00  0.00    +0.079 A 
ATOM     16  C   UNL     1       7.210  15.510   0.858  0.00  0.00    +0.040 A 
ATOM     17  C   UNL     1       8.024  16.589   1.103  0.00  0.00    +0.020 A 
ATOM     18  S   UNL     1       7.311  13.763   1.161  0.00  0.00    -0.067 S 
ATOM     19  C   UNL     1       5.733  13.320   0.448  0.00  0.00    +0.109 A 
ATOM     20  N   UNL     1       5.272  14.484   0.046  0.00  0.00    -0.239 NA
ENDBRANCH   5  19
ENDBRANCH   1   8
BRANCH   2  21
ATOM     21  C   UNL     1       3.493   5.759  -0.165  0.00  0.00    +0.173 C 
BRANCH  21  22
ATOM     22  S   UNL     1       4.776   4.511  -0.434  0.00  0.00    -0.078 S 
BRANCH  22  23
ATOM     23  C   UNL     1       3.796   3.048  -0.384  0.00  0.00    +0.170 A 
ATOM     24  N   UNL     1       4.410   1.844  -0.551  0.00  0.00    -0.301 N 
ATOM     25  H   UNL     1       5.370   1.830  -0.694  0.00  0.00    +0.171 HD
ATOM     26  C   UNL     1       3.743   0.667  -0.528  0.00  0.00    +0.261 A 
ATOM     27  O   UNL     1       4.311  -0.402  -0.679  0.00  0.00    -0.267 OA
ATOM     28  C   UNL     1       2.329   0.753  -0.314  0.00  0.00    +0.075 A 
ATOM     29  C   UNL     1       1.391  -0.355  -0.247  0.00  0.00    -0.023 A 
ATOM     30  C   UNL     1       0.093  -0.040  -0.036  0.00  0.00    -0.004 A 
ATOM     31  S   UNL     1       0.057   1.731   0.082  0.00  0.00    -0.073 S 
ATOM     32  C   UNL     1       1.778   2.045  -0.150  0.00  0.00    +0.117 A 
ATOM     33  N   UNL     1       2.490   3.164  -0.184  0.00  0.00    -0.216 NA
ATOM     34  C   UNL     1      -1.065  -0.985   0.072  0.00  0.00    +0.043 C 
ATOM     35  C   UNL     1      -0.625  -2.356  -0.459  0.00  0.00    +0.005 C 
ATOM     36  C   UNL     1       0.726  -2.715   0.169  0.00  0.00    +0.005 C 
ATOM     37  C   UNL     1       1.819  -1.812  -0.403  0.00  0.00    +0.037 C 
ENDBRANCH  22  23
ENDBRANCH  21  22
ENDBRANCH   2  21
TORSDOF 5
