REMARK  Name = ZINC08868024
REMARK  5 active torsions:
REMARK  status: ('A' for Active; 'I' for Inactive)
REMARK    1  A    between atoms: C_4  and  C_7
REMARK    2  A    between atoms: C_7  and  N_8
REMARK    3  A    between atoms: C_17  and  C_25
REMARK    4  A    between atoms: C_17  and  C_29
REMARK    5  A    between atoms: C_18  and  C_20
REMARK                            x       y       z     vdW  Elec       q    Type
REMARK                         _______ _______ _______ _____ _____    ______ ____
ROOT
ATOM      1  N   UNL     1       3.602   5.625   1.086  0.00  0.00    -0.277 N 
ATOM      2  C   UNL     1       2.387   5.902   0.509  0.00  0.00    +0.120 A 
ATOM      3  C   UNL     1       1.838   7.142   0.651  0.00  0.00    +0.098 A 
ATOM      4  C   UNL     1       2.530   8.112   1.396  0.00  0.00    +0.262 A 
ATOM      5  O   UNL     1       2.059   9.227   1.542  0.00  0.00    -0.267 OA
ATOM      6  N   UNL     1       3.719   7.800   1.950  0.00  0.00    -0.275 N 
ATOM      7  H   UNL     1       4.213   8.487   2.482  0.00  0.00    +0.173 HD
ATOM      8  C   UNL     1       4.247   6.572   1.794  0.00  0.00    +0.331 A 
ATOM      9  O   UNL     1       5.321   6.313   2.300  0.00  0.00    -0.246 OA
ATOM     10  C   UNL     1       0.515   7.472   0.022  0.00  0.00    +0.264 C 
ATOM     11  C   UNL     1       0.370   5.105  -0.474  0.00  0.00    +0.113 C 
ATOM     12  N   UNL     1       1.715   4.937  -0.200  0.00  0.00    -0.286 N 
ATOM     13  H   UNL     1       2.183   4.145  -0.509  0.00  0.00    +0.155 HD
ATOM     14  N   UNL     1      -0.292   6.268  -0.387  0.00  0.00    -0.348 N 
ATOM     15  H   UNL     1      -1.297   6.334  -0.588  0.00  0.00    +0.162 HD
ENDROOT
BRANCH  11  16
ATOM     16  C   UNL     1      -0.430   3.942  -0.888  0.00  0.00    +0.050 A 
ATOM     17  C   UNL     1      -1.775   3.878  -1.203  0.00  0.00    +0.019 A 
ATOM     18  C   UNL     1      -2.274   2.650  -1.570  0.00  0.00    +0.008 A 
ATOM     19  C   UNL     1      -1.443   1.577  -1.594  0.00  0.00    +0.046 A 
ATOM     20  S   UNL     1       0.082   2.248  -1.116  0.00  0.00    -0.094 S 
ENDBRANCH  11  16
BRANCH  10  21
ATOM     21  C   UNL     1       0.751   8.336  -1.218  0.00  0.00    +0.426 C 
ATOM     22  F   UNL     1      -0.479   8.683  -1.786  0.00  0.00    -0.167 F 
ATOM     23  F   UNL     1       1.439   9.498  -0.852  0.00  0.00    -0.167 F 
ATOM     24  F   UNL     1       1.509   7.619  -2.149  0.00  0.00    -0.167 F 
ENDBRANCH  10  21
BRANCH  10  25
ATOM     25  C   UNL     1      -0.334   8.256   1.025  0.00  0.00    +0.426 C 
ATOM     26  F   UNL     1      -0.244   7.652   2.284  0.00  0.00    -0.167 F 
ATOM     27  F   UNL     1       0.135   9.572   1.105  0.00  0.00    -0.167 F 
ATOM     28  F   UNL     1      -1.668   8.261   0.604  0.00  0.00    -0.167 F 
ENDBRANCH  10  25
BRANCH   1  29
ATOM     29  C   UNL     1       4.199   4.297   0.930  0.00  0.00    +0.163 C 
BRANCH  29  33
ATOM     30  C   UNL     1       2.910   1.773   4.127  0.00  0.00    +0.000 A 
ATOM     31  C   UNL     1       2.177   1.835   2.957  0.00  0.00    +0.000 A 
ATOM     32  C   UNL     1       2.594   2.652   1.923  0.00  0.00    +0.005 A 
ATOM     33  C   UNL     1       3.744   3.406   2.058  0.00  0.00    -0.028 A 
ATOM     34  C   UNL     1       4.480   3.340   3.226  0.00  0.00    +0.005 A 
ATOM     35  C   UNL     1       4.061   2.528   4.263  0.00  0.00    +0.000 A 
ENDBRANCH  29  33
ENDBRANCH   1  29
TORSDOF 5
