REMARK  Name = ZINC15065203
REMARK  6 active torsions:
REMARK  status: ('A' for Active; 'I' for Inactive)
REMARK    1  A    between atoms: C_1  and  C_2
REMARK    2  A    between atoms: C_2  and  C_4
REMARK    3  A    between atoms: C_2  and  N_15
REMARK    4  A    between atoms: C_6  and  C_9
REMARK    5  A    between atoms: C_16  and  C_18
REMARK    6  A    between atoms: N_20  and  C_23
REMARK                            x       y       z     vdW  Elec       q    Type
REMARK                         _______ _______ _______ _____ _____    ______ ____
ROOT
ATOM      1  N   UNL     1       3.138  -2.011  -0.038  0.00  0.00    -0.299 N 
ATOM      2  C   UNL     1       1.812  -1.771  -0.024  0.00  0.00    +0.266 C 
ATOM      3  O   UNL     1       1.026  -2.698  -0.021  0.00  0.00    -0.268 OA
ATOM      4  H   UNL     1       3.765  -1.272  -0.041  0.00  0.00    +0.150 HD
ENDROOT
BRANCH   2   5
ATOM      5  C   UNL     1       1.315  -0.382  -0.013  0.00  0.00    +0.167 A 
ATOM      6  C   UNL     1       0.002  -0.004   0.002  0.00  0.00    +0.143 A 
ATOM      7  N   UNL     1      -0.016   1.344   0.009  0.00  0.00    -0.248 N 
ATOM      8  N   UNL     1       1.320   1.768  -0.001  0.00  0.00    -0.065 NA
ATOM      9  N   UNL     1       2.076   0.725  -0.014  0.00  0.00    -0.125 NA
BRANCH   7  10
ATOM     10  C   UNL     1      -1.204   2.201   0.020  0.00  0.00    +0.109 C 
ATOM     11  C   UNL     1      -2.279   1.555   0.918  0.00  0.00    +0.027 C 
ATOM     12  C   UNL     1      -3.254   2.620   1.340  0.00  0.00    +0.002 C 
ATOM     13  C   UNL     1      -4.482   2.696   0.413  0.00  0.00    +0.000 C 
ATOM     14  C   UNL     1      -4.116   2.561  -1.077  0.00  0.00    +0.000 C 
ATOM     15  C   UNL     1      -2.877   3.335  -1.438  0.00  0.00    +0.002 C 
ATOM     16  C   UNL     1      -1.663   2.387  -1.349  0.00  0.00    +0.027 C 
ENDBRANCH   7  10
ENDBRANCH   2   5
BRANCH   1  18
ATOM     17  C   UNL     1       3.700  -3.920   1.384  0.00  0.00    +0.038 C 
ATOM     18  C   UNL     1       3.632  -3.391  -0.050  0.00  0.00    +0.159 C 
BRANCH  18  19
ATOM     19  C   UNL     1       5.008  -3.426  -0.664  0.00  0.00    +0.248 A 
ATOM     20  N   UNL     1       5.441  -4.285  -1.553  0.00  0.00    -0.190 NA
ATOM     21  C   UNL     1       6.721  -3.930  -1.807  0.00  0.00    +0.202 A 
ATOM     22  N   UNL     1       6.987  -2.887  -1.065  0.00  0.00    -0.056 NA
ATOM     23  O   UNL     1       6.014  -2.584  -0.408  0.00  0.00    -0.336 OA
BRANCH  21  24
ATOM     24  C   UNL     1       7.650  -4.600  -2.751  0.00  0.00    +0.022 A 
ATOM     25  C   UNL     1       7.228  -5.712  -3.476  0.00  0.00    +0.012 A 
ATOM     26  C   UNL     1       8.095  -6.328  -4.357  0.00  0.00    +0.001 A 
ATOM     27  C   UNL     1       9.383  -5.849  -4.512  0.00  0.00    +0.000 A 
ATOM     28  C   UNL     1       9.808  -4.748  -3.791  0.00  0.00    +0.001 A 
ATOM     29  C   UNL     1       8.949  -4.121  -2.912  0.00  0.00    +0.012 A 
ENDBRANCH  21  24
ENDBRANCH  18  19
ENDBRANCH   1  18
TORSDOF 5
