REMARK  Name = ZINC24460385
REMARK  5 active torsions:
REMARK  status: ('A' for Active; 'I' for Inactive)
REMARK    1  A    between atoms: C_8  and  C_10
REMARK    2  A    between atoms: C_13  and  C_16
REMARK    3  A    between atoms: C_21  and  C_23
REMARK    4  A    between atoms: C_23  and  S_24
REMARK    5  A    between atoms: S_24  and  C_25
REMARK                            x       y       z     vdW  Elec       q    Type
REMARK                         _______ _______ _______ _____ _____    ______ ____
ROOT
ATOM      1  C   UNL     1       2.478   3.713  -0.003  0.00  0.00    +0.104 C 
ATOM      2  N   UNL     1       1.260   3.287   0.002  0.00  0.00    -0.178 NA
ATOM      3  N   UNL     1       1.143   1.899   0.001  0.00  0.00    -0.181 N 
ATOM      4  C   UNL     1       2.491   1.308  -0.015  0.00  0.00    +0.173 C 
ATOM      5  C   UNL     1       3.425   2.534  -0.018  0.00  0.00    +0.093 C 
ATOM      6  C   UNL     1      -0.014   1.209   0.009  0.00  0.00    +0.246 C 
ATOM      7  O   UNL     1       0.002  -0.004   0.002  0.00  0.00    -0.273 OA
ENDROOT
BRANCH   1  15
ATOM      8  C   UNL     1       3.647   9.639   0.009  0.00  0.00    +0.001 A 
ATOM      9  C   UNL     1       4.959   9.185  -0.007  0.00  0.00    +0.004 A 
ATOM     10  C   UNL     1       5.237   7.834  -0.015  0.00  0.00    +0.047 A 
ATOM     11  C   UNL     1       4.197   6.914  -0.007  0.00  0.00    +0.136 A 
ATOM     12  C   UNL     1       2.869   7.380   0.009  0.00  0.00    +0.021 A 
ATOM     13  C   UNL     1       2.608   8.751   0.017  0.00  0.00    +0.011 A 
ATOM     14  C   UNL     1       2.029   6.182   0.007  0.00  0.00    +0.059 A 
ATOM     15  C   UNL     1       2.882   5.123  -0.001  0.00  0.00    +0.152 A 
ATOM     16  O   UNL     1       4.156   5.566  -0.013  0.00  0.00    -0.454 OA
ENDBRANCH   1  15
BRANCH   4  17
ATOM     17  C   UNL     1       2.693   0.481  -1.258  0.00  0.00    +0.128 A 
ATOM     18  C   UNL     1       3.354  -0.689  -1.327  0.00  0.00    +0.046 A 
ATOM     19  C   UNL     1       3.299  -1.112  -2.674  0.00  0.00    +0.041 A 
ATOM     20  C   UNL     1       2.607  -0.176  -3.349  0.00  0.00    +0.195 A 
ATOM     21  O   UNL     1       2.238   0.784  -2.485  0.00  0.00    -0.466 OA
ENDBRANCH   4  17
BRANCH   6  22
ATOM     22  C   UNL     1      -1.330   1.945   0.019  0.00  0.00    +0.174 C 
BRANCH  22  23
ATOM     23  S   UNL     1      -2.692   0.747   0.019  0.00  0.00    -0.088 S 
BRANCH  23  24
ATOM     24  C   UNL     1      -4.141   1.750   0.031  0.00  0.00    +0.160 A 
ATOM     25  N   UNL     1      -4.247   3.065   0.045  0.00  0.00    -0.133 NA
ATOM     26  N   UNL     1      -5.492   3.651   0.048  0.00  0.00    -0.125 NA
ATOM     27  C   UNL     1      -6.573   2.895   0.049  0.00  0.00    +0.180 A 
ATOM     28  S   UNL     1      -5.858   1.258   0.037  0.00  0.00    -0.025 S 
ATOM     29  N   UNL     1      -7.911   3.272   0.057  0.00  0.00    -0.336 N 
ATOM     30  H   UNL     1      -8.699   2.504   0.057  0.00  0.00    +0.144 HD
ATOM     31  H   UNL     1      -8.182   4.338   0.064  0.00  0.00    +0.144 HD
ENDBRANCH  23  24
ENDBRANCH  22  23
ENDBRANCH   6  22
TORSDOF 5
