REMARK  Name = ZINC15657721
REMARK  8 active torsions:
REMARK  status: ('A' for Active; 'I' for Inactive)
REMARK    1  A    between atoms: C_1  and  C_2
REMARK    2  A    between atoms: C_2  and  C_5
REMARK    3  A    between atoms: N_3  and  O_4
REMARK    4  A    between atoms: C_10  and  C_31
REMARK    5  A    between atoms: C_20  and  C_30
REMARK    6  A    between atoms: C_23  and  O_26
REMARK    7  A    between atoms: O_26  and  C_27
REMARK    8  A    between atoms: C_27  and  C_29
REMARK                            x       y       z     vdW  Elec       q    Type
REMARK                         _______ _______ _______ _____ _____    ______ ____
ROOT
ATOM      1  C   UNL     1      -2.166   3.192   1.633  0.00  0.00    -0.021 C 
ATOM      2  C   UNL     1      -3.014   2.152   1.729  0.00  0.00    -0.021 C 
ATOM      3  C   UNL     1      -2.564   1.031   0.792  0.00  0.00    +0.032 C 
ATOM      4  C   UNL     1      -1.058   1.308   0.674  0.00  0.00    +0.007 C 
ATOM      5  C   UNL     1      -1.123   2.862   0.619  0.00  0.00    -0.002 C 
ATOM      6  C   UNL     1       0.286   3.371   0.822  0.00  0.00    +0.012 C 
ATOM      7  C   UNL     1       1.104   2.910  -0.397  0.00  0.00    +0.005 C 
ATOM      8  C   UNL     1       1.054   1.397  -0.581  0.00  0.00    +0.003 C 
ATOM      9  C   UNL     1      -0.386   0.862  -0.611  0.00  0.00    +0.001 C 
ATOM     10  C   UNL     1      -0.325  -0.669  -0.653  0.00  0.00    +0.031 C 
ATOM     11  C   UNL     1       0.497  -1.099  -1.833  0.00  0.00    -0.027 C 
ATOM     12  C   UNL     1       1.430  -0.357  -2.355  0.00  0.00    -0.064 C 
ATOM     13  C   UNL     1       1.790   1.009  -1.853  0.00  0.00    -0.008 C 
ATOM     14  C   UNL     1       3.302   1.087  -1.627  0.00  0.00    +0.015 C 
ATOM     15  C   UNL     1       4.029   0.678  -2.909  0.00  0.00    +0.046 C 
ATOM     16  C   UNL     1       3.700  -0.777  -3.247  0.00  0.00    +0.180 C 
ATOM     17  C   UNL     1       2.203  -0.905  -3.543  0.00  0.00    +0.075 C 
ATOM     18  C   UNL     1       1.417   2.027  -2.932  0.00  0.00    +0.016 C 
ATOM     19  C   UNL     1      -1.616   3.281  -0.768  0.00  0.00    +0.016 C 
ENDROOT
BRANCH   1  21
ATOM     20  C   UNL     1      -2.740   5.703   1.727  0.00  0.00    +0.069 C 
ATOM     21  C   UNL     1      -2.254   4.444   2.397  0.00  0.00    +0.080 C 
ATOM     22  N   UNL     1      -1.914   4.465   3.647  0.00  0.00    -0.092 NA
BRANCH  22  23
ATOM     23  O   UNL     1      -1.560   3.262   4.304  0.00  0.00    -0.409 OA
ATOM     24  H   UNL     1      -1.271   3.280   5.366  0.00  0.00    +0.328 HD
ENDBRANCH  22  23
ENDBRANCH   1  21
BRANCH  16  25
ATOM     25  O   UNL     1       4.461  -1.188  -4.413  0.00  0.00    -0.461 OA
BRANCH  25  26
ATOM     26  C   UNL     1       4.797  -2.485  -4.495  0.00  0.00    +0.304 C 
ATOM     27  O   UNL     1       4.465  -3.251  -3.622  0.00  0.00    -0.251 OA
ATOM     28  C   UNL     1       5.587  -2.985  -5.677  0.00  0.00    +0.136 C 
ENDBRANCH  25  26
ENDBRANCH  16  25
TORSDOF 4
