REMARK  Name = ZINC07203973
REMARK  7 active torsions:
REMARK  status: ('A' for Active; 'I' for Inactive)
REMARK    1  A    between atoms: C_1  and  C_2
REMARK    2  A    between atoms: C_2  and  C_4
REMARK    3  A    between atoms: C_2  and  O_15
REMARK    4  A    between atoms: N_9  and  C_10
REMARK    5  A    between atoms: O_15  and  C_16
REMARK    6  A    between atoms: C_16  and  C_18
REMARK    7  A    between atoms: C_23  and  N_24
REMARK                            x       y       z     vdW  Elec       q    Type
REMARK                         _______ _______ _______ _____ _____    ______ ____
ROOT
ATOM      1  C   UNL     1       8.839   0.629   0.788  0.00  0.00    +0.062 C 
ATOM      2  C   UNL     1       8.256   2.044   0.804  0.00  0.00    +0.259 C 
ENDROOT
BRANCH   2   3
ATOM      3  C   UNL     1       6.825   1.992   1.272  0.00  0.00    +0.261 C 
ATOM      4  O   UNL     1       6.509   2.521   2.316  0.00  0.00    -0.271 OA
ATOM      5  N   UNL     1       5.896   1.357   0.529  0.00  0.00    -0.237 N 
ATOM      6  C   UNL     1       4.615   1.311   0.948  0.00  0.00    +0.306 C 
ATOM      7  O   UNL     1       4.299   1.841   1.995  0.00  0.00    -0.252 OA
ATOM      8  N   UNL     1       3.687   0.676   0.206  0.00  0.00    -0.296 N 
ATOM      9  H   UNL     1       6.149   0.934  -0.306  0.00  0.00    +0.159 HD
ATOM     10  H   UNL     1       3.939   0.253  -0.629  0.00  0.00    +0.151 HD
BRANCH   8  11
ATOM     11  C   UNL     1       2.295   0.625   0.661  0.00  0.00    +0.074 C 
ATOM     12  C   UNL     1       1.487   1.816   0.089  0.00  0.00    +0.022 C 
ATOM     13  C   UNL     1       0.024   1.327   0.113  0.00  0.00    +0.002 C 
ATOM     14  C   UNL     1       0.074  -0.210   0.095  0.00  0.00    +0.002 C 
ATOM     15  C   UNL     1       1.565  -0.602   0.061  0.00  0.00    +0.022 C 
ENDBRANCH   8  11
ENDBRANCH   2   3
BRANCH   2  16
ATOM     16  O   UNL     1       9.031   2.877   1.707  0.00  0.00    -0.449 OA
BRANCH  16  17
ATOM     17  C   UNL     1      10.082   3.536   1.181  0.00  0.00    +0.342 C 
ATOM     18  O   UNL     1      10.344   3.419  -0.000  0.00  0.00    -0.245 OA
BRANCH  17  19
ATOM     19  C   UNL     1      10.912   4.400   2.037  0.00  0.00    +0.081 A 
ATOM     20  C   UNL     1      10.545   4.636   3.365  0.00  0.00    +0.032 A 
ATOM     21  C   UNL     1      11.330   5.440   4.163  0.00  0.00    +0.019 A 
ATOM     22  C   UNL     1      12.478   6.027   3.651  0.00  0.00    +0.017 A 
ATOM     23  C   UNL     1      12.850   5.808   2.341  0.00  0.00    +0.024 A 
ATOM     24  C   UNL     1      12.075   4.996   1.523  0.00  0.00    +0.039 A 
ATOM     25 BR   UNL     1      10.836   5.751   5.961  0.00  0.00    -0.050 Br
BRANCH  24  26
ATOM     26  N   UNL     1      12.449   4.773   0.204  0.00  0.00    -0.357 N 
ATOM     27  H   UNL     1      11.865   4.273  -0.387  0.00  0.00    +0.142 HD
ATOM     28  H   UNL     1      13.293   5.119  -0.125  0.00  0.00    +0.142 HD
ENDBRANCH  24  26
ENDBRANCH  17  19
ENDBRANCH  16  17
ENDBRANCH   2  16
TORSDOF 6
