REMARK  Name = ZINC41541294
REMARK  7 active torsions:
REMARK  status: ('A' for Active; 'I' for Inactive)
REMARK    1  A    between atoms: C_1  and  C_2
REMARK    2  A    between atoms: C_5  and  N_9
REMARK    3  A    between atoms: C_10  and  N_18
REMARK    4  A    between atoms: C_12  and  C_14
REMARK    5  A    between atoms: C_14  and  C_15
REMARK    6  A    between atoms: C_15  and  C_16
REMARK    7  A    between atoms: C_15  and  C_17
REMARK                            x       y       z     vdW  Elec       q    Type
REMARK                         _______ _______ _______ _____ _____    ______ ____
ROOT
ATOM      1  N   UNL     1       0.058  -4.173  -0.022  0.00  0.00    -0.219 N 
ATOM      2  C   UNL     1       0.699  -4.972   0.874  0.00  0.00    +0.120 A 
ATOM      3  C   UNL     1       0.466  -6.263   0.509  0.00  0.00    +0.068 A 
ATOM      4  C   UNL     1      -0.336  -6.247  -0.636  0.00  0.00    +0.066 A 
ATOM      5  N   UNL     1      -0.585  -5.001  -0.950  0.00  0.00    -0.170 NA
ENDROOT
BRANCH   1  10
ATOM      6  C   UNL     1      -0.018   1.503   0.010  0.00  0.00    +0.045 C 
ATOM      7  C   UNL     1       0.002  -0.004   0.002  0.00  0.00    -0.036 A 
ATOM      8  C   UNL     1       0.006  -0.688  -1.200  0.00  0.00    +0.006 A 
ATOM      9  C   UNL     1       0.024  -2.068  -1.211  0.00  0.00    +0.028 A 
ATOM     10  C   UNL     1       0.040  -2.771  -0.013  0.00  0.00    +0.068 A 
ATOM     11  C   UNL     1       0.036  -2.083   1.192  0.00  0.00    +0.043 A 
ATOM     12  C   UNL     1       0.023  -0.701   1.197  0.00  0.00    +0.023 A 
ATOM     13 BR   UNL     1       0.026   0.238   2.838  0.00  0.00    -0.050 Br
ENDBRANCH   1  10
BRANCH   2  14
ATOM     14  N   UNL     1       1.455  -4.547   1.963  0.00  0.00    -0.343 N 
ATOM     15  H   UNL     1       1.562  -3.599   2.139  0.00  0.00    +0.144 HD
ATOM     16  H   UNL     1       1.874  -5.199   2.546  0.00  0.00    +0.144 HD
ENDBRANCH   2  14
BRANCH   4  17
ATOM     17  C   UNL     1      -0.834  -7.459  -1.379  0.00  0.00    +0.060 C 
BRANCH  17  18
ATOM     18  C   UNL     1      -2.358  -7.396  -1.494  0.00  0.00    -0.011 C 
ATOM     19  C   UNL     1      -2.854  -8.560  -2.354  0.00  0.00    +0.007 C 
ATOM     20  C   UNL     1      -2.980  -7.492  -0.099  0.00  0.00    +0.007 C 
ENDBRANCH  17  18
ENDBRANCH   4  17
TORSDOF 4
