REMARK  Name = ZINC03977843
REMARK  5 active torsions:
REMARK  status: ('A' for Active; 'I' for Inactive)
REMARK    1  A    between atoms: C_1  and  C_2
REMARK    2  A    between atoms: C_2  and  O_4
REMARK    3  A    between atoms: O_4  and  C_5
REMARK    4  A    between atoms: C_11  and  C_27
REMARK    5  A    between atoms: C_24  and  O_26
REMARK                            x       y       z     vdW  Elec       q    Type
REMARK                         _______ _______ _______ _____ _____    ______ ____
ROOT
ATOM      1  C   UNL     1      -1.057  -2.117   0.001  0.00  0.00    +0.183 C 
ATOM      2  C   UNL     1      -1.097  -2.674   1.442  0.00  0.00    +0.045 C 
ATOM      3  C   UNL     1      -1.929  -3.969   1.391  0.00  0.00    +0.008 C 
ATOM      4  C   UNL     1      -2.328  -4.172  -0.095  0.00  0.00    +0.002 C 
ATOM      5  C   UNL     1      -2.300  -2.738  -0.664  0.00  0.00    +0.008 C 
ATOM      6  C   UNL     1      -2.241  -2.679  -2.171  0.00  0.00    +0.011 C 
ATOM      7  C   UNL     1      -1.113  -3.545  -2.735  0.00  0.00    +0.009 C 
ATOM      8  C   UNL     1      -1.342  -4.982  -2.259  0.00  0.00    +0.023 C 
ATOM      9  C   UNL     1      -1.228  -5.020  -0.735  0.00  0.00    +0.000 C 
ATOM     10  C   UNL     1      -1.320  -6.471  -0.261  0.00  0.00    +0.009 C 
ATOM     11  C   UNL     1      -0.052  -7.200  -0.703  0.00  0.00    +0.036 C 
ATOM     12  C   UNL     1       0.230  -6.959  -2.163  0.00  0.00    -0.040 A 
ATOM     13  C   UNL     1      -0.332  -5.912  -2.872  0.00  0.00    -0.041 A 
ATOM     14  C   UNL     1      -0.006  -5.734  -4.209  0.00  0.00    +0.008 A 
ATOM     15  C   UNL     1       0.909  -6.561  -4.826  0.00  0.00    +0.046 A 
ATOM     16  C   UNL     1       1.508  -7.582  -4.102  0.00  0.00    +0.117 A 
ATOM     17  C   UNL     1       1.129  -7.807  -2.794  0.00  0.00    +0.049 A 
ATOM     18  C   UNL     1      -3.548  -1.989  -0.193  0.00  0.00    +0.015 C 
ENDROOT
BRANCH  16  19
ATOM     19  O   UNL     1       2.409  -8.405  -4.701  0.00  0.00    -0.507 OA
ATOM     20  H   UNL     1       3.323  -8.096  -4.643  0.00  0.00    +0.292 HD
ENDBRANCH  16  19
BRANCH   1  21
ATOM     21  O   UNL     1      -1.151  -0.691   0.009  0.00  0.00    -0.461 OA
BRANCH  21  23
ATOM     22  C   UNL     1      -0.018   1.503   0.010  0.00  0.00    +0.136 C 
ATOM     23  C   UNL     1       0.002  -0.004   0.002  0.00  0.00    +0.304 C 
ATOM     24  O   UNL     1       1.056  -0.594  -0.011  0.00  0.00    -0.251 OA
ENDBRANCH  21  23
ENDBRANCH   1  21
TORSDOF 3
