REMARK  Name = ZINC40014747
REMARK  12 active torsions:
REMARK  status: ('A' for Active; 'I' for Inactive)
REMARK    1  A    between atoms: C_1  and  C_2
REMARK    2  A    between atoms: C_2  and  N_3
REMARK    3  A    between atoms: N_3  and  C_4
REMARK    4  A    between atoms: N_3  and  C_6
REMARK    5  A    between atoms: C_4  and  C_5
REMARK    6  A    between atoms: C_6  and  C_7
REMARK    7  A    between atoms: C_7  and  C_8
REMARK    8  A    between atoms: C_8  and  N_9
REMARK    9  A    between atoms: C_10  and  C_26
REMARK   10  A    between atoms: C_29  and  O_32
REMARK   11  A    between atoms: O_32  and  C_33
REMARK   12  A    between atoms: C_33  and  C_34
REMARK                            x       y       z     vdW  Elec       q    Type
REMARK                         _______ _______ _______ _____ _____    ______ ____
ROOT
ATOM      1  N   UNL     1      -4.267  -4.657   0.103  0.00  0.00    -0.284 N 
ATOM      2  C   UNL     1      -5.231  -4.811   1.204  0.00  0.00    +0.144 C 
ATOM      3  C   UNL     1      -6.473  -5.363   0.584  0.00  0.00    +0.072 A 
ATOM      4  C   UNL     1      -7.765  -5.732   1.173  0.00  0.00    +0.199 A 
ATOM      5  O   UNL     1      -8.076  -5.465   2.320  0.00  0.00    -0.287 OA
ATOM      6  C   UNL     1      -8.656  -6.464   0.237  0.00  0.00    +0.066 A 
ATOM      7  C   UNL     1      -9.831  -7.056   0.700  0.00  0.00    +0.035 A 
ATOM      8  C   UNL     1     -10.644  -7.735  -0.181  0.00  0.00    +0.042 A 
ATOM      9  C   UNL     1     -10.292  -7.829  -1.522  0.00  0.00    +0.023 A 
ATOM     10  C   UNL     1      -9.136  -7.247  -1.990  0.00  0.00    +0.048 A 
ATOM     11  C   UNL     1      -8.298  -6.551  -1.118  0.00  0.00    +0.140 A 
ATOM     12  O   UNL     1      -7.172  -5.980  -1.606  0.00  0.00    -0.450 OA
ATOM     13  C   UNL     1      -6.242  -5.507  -0.754  0.00  0.00    +0.199 A 
ATOM     14  C   UNL     1      -4.866  -5.062  -1.036  0.00  0.00    +0.283 C 
ATOM     15  O   UNL     1      -4.345  -5.061  -2.134  0.00  0.00    -0.267 OA
ATOM     16 CL   UNL     1     -12.109  -8.475   0.384  0.00  0.00    -0.084 Cl
ENDROOT
BRANCH   2  17
ATOM     17  C   UNL     1      -5.515  -3.473   1.837  0.00  0.00    -0.022 A 
ATOM     18  C   UNL     1      -5.654  -2.349   1.042  0.00  0.00    +0.009 A 
ATOM     19  C   UNL     1      -5.914  -1.121   1.620  0.00  0.00    +0.046 A 
ATOM     20  C   UNL     1      -6.035  -1.016   2.998  0.00  0.00    +0.121 A 
ATOM     21  C   UNL     1      -5.896  -2.144   3.792  0.00  0.00    +0.046 A 
ATOM     22  C   UNL     1      -5.641  -3.371   3.210  0.00  0.00    +0.009 A 
BRANCH  20  23
ATOM     23  O   UNL     1      -6.290   0.191   3.568  0.00  0.00    -0.483 OA
BRANCH  23  24
ATOM     24  C   UNL     1      -6.402   0.225   4.992  0.00  0.00    +0.324 C 
BRANCH  24  25
ATOM     25  C   UNL     1      -6.684   1.635   5.441  0.00  0.00    +0.248 C 
ATOM     26  O   UNL     1      -6.779   2.525   4.621  0.00  0.00    -0.272 OA
ATOM     27  N   UNL     1      -6.830   1.909   6.752  0.00  0.00    -0.327 N 
ATOM     28  H   UNL     1      -6.754   1.198   7.408  0.00  0.00    +0.145 HD
ATOM     29  H   UNL     1      -7.012   2.817   7.041  0.00  0.00    +0.145 HD
ENDBRANCH  24  25
ENDBRANCH  23  24
ENDBRANCH  20  23
ENDBRANCH   2  17
BRANCH   1  30
ATOM     30  C   UNL     1      -2.898  -4.149   0.222  0.00  0.00    +0.107 C 
BRANCH  30  31
ATOM     31  C   UNL     1      -2.901  -2.630   0.038  0.00  0.00    +0.000 C 
BRANCH  31  32
ATOM     32  C   UNL     1      -1.471  -2.099   0.162  0.00  0.00    -0.077 C 
BRANCH  32  33
ATOM     33  N   UNL     1      -1.456  -0.660  -0.136  0.00  0.00    +0.379 N 
ATOM     34  H   UNL     1      -1.869  -0.500  -1.042  0.00  0.00    -0.082 HD
BRANCH  33  36
ATOM     35  C   UNL     1      -2.314   1.540   0.511  0.00  0.00    -0.017 C 
ATOM     36  C   UNL     1      -2.225   0.060   0.888  0.00  0.00    -0.082 C 
ENDBRANCH  33  36
BRANCH  33  37
ATOM     37  C   UNL     1      -0.069  -0.175  -0.137  0.00  0.00    -0.082 C 
ATOM     38  C   UNL     1       0.691  -0.808  -1.304  0.00  0.00    -0.017 C 
ENDBRANCH  33  37
ENDBRANCH  32  33
ENDBRANCH  31  32
ENDBRANCH  30  31
ENDBRANCH   1  30
TORSDOF 10
