REMARK  Name = ZINC64450280
REMARK  3 active torsions:
REMARK  status: ('A' for Active; 'I' for Inactive)
REMARK    1  A    between atoms: C_1  and  C_2
REMARK    2  A    between atoms: C_4  and  C_23
REMARK    3  A    between atoms: N_12  and  C_14
REMARK                            x       y       z     vdW  Elec       q    Type
REMARK                         _______ _______ _______ _____ _____    ______ ____
ROOT
ATOM      1  C   UNL     1      -0.078   1.439  -0.667  0.00  0.00    +0.062 C 
ATOM      2  C   UNL     1      -0.086  -0.067  -0.632  0.00  0.00    +0.019 C 
ATOM      3  C   UNL     1      -1.102  -0.789  -0.255  0.00  0.00    -0.008 C 
ATOM      4  C   UNL     1      -2.526  -0.406   0.066  0.00  0.00    +0.058 C 
ATOM      5  C   UNL     1      -3.407  -1.132  -0.963  0.00  0.00    +0.108 C 
ATOM      6  C   UNL     1      -2.890  -2.500  -1.270  0.00  0.00    +0.215 C 
ATOM      7  O   UNL     1      -3.684  -3.274  -1.763  0.00  0.00    -0.276 OA
ATOM      8  N   UNL     1      -1.659  -2.970  -1.067  0.00  0.00    -0.295 N 
ATOM      9  C   UNL     1      -0.662  -2.243  -0.291  0.00  0.00    +0.194 C 
ATOM     10  N   UNL     1       0.657  -2.192  -0.930  0.00  0.00    -0.164 NA
ATOM     11  N   UNL     1       0.986  -0.864  -1.003  0.00  0.00    -0.277 N 
ATOM     12  H   UNL     1      -1.418  -3.828  -1.450  0.00  0.00    +0.151 HD
ATOM     13  H   UNL     1       1.854  -0.527  -1.275  0.00  0.00    +0.166 HD
ENDROOT
BRANCH  10  14
ATOM     14  C   UNL     1       1.650  -2.943  -0.150  0.00  0.00    +0.270 C 
ATOM     15  N   UNL     1       1.268  -4.359  -0.077  0.00  0.00    -0.350 N 
ATOM     16  C   UNL     1       1.099  -4.653   1.179  0.00  0.00    +0.061 A 
ATOM     17  C   UNL     1       0.719  -5.892   1.873  0.00  0.00    +0.027 A 
ATOM     18  C   UNL     1       0.620  -5.898   3.217  0.00  0.00    +0.002 A 
ATOM     19  C   UNL     1       0.866  -4.757   4.001  0.00  0.00    +0.002 A 
ATOM     20  C   UNL     1       1.220  -3.571   3.466  0.00  0.00    +0.027 A 
ATOM     21  C   UNL     1       1.360  -3.445   2.009  0.00  0.00    +0.061 A 
ATOM     22  N   UNL     1       1.681  -2.451   1.233  0.00  0.00    -0.350 N 
ATOM     23  H   UNL     1       1.161  -4.964  -0.828  0.00  0.00    +0.163 HD
ATOM     24  H   UNL     1       1.901  -1.549   1.516  0.00  0.00    +0.163 HD
ENDBRANCH  10  14
BRANCH   4  25
ATOM     25  C   UNL     1      -2.703   1.085  -0.059  0.00  0.00    -0.038 A 
ATOM     26  C   UNL     1      -2.891   1.657  -1.304  0.00  0.00    +0.007 A 
ATOM     27  C   UNL     1      -3.054   3.024  -1.419  0.00  0.00    +0.040 A 
ATOM     28  C   UNL     1      -3.027   3.823  -0.289  0.00  0.00    +0.137 A 
ATOM     29  C   UNL     1      -2.838   3.249   0.958  0.00  0.00    +0.053 A 
ATOM     30  C   UNL     1      -2.681   1.880   1.072  0.00  0.00    +0.022 A 
ATOM     31 BR   UNL     1      -2.802   4.337   2.504  0.00  0.00    -0.047 Br
ATOM     32  F   UNL     1      -3.186   5.160  -0.401  0.00  0.00    -0.204 F 
ENDBRANCH   4  25
TORSDOF 2
