REMARK  Name = ZINC39686290
REMARK  7 active torsions:
REMARK  status: ('A' for Active; 'I' for Inactive)
REMARK    1  A    between atoms: C_1  and  C_2
REMARK    2  A    between atoms: C_2  and  C_3
REMARK    3  A    between atoms: C_2  and  C_4
REMARK    4  A    between atoms: C_4  and  C_5
REMARK    5  A    between atoms: C_10  and  N_13
REMARK    6  A    between atoms: C_14  and  C_16
REMARK    7  A    between atoms: C_27  and  C_29
REMARK                            x       y       z     vdW  Elec       q    Type
REMARK                         _______ _______ _______ _____ _____    ______ ____
ROOT
ATOM      1  C   UNL     1      -7.059  -6.499   2.897  0.00  0.00    +0.100 C 
ATOM      2  C   UNL     1      -6.138  -6.991   4.035  0.00  0.00    +0.121 C 
ATOM      3  N   UNL     1      -6.769  -8.243   4.514  0.00  0.00    -0.297 N 
ATOM      4  C   UNL     1      -7.246  -8.910   3.279  0.00  0.00    +0.115 C 
ATOM      5  C   UNL     1      -7.785  -7.762   2.402  0.00  0.00    -0.004 C 
ATOM      6  C   UNL     1      -9.291  -7.614   2.593  0.00  0.00    -0.010 C 
ATOM      7  C   UNL     1      -9.995  -8.858   2.042  0.00  0.00    -0.082 C 
ATOM      8  N   UNL     1      -9.674  -9.014   0.618  0.00  0.00    +0.379 N 
ATOM      9  C   UNL     1      -8.234  -9.248   0.452  0.00  0.00    -0.082 C 
ATOM     10  C   UNL     1      -7.456  -8.020   0.935  0.00  0.00    -0.010 C 
ATOM     11  C   UNL     1      -6.884  -8.677   5.784  0.00  0.00    +0.260 C 
ATOM     12  O   UNL     1      -7.432  -9.734   6.017  0.00  0.00    -0.271 OA
ATOM     13  H   UNL     1     -10.186  -9.798   0.243  0.00  0.00    -0.086 HD
ATOM     14  H   UNL     1      -9.937  -8.175   0.122  0.00  0.00    -0.086 HD
ENDROOT
BRANCH  11  15
ATOM     15  C   UNL     1      -6.330  -7.850   6.916  0.00  0.00    +0.296 C 
ATOM     16  C   UNL     1      -4.802  -7.777   6.805  0.00  0.00    +0.283 C 
ATOM     17  O   UNL     1      -4.309  -6.998   7.900  0.00  0.00    -0.484 OA
ATOM     18  C   UNL     1      -4.815  -7.285   9.131  0.00  0.00    +0.162 A 
ATOM     19  C   UNL     1      -4.144  -6.844  10.262  0.00  0.00    +0.049 A 
ATOM     20  C   UNL     1      -4.647  -7.124  11.518  0.00  0.00    +0.004 A 
ATOM     21  C   UNL     1      -5.820  -7.845  11.651  0.00  0.00    +0.004 A 
ATOM     22  C   UNL     1      -6.492  -8.289  10.528  0.00  0.00    +0.049 A 
ATOM     23  C   UNL     1      -5.992  -8.012   9.264  0.00  0.00    +0.163 A 
ATOM     24  O   UNL     1      -6.661  -8.462   8.168  0.00  0.00    -0.473 OA
ENDBRANCH  11  15
BRANCH   1  26
ATOM     25  N   UNL     1      -6.771  -4.929   1.007  0.00  0.00    -0.312 N 
ATOM     26  C   UNL     1      -6.242  -5.894   1.784  0.00  0.00    +0.218 C 
ATOM     27  O   UNL     1      -5.107  -6.276   1.589  0.00  0.00    -0.275 OA
ATOM     28  H   UNL     1      -7.679  -4.624   1.163  0.00  0.00    +0.149 HD
BRANCH  25  34
ATOM     29  C   UNL     1      -5.088  -0.962  -2.235  0.00  0.00    +0.216 C 
ATOM     30  O   UNL     1      -4.305  -0.160  -1.773  0.00  0.00    -0.276 OA
ATOM     31  N   UNL     1      -5.138  -2.216  -1.741  0.00  0.00    -0.301 N 
ATOM     32  C   UNL     1      -6.078  -3.200  -2.295  0.00  0.00    +0.109 C 
ATOM     33  C   UNL     1      -6.912  -3.783  -1.149  0.00  0.00    +0.041 C 
ATOM     34  C   UNL     1      -5.977  -4.341  -0.075  0.00  0.00    +0.076 C 
ATOM     35  C   UNL     1      -5.109  -3.212   0.486  0.00  0.00    +0.041 C 
ATOM     36  C   UNL     1      -4.251  -2.624  -0.644  0.00  0.00    +0.109 C 
BRANCH  29  37
ATOM     37  C   UNL     1      -6.005  -0.558  -3.360  0.00  0.00    +0.099 C 
BRANCH  37  39
ATOM     38  C   UNL     1      -6.587   1.278  -4.951  0.00  0.00    +0.008 C 
ATOM     39  C   UNL     1      -5.747   0.904  -3.728  0.00  0.00    -0.008 C 
ATOM     40  C   UNL     1      -6.130   1.802  -2.551  0.00  0.00    +0.008 C 
ENDBRANCH  37  39
ENDBRANCH  29  37
ENDBRANCH  25  34
ENDBRANCH   1  26
TORSDOF 5
