REMARK  Name = ZINC06862435
REMARK  4 active torsions:
REMARK  status: ('A' for Active; 'I' for Inactive)
REMARK    1  A    between atoms: C_3  and  C_9
REMARK    2  A    between atoms: C_9  and  N_10
REMARK    3  A    between atoms: N_15  and  C_16
REMARK    4  A    between atoms: C_16  and  C_18
REMARK                            x       y       z     vdW  Elec       q    Type
REMARK                         _______ _______ _______ _____ _____    ______ ____
ROOT
ATOM      1  N   UNL     1       4.019   2.541  -1.399  0.00  0.00    -0.324 N 
ATOM      2  C   UNL     1       4.695   1.669  -2.192  0.00  0.00    +0.095 A 
ATOM      3  C   UNL     1       4.988   2.034  -3.445  0.00  0.00    +0.066 A 
ATOM      4  S   UNL     1       4.298   3.678  -3.521  0.00  0.00    -0.061 S 
ATOM      5  C   UNL     1       3.673   3.760  -1.905  0.00  0.00    +0.166 A 
ATOM      6  N   UNL     1       3.020   4.756  -1.311  0.00  0.00    -0.151 NA
ENDROOT
BRANCH   6   7
ATOM      7  C   UNL     1       2.772   5.886  -1.981  0.00  0.00    +0.285 C 
ATOM      8  O   UNL     1       3.144   6.004  -3.137  0.00  0.00    -0.267 OA
BRANCH   7   9
ATOM      9  C   UNL     1       2.051   6.988  -1.324  0.00  0.00    +0.123 C 
ATOM     10  N   UNL     1       1.656   6.852  -0.098  0.00  0.00    -0.180 NA
ATOM     11  N   UNL     1       0.971   7.878   0.560  0.00  0.00    -0.207 N 
ATOM     12  C   UNL     1       0.362   8.851  -0.145  0.00  0.00    +0.233 C 
ATOM     13  O   UNL     1      -0.239   9.734   0.429  0.00  0.00    -0.274 OA
ATOM     14  C   UNL     1       0.432   8.838  -1.651  0.00  0.00    +0.104 C 
ATOM     15  C   UNL     1       1.778   8.256  -2.088  0.00  0.00    +0.072 C 
ATOM     16  H   UNL     1       0.930   7.888   1.530  0.00  0.00    +0.177 HD
ENDBRANCH   7   9
ENDBRANCH   6   7
BRANCH   1  17
ATOM     17  C   UNL     1       3.674   2.181  -0.021  0.00  0.00    +0.160 C 
BRANCH  17  20
ATOM     18  C   UNL     1      -0.077   2.010   0.365  0.00  0.00    +0.020 A 
ATOM     19  C   UNL     1       1.216   2.496   0.326  0.00  0.00    +0.008 A 
ATOM     20  C   UNL     1       2.265   1.649   0.021  0.00  0.00    -0.009 A 
ATOM     21  C   UNL     1       2.020   0.314  -0.247  0.00  0.00    +0.047 A 
ATOM     22  C   UNL     1       0.727  -0.174  -0.208  0.00  0.00    +0.040 A 
ATOM     23  C   UNL     1      -0.323   0.674   0.098  0.00  0.00    +0.042 A 
ATOM     24 CL   UNL     1      -1.947   0.064   0.147  0.00  0.00    -0.083 Cl
ATOM     25 CL   UNL     1       3.338  -0.750  -0.630  0.00  0.00    -0.083 Cl
ENDBRANCH  17  20
ENDBRANCH   1  17
TORSDOF 4
