REMARK  Name = ZINC65265788
REMARK  5 active torsions:
REMARK  status: ('A' for Active; 'I' for Inactive)
REMARK    1  A    between atoms: C_1  and  O_2
REMARK    2  A    between atoms: O_2  and  C_3
REMARK    3  A    between atoms: C_3  and  C_4
REMARK    4  A    between atoms: C_4  and  N_5
REMARK    5  A    between atoms: C_21  and  C_23
REMARK                            x       y       z     vdW  Elec       q    Type
REMARK                         _______ _______ _______ _____ _____    ______ ____
ROOT
ATOM      1  N   UNL     1       1.324  -2.833  -0.168  0.00  0.00    -0.373 N 
ATOM      2  C   UNL     1       1.379  -4.064  -0.562  0.00  0.00    +0.095 C 
ATOM      3  N   UNL     1       0.719  -5.067   0.104  0.00  0.00    -0.303 N 
ATOM      4  C   UNL     1      -0.579  -5.388  -0.280  0.00  0.00    +0.037 A 
ATOM      5  C   UNL     1      -1.562  -5.576   0.682  0.00  0.00    +0.023 A 
ATOM      6  C   UNL     1      -2.847  -5.910   0.305  0.00  0.00    +0.002 A 
ATOM      7  C   UNL     1      -3.145  -6.057  -1.038  0.00  0.00    +0.000 A 
ATOM      8  C   UNL     1      -2.171  -5.865  -1.993  0.00  0.00    +0.007 A 
ATOM      9  C   UNL     1      -0.872  -5.520  -1.632  0.00  0.00    -0.012 A 
ATOM     10  C   UNL     1       0.110  -5.297  -2.754  0.00  0.00    +0.119 C 
ATOM     11  N   UNL     1       1.490  -5.634  -2.375  0.00  0.00    -0.299 NA
ATOM     12  C   UNL     1       2.159  -4.466  -1.767  0.00  0.00    +0.091 C 
ATOM     13  C   UNL     1       3.619  -4.806  -1.423  0.00  0.00    +0.050 C 
ATOM     14  C   UNL     1       4.354  -4.551  -2.759  0.00  0.00    +0.110 C 
ATOM     15  N   UNL     1       3.506  -3.656  -3.562  0.00  0.00    -0.295 N 
ATOM     16  C   UNL     1       2.295  -3.324  -2.784  0.00  0.00    +0.137 C 
ATOM     17  C   UNL     1       3.788  -3.211  -4.802  0.00  0.00    +0.246 C 
ATOM     18  O   UNL     1       2.971  -2.546  -5.410  0.00  0.00    -0.270 OA
ATOM     19  H   UNL     1       1.797  -2.144  -0.661  0.00  0.00    +0.161 HD
ATOM     20  H   UNL     1       1.510  -6.429  -1.755  0.00  0.00    +0.123 HD
ATOM     21  H   UNL     1       1.150  -5.543   0.831  0.00  0.00    +0.153 HD
ENDROOT
BRANCH  17  22
ATOM     22  C   UNL     1       5.090  -3.534  -5.425  0.00  0.00    +0.035 C 
ATOM     23  C   UNL     1       5.262  -4.759  -5.971  0.00  0.00    +0.017 C 
ATOM     24  C   UNL     1       6.548  -5.061  -6.682  0.00  0.00    +0.159 C 
ATOM     25  C   UNL     1       7.633  -4.207  -6.053  0.00  0.00    -0.018 C 
ATOM     26  C   UNL     1       8.649  -5.048  -5.797  0.00  0.00    +0.025 C 
ATOM     27  C   UNL     1       8.237  -6.374  -6.058  0.00  0.00    +0.106 C 
ATOM     28  N   UNL     1       7.024  -6.429  -6.535  0.00  0.00    -0.279 NA
ATOM     29  C   UNL     1       7.430  -2.853  -5.715  0.00  0.00    +0.007 C 
ATOM     30  C   UNL     1       6.140  -2.509  -5.431  0.00  0.00    +0.013 C 
ENDBRANCH  17  22
BRANCH   1  31
ATOM     31  C   UNL     1       0.546  -2.479   1.022  0.00  0.00    +0.141 C 
BRANCH  31  32
ATOM     32  C   UNL     1       0.646  -0.973   1.267  0.00  0.00    +0.180 C 
BRANCH  32  34
ATOM     33  C   UNL     1       0.063   1.150   0.319  0.00  0.00    +0.194 C 
ATOM     34  O   UNL     1       0.024  -0.272   0.187  0.00  0.00    -0.381 OA
ENDBRANCH  32  34
ENDBRANCH  31  32
ENDBRANCH   1  31
TORSDOF 4
