REMARK  Name = ZINC05626003
REMARK  5 active torsions:
REMARK  status: ('A' for Active; 'I' for Inactive)
REMARK    1  A    between atoms: C_1  and  C_2
REMARK    2  A    between atoms: C_5  and  N_8
REMARK    3  A    between atoms: C_12  and  N_13
REMARK    4  A    between atoms: N_13  and  C_14
REMARK    5  A    between atoms: C_14  and  C_15
REMARK                            x       y       z     vdW  Elec       q    Type
REMARK                         _______ _______ _______ _____ _____    ______ ____
ROOT
ATOM      1  N   UNL     1       0.044  -4.175  -0.024  0.00  0.00    -0.217 N 
ATOM      2  C   UNL     1       0.181  -4.837   1.143  0.00  0.00    +0.263 C 
ATOM      3  O   UNL     1       0.315  -4.234   2.191  0.00  0.00    -0.269 OA
ATOM      4  C   UNL     1       0.163  -6.311   1.115  0.00  0.00    +0.113 C 
ATOM      5  C   UNL     1       0.296  -7.056   2.271  0.00  0.00    +0.086 C 
ATOM      6  C   UNL     1      -0.005  -6.954  -0.201  0.00  0.00    +0.256 C 
ATOM      7  O   UNL     1      -0.030  -8.166  -0.305  0.00  0.00    -0.270 OA
ATOM      8  N   UNL     1      -0.130  -6.163  -1.286  0.00  0.00    -0.263 N 
ATOM      9  C   UNL     1      -0.110  -4.827  -1.186  0.00  0.00    +0.150 C 
ATOM     10  S   UNL     1      -0.282  -3.903  -2.617  0.00  0.00    -0.018 S 
ATOM     11  H   UNL     1      -0.241  -6.571  -2.160  0.00  0.00    +0.157 HD
ENDROOT
BRANCH   1  16
ATOM     12  C   UNL     1       0.100   1.499  -0.014  0.00  0.00    +0.044 C 
ATOM     13  C   UNL     1       0.085  -0.008  -0.017  0.00  0.00    -0.050 A 
ATOM     14  C   UNL     1      -1.095  -0.686   0.224  0.00  0.00    +0.005 A 
ATOM     15  C   UNL     1      -1.112  -2.068   0.222  0.00  0.00    +0.024 A 
ATOM     16  C   UNL     1       0.058  -2.774  -0.022  0.00  0.00    +0.043 A 
ATOM     17  C   UNL     1       1.242  -2.090  -0.264  0.00  0.00    +0.024 A 
ATOM     18  C   UNL     1       1.251  -0.709  -0.266  0.00  0.00    +0.005 A 
ENDBRANCH   1  16
BRANCH   5  19
ATOM     19  N   UNL     1       0.409  -8.398   2.198  0.00  0.00    -0.345 N 
ATOM     20  H   UNL     1       0.486  -8.832   1.334  0.00  0.00    +0.146 HD
BRANCH  19  21
ATOM     21  C   UNL     1       0.417  -9.200   3.425  0.00  0.00    +0.136 C 
BRANCH  21  22
ATOM     22  C   UNL     1       0.553 -10.658   3.070  0.00  0.00    -0.027 A 
ATOM     23  C   UNL     1      -0.577 -11.422   2.846  0.00  0.00    +0.009 A 
ATOM     24  C   UNL     1      -0.457 -12.760   2.521  0.00  0.00    +0.050 A 
ATOM     25  C   UNL     1       0.797 -13.339   2.419  0.00  0.00    +0.166 A 
ATOM     26  C   UNL     1       1.936 -12.570   2.644  0.00  0.00    +0.167 A 
ATOM     27  C   UNL     1       1.808 -11.228   2.965  0.00  0.00    +0.054 A 
ATOM     28  O   UNL     1       3.036 -13.362   2.485  0.00  0.00    -0.453 OA
ATOM     29  C   UNL     1       2.550 -14.715   2.562  0.00  0.00    +0.466 C 
ATOM     30  O   UNL     1       1.184 -14.613   2.118  0.00  0.00    -0.453 OA
ENDBRANCH  21  22
ENDBRANCH  19  21
ENDBRANCH   5  19
TORSDOF 4
