REMARK  Name = ZINC36591412
REMARK  13 active torsions:
REMARK  status: ('A' for Active; 'I' for Inactive)
REMARK    1  A    between atoms: C_1  and  C_2
REMARK    2  A    between atoms: C_5  and  S_8
REMARK    3  A    between atoms: S_8  and  C_11
REMARK    4  A    between atoms: C_11  and  N_12
REMARK    5  A    between atoms: C_13  and  C_15
REMARK    6  A    between atoms: C_15  and  C_17
REMARK    7  A    between atoms: C_15  and  N_24
REMARK    8  A    between atoms: C_22  and  O_23
REMARK    9  A    between atoms: N_24  and  C_34
REMARK   10  A    between atoms: C_25  and  C_27
REMARK   11  A    between atoms: C_34  and  C_35
REMARK   12  A    between atoms: C_34  and  C_36
REMARK   13  A    between atoms: C_34  and  C_37
REMARK                            x       y       z     vdW  Elec       q    Type
REMARK                         _______ _______ _______ _____ _____    ______ ____
ROOT
ATOM      1  C   UNL     1       3.232  -4.470   3.906  0.00  0.00    +0.196 C 
ENDROOT
BRANCH   1   2
ATOM      2  C   UNL     1       1.741  -4.277   4.018  0.00  0.00    +0.023 A 
ATOM      3  C   UNL     1       0.958  -4.266   2.880  0.00  0.00    +0.009 A 
ATOM      4  C   UNL     1      -0.409  -4.088   2.981  0.00  0.00    +0.001 A 
ATOM      5  C   UNL     1      -0.997  -3.921   4.222  0.00  0.00    +0.004 A 
ATOM      6  C   UNL     1      -0.218  -3.932   5.363  0.00  0.00    +0.046 A 
ATOM      7  C   UNL     1       1.154  -4.115   5.264  0.00  0.00    +0.122 A 
BRANCH   7   8
ATOM      8  O   UNL     1       1.921  -4.132   6.386  0.00  0.00    -0.506 OA
ATOM      9  H   UNL     1       2.188  -3.254   6.692  0.00  0.00    +0.292 HD
ENDBRANCH   7   8
ENDBRANCH   1   2
BRANCH   1  11
ATOM     10  N   UNL     1       3.858  -3.064   1.970  0.00  0.00    -0.294 N 
ATOM     11  C   UNL     1       3.654  -4.299   2.470  0.00  0.00    +0.239 C 
ATOM     12  O   UNL     1       3.810  -5.273   1.764  0.00  0.00    -0.273 OA
ATOM     13  H   UNL     1       3.680  -2.284   2.518  0.00  0.00    +0.150 HD
BRANCH  10  14
ATOM     14  C   UNL     1       4.349  -2.901   0.599  0.00  0.00    +0.278 C 
BRANCH  14  15
ATOM     15  S   UNL     1       2.944  -2.651  -0.520  0.00  0.00    +0.013 S 
ATOM     16  O   UNL     1       1.933  -3.614  -0.259  0.00  0.00    -0.168 OA
ATOM     17  O   UNL     1       3.407  -2.427  -1.845  0.00  0.00    -0.168 OA
BRANCH  15  22
ATOM     18  C   UNL     1       0.526   2.612   1.172  0.00  0.00    +0.044 C 
ATOM     19  C   UNL     1       1.130   1.298   0.749  0.00  0.00    -0.050 A 
ATOM     20  C   UNL     1       2.123   1.270  -0.213  0.00  0.00    +0.005 A 
ATOM     21  C   UNL     1       2.677   0.065  -0.600  0.00  0.00    +0.027 A 
ATOM     22  C   UNL     1       2.239  -1.114  -0.025  0.00  0.00    +0.090 A 
ATOM     23  C   UNL     1       1.247  -1.086   0.937  0.00  0.00    +0.027 A 
ATOM     24  C   UNL     1       0.696   0.120   1.327  0.00  0.00    +0.005 A 
ENDBRANCH  15  22
ENDBRANCH  14  15
ENDBRANCH  10  14
ENDBRANCH   1  11
BRANCH   1  25
ATOM     25  N   UNL     1       3.585  -5.817   4.362  0.00  0.00    -0.279 N 
ATOM     26  C   UNL     1       2.944  -6.889   3.856  0.00  0.00    +0.237 C 
ATOM     27  O   UNL     1       2.107  -6.743   2.990  0.00  0.00    -0.274 OA
BRANCH  26  28
ATOM     28  C   UNL     1       3.267  -8.270   4.365  0.00  0.00    +0.159 C 
ATOM     29  C   UNL     1       4.221  -8.992   3.387  0.00  0.00    +0.041 C 
ATOM     30  C   UNL     1       3.227  -9.770   2.494  0.00  0.00    +0.098 C 
ATOM     31  C   UNL     1       2.002  -9.941   3.365  0.00  0.00    +0.214 C 
ATOM     32  O   UNL     1       1.104 -10.729   3.153  0.00  0.00    -0.276 OA
ATOM     33  N   UNL     1       2.053  -9.093   4.409  0.00  0.00    -0.304 N 
ATOM     34  H   UNL     1       1.376  -9.033   5.101  0.00  0.00    +0.149 HD
ENDBRANCH  26  28
BRANCH  25  35
ATOM     35  C   UNL     1       4.634  -5.998   5.368  0.00  0.00    +0.030 C 
ATOM     36  C   UNL     1       5.344  -4.665   5.610  0.00  0.00    +0.031 C 
ATOM     37  C   UNL     1       4.008  -6.487   6.676  0.00  0.00    +0.031 C 
ATOM     38  C   UNL     1       5.646  -7.032   4.869  0.00  0.00    +0.031 C 
ENDBRANCH  25  35
ENDBRANCH   1  25
TORSDOF 9
