REMARK  Name = ZINC04148412
REMARK  6 active torsions:
REMARK  status: ('A' for Active; 'I' for Inactive)
REMARK    1  A    between atoms: C_1  and  C_2
REMARK    2  A    between atoms: C_5  and  C_21
REMARK    3  A    between atoms: C_8  and  C_10
REMARK    4  A    between atoms: C_13  and  N_16
REMARK    5  A    between atoms: N_16  and  S_17
REMARK    6  A    between atoms: S_17  and  C_20
REMARK                            x       y       z     vdW  Elec       q    Type
REMARK                         _______ _______ _______ _____ _____    ______ ____
ROOT
ATOM      1  C   UNL     1      -8.287   2.800  -3.002  0.00  0.00    +0.111 C 
ATOM      2  C   UNL     1      -8.095   4.063  -2.203  0.00  0.00    +0.232 C 
ATOM      3  O   UNL     1      -8.975   4.897  -2.166  0.00  0.00    -0.274 OA
ATOM      4  N   UNL     1      -6.945   4.266  -1.530  0.00  0.00    -0.185 N 
ATOM      5  C   UNL     1      -6.629   5.450  -0.714  0.00  0.00    +0.137 C 
ATOM      6  C   UNL     1      -5.213   5.154  -0.182  0.00  0.00    +0.087 C 
ATOM      7  C   UNL     1      -4.873   3.806  -0.779  0.00  0.00    +0.069 C 
ATOM      8  N   UNL     1      -5.862   3.390  -1.492  0.00  0.00    -0.181 NA
ENDROOT
BRANCH   5   9
ATOM      9  C   UNL     1      -7.604   5.584   0.426  0.00  0.00    -0.021 A 
ATOM     10  C   UNL     1      -8.053   4.455   1.087  0.00  0.00    +0.009 A 
ATOM     11  C   UNL     1      -8.944   4.574   2.137  0.00  0.00    +0.050 A 
ATOM     12  C   UNL     1      -9.398   5.824   2.524  0.00  0.00    +0.166 A 
ATOM     13  C   UNL     1      -8.951   6.961   1.854  0.00  0.00    +0.167 A 
ATOM     14  C   UNL     1      -8.054   6.835   0.806  0.00  0.00    +0.055 A 
ATOM     15  O   UNL     1      -9.538   8.057   2.416  0.00  0.00    -0.453 OA
ATOM     16  C   UNL     1     -10.031   7.617   3.695  0.00  0.00    +0.466 C 
ATOM     17  O   UNL     1     -10.266   6.209   3.505  0.00  0.00    -0.453 OA
ENDBRANCH   5   9
BRANCH   7  18
ATOM     18  C   UNL     1      -3.609   3.078  -0.571  0.00  0.00    -0.002 A 
ATOM     19  C   UNL     1      -3.411   1.832  -1.172  0.00  0.00    +0.011 A 
ATOM     20  C   UNL     1      -2.228   1.154  -0.975  0.00  0.00    +0.025 A 
ATOM     21  C   UNL     1      -1.231   1.709  -0.180  0.00  0.00    +0.048 A 
ATOM     22  C   UNL     1      -1.426   2.947   0.424  0.00  0.00    +0.025 A 
ATOM     23  C   UNL     1      -2.605   3.632   0.228  0.00  0.00    +0.011 A 
BRANCH  21  24
ATOM     24  N   UNL     1      -0.034   1.020   0.016  0.00  0.00    -0.221 N 
ATOM     25  H   UNL     1      -0.049   0.073   0.223  0.00  0.00    +0.173 HD
BRANCH  24  26
ATOM     26  S   UNL     1       1.411   1.818  -0.110  0.00  0.00    +0.040 S 
ATOM     27  O   UNL     1       1.306   2.904   0.800  0.00  0.00    -0.155 OA
ATOM     28  O   UNL     1       2.398   0.812   0.073  0.00  0.00    -0.155 OA
ATOM     29  C   UNL     1       1.456   2.435  -1.816  0.00  0.00    +0.218 C 
ENDBRANCH  24  26
ENDBRANCH  21  24
ENDBRANCH   7  18
TORSDOF 4
