REMARK  Name = ZINC35829437
REMARK  6 active torsions:
REMARK  status: ('A' for Active; 'I' for Inactive)
REMARK    1  A    between atoms: C_4  and  N_7
REMARK    2  A    between atoms: C_9  and  C_18
REMARK    3  A    between atoms: C_10  and  C_12
REMARK    4  A    between atoms: C_12  and  C_13
REMARK    5  A    between atoms: N_22  and  C_26
REMARK    6  A    between atoms: C_26  and  C_27
REMARK                            x       y       z     vdW  Elec       q    Type
REMARK                         _______ _______ _______ _____ _____    ______ ____
ROOT
ATOM      1  N   UNL     1       3.623  -0.652  -0.037  0.00  0.00    -0.196 N 
ATOM      2  C   UNL     1       3.880  -1.827   0.578  0.00  0.00    +0.281 A 
ATOM      3  C   UNL     1       5.208  -2.148   0.309  0.00  0.00    +0.066 A 
ATOM      4  C   UNL     1       5.730  -1.108  -0.498  0.00  0.00    +0.079 A 
ATOM      5  N   UNL     1       4.783  -0.234  -0.699  0.00  0.00    -0.167 NA
ATOM      6  O   UNL     1       3.010  -2.554   1.318  0.00  0.00    -0.265 OA
ENDROOT
BRANCH   3   7
ATOM      7  C   UNL     1       5.928  -3.337   0.772  0.00  0.00    +0.043 C 
ATOM      8  C   UNL     1       5.897  -3.680   2.088  0.00  0.00    +0.099 C 
ATOM      9  C   UNL     1       6.541  -4.790   2.697  0.00  0.00    +0.269 C 
ATOM     10  O   UNL     1       7.232  -5.623   2.138  0.00  0.00    -0.268 OA
ATOM     11  N   UNL     1       6.244  -4.748   4.010  0.00  0.00    -0.216 N 
ATOM     12  C   UNL     1       5.459  -3.687   4.262  0.00  0.00    +0.313 C 
ATOM     13  O   UNL     1       5.026  -3.382   5.357  0.00  0.00    -0.252 OA
ATOM     14  N   UNL     1       5.228  -3.007   3.123  0.00  0.00    -0.265 N 
ATOM     15  H   UNL     1       4.695  -2.202   3.033  0.00  0.00    +0.157 HD
BRANCH  11  16
ATOM     16  C   UNL     1       6.707  -5.711   5.012  0.00  0.00    +0.153 C 
BRANCH  16  17
ATOM     17  C   UNL     1       8.018  -5.245   5.590  0.00  0.00    -0.029 A 
ATOM     18  C   UNL     1       9.208  -5.628   5.000  0.00  0.00    +0.008 A 
ATOM     19  C   UNL     1      10.411  -5.200   5.529  0.00  0.00    +0.038 A 
ATOM     20  C   UNL     1      10.424  -4.387   6.650  0.00  0.00    +0.123 A 
ATOM     21  C   UNL     1       9.231  -4.004   7.240  0.00  0.00    +0.038 A 
ATOM     22  C   UNL     1       8.029  -4.429   6.706  0.00  0.00    +0.008 A 
ATOM     23  F   UNL     1      11.599  -3.969   7.168  0.00  0.00    -0.205 F 
ENDBRANCH  16  17
ENDBRANCH  11  16
ENDBRANCH   3   7
BRANCH   1  27
ATOM     24  C   UNL     1      -0.017   1.379   0.010  0.00  0.00    +0.000 A 
ATOM     25  C   UNL     1       1.170   2.089   0.002  0.00  0.00    +0.002 A 
ATOM     26  C   UNL     1       2.377   1.419  -0.013  0.00  0.00    +0.028 A 
ATOM     27  C   UNL     1       2.400   0.031  -0.021  0.00  0.00    +0.069 A 
ATOM     28  C   UNL     1       1.207  -0.680  -0.013  0.00  0.00    +0.028 A 
ATOM     29  C   UNL     1       0.002  -0.004   0.002  0.00  0.00    +0.002 A 
ENDBRANCH   1  27
BRANCH   4  30
ATOM     30  C   UNL     1       7.136  -1.027  -1.035  0.00  0.00    +0.100 C 
BRANCH  30  31
ATOM     31  C   UNL     1       7.198  -1.701  -2.382  0.00  0.00    -0.004 A 
ATOM     32  C   UNL     1       7.007  -1.167  -3.613  0.00  0.00    +0.011 A 
ATOM     33  C   UNL     1       7.115  -1.984  -4.722  0.00  0.00    +0.008 A 
ATOM     34  C   UNL     1       7.410  -3.296  -4.546  0.00  0.00    +0.045 A 
ATOM     35  S   UNL     1       7.550  -3.407  -2.770  0.00  0.00    -0.101 S 
ENDBRANCH  30  31
ENDBRANCH   4  30
TORSDOF 6
