REMARK  Name = ZINC39661359
REMARK  6 active torsions:
REMARK  status: ('A' for Active; 'I' for Inactive)
REMARK    1  A    between atoms: C_1  and  C_2
REMARK    2  A    between atoms: C_12  and  O_13
REMARK    3  A    between atoms: O_13  and  C_14
REMARK    4  A    between atoms: C_14  and  C_15
REMARK    5  A    between atoms: C_19  and  C_28
REMARK    6  A    between atoms: N_30  and  C_31
REMARK                            x       y       z     vdW  Elec       q    Type
REMARK                         _______ _______ _______ _____ _____    ______ ____
ROOT
ATOM      1  C   UNL     1       0.217  -6.184   3.539  0.00  0.00    +0.253 C 
ATOM      2  O   UNL     1       0.251  -6.523   2.374  0.00  0.00    -0.272 OA
ATOM      3  N   UNL     1       0.195  -7.117   4.511  0.00  0.00    -0.297 N 
ATOM      4  C   UNL     1       0.146  -6.901   5.976  0.00  0.00    +0.121 C 
ATOM      5  C   UNL     1      -0.808  -7.996   6.502  0.00  0.00    +0.100 C 
ATOM      6  C   UNL     1      -0.759  -9.104   5.436  0.00  0.00    -0.004 C 
ATOM      7  C   UNL     1       0.206  -8.592   4.357  0.00  0.00    +0.115 C 
ATOM      8  C   UNL     1      -0.233 -10.400   6.044  0.00  0.00    -0.010 C 
ATOM      9  C   UNL     1      -0.248 -11.501   4.980  0.00  0.00    -0.082 C 
ATOM     10  N   UNL     1      -1.618 -11.689   4.487  0.00  0.00    +0.379 N 
ATOM     11  C   UNL     1      -2.082 -10.466   3.820  0.00  0.00    -0.082 C 
ATOM     12  C   UNL     1      -2.145  -9.321   4.836  0.00  0.00    -0.010 C 
ATOM     13  H   UNL     1      -1.636 -12.455   3.831  0.00  0.00    -0.086 HD
ATOM     14  H   UNL     1      -2.228 -11.900   5.263  0.00  0.00    -0.086 HD
ENDROOT
BRANCH   5  15
ATOM     15  C   UNL     1      -2.208  -7.453   6.633  0.00  0.00    +0.219 C 
ATOM     16  O   UNL     1      -2.589  -6.573   5.891  0.00  0.00    -0.275 OA
ATOM     17  N   UNL     1      -3.036  -7.946   7.575  0.00  0.00    -0.304 N 
ATOM     18  H   UNL     1      -2.731  -8.650   8.169  0.00  0.00    +0.149 HD
BRANCH  17  19
ATOM     19  C   UNL     1      -4.397  -7.418   7.703  0.00  0.00    +0.151 C 
ATOM     20  C   UNL     1      -5.297  -8.503   8.299  0.00  0.00    +0.042 C 
ATOM     21  C   UNL     1      -6.511  -7.800   8.953  0.00  0.00    +0.079 C 
ATOM     22  S   UNL     1      -5.784  -6.192   9.453  0.00  0.00    -0.086 S 
ATOM     23  C   UNL     1      -4.364  -6.178   8.563  0.00  0.00    +0.209 C 
ATOM     24  O   UNL     1      -3.487  -5.339   8.602  0.00  0.00    -0.283 OA
ENDBRANCH  17  19
ENDBRANCH   5  15
BRANCH   1  25
ATOM     25  C   UNL     1       0.200  -4.721   3.898  0.00  0.00    +0.324 C 
BRANCH  25  26
ATOM     26  O   UNL     1       0.229  -3.937   2.703  0.00  0.00    -0.479 OA
BRANCH  26  38
ATOM     27  C   UNL     1       0.251   1.996   0.843  0.00  0.00    +0.045 C 
ATOM     28  C   UNL     1       0.262   0.495   0.711  0.00  0.00    -0.033 A 
ATOM     29  C   UNL     1       0.299  -0.097  -0.509  0.00  0.00    +0.096 A 
ATOM     30  C   UNL     1       0.310  -1.506  -0.605  0.00  0.00    +0.338 A 
ATOM     31  O   UNL     1       0.344  -2.026  -1.706  0.00  0.00    -0.245 OA
ATOM     32  O   UNL     1       0.283  -2.287   0.486  0.00  0.00    -0.418 OA
ATOM     33  C   UNL     1       0.246  -1.760   1.729  0.00  0.00    +0.181 A 
ATOM     34  C   UNL     1       0.239  -0.365   1.898  0.00  0.00    +0.024 A 
ATOM     35  C   UNL     1       0.206   0.183   3.185  0.00  0.00    +0.012 A 
ATOM     36  C   UNL     1       0.185  -0.650   4.281  0.00  0.00    +0.004 A 
ATOM     37  C   UNL     1       0.197  -2.027   4.117  0.00  0.00    +0.049 A 
ATOM     38  C   UNL     1       0.218  -2.586   2.851  0.00  0.00    +0.164 A 
ENDBRANCH  26  38
ENDBRANCH  25  26
ENDBRANCH   1  25
TORSDOF 5
