REMARK  Name = ZINC13424433
REMARK  5 active torsions:
REMARK  status: ('A' for Active; 'I' for Inactive)
REMARK    1  A    between atoms: C_2  and  C_3
REMARK    2  A    between atoms: C_3  and  O_4
REMARK    3  A    between atoms: O_4  and  C_5
REMARK    4  A    between atoms: C_8  and  C_11
REMARK    5  A    between atoms: N_17  and  C_18
REMARK                            x       y       z     vdW  Elec       q    Type
REMARK                         _______ _______ _______ _____ _____    ______ ____
ROOT
ATOM      1  C   UNL     1       1.981   7.522   0.024  0.00  0.00    +0.028 C 
ATOM      2  C   UNL     1       3.225   8.058   0.112  0.00  0.00    +0.078 C 
ATOM      3  C   UNL     1       3.628   9.471   0.240  0.00  0.00    +0.256 C 
ATOM      4  O   UNL     1       2.805  10.366   0.283  0.00  0.00    -0.269 OA
ATOM      5  N   UNL     1       4.925   9.721   0.307  0.00  0.00    -0.260 N 
ATOM      6  C   UNL     1       5.842   8.693   0.258  0.00  0.00    +0.166 C 
ATOM      7  N   UNL     1       7.153   8.764   0.311  0.00  0.00    -0.226 NA
ATOM      8  S   UNL     1       4.814   7.240   0.112  0.00  0.00    -0.049 S 
ATOM      9  H   UNL     1       5.234  10.636   0.392  0.00  0.00    +0.157 HD
ENDROOT
BRANCH   7  10
ATOM     10  C   UNL     1       7.768   9.981   0.431  0.00  0.00    +0.067 A 
ATOM     11  C   UNL     1       7.347  11.059  -0.350  0.00  0.00    +0.030 A 
ATOM     12  C   UNL     1       7.971  12.284  -0.224  0.00  0.00    +0.040 A 
ATOM     13  C   UNL     1       9.012  12.444   0.676  0.00  0.00    +0.124 A 
ATOM     14  C   UNL     1       9.434  11.378   1.454  0.00  0.00    +0.040 A 
ATOM     15  C   UNL     1       8.814  10.151   1.341  0.00  0.00    +0.030 A 
ATOM     16  F   UNL     1       9.619  13.646   0.795  0.00  0.00    -0.205 F 
ENDBRANCH   7  10
BRANCH   1  20
ATOM     17  C   UNL     1       1.468   3.315   0.176  0.00  0.00    +0.122 A 
ATOM     18  C   UNL     1       2.658   3.884   0.616  0.00  0.00    +0.046 A 
ATOM     19  C   UNL     1       2.830   5.249   0.569  0.00  0.00    +0.011 A 
ATOM     20  C   UNL     1       1.804   6.065   0.076  0.00  0.00    -0.024 A 
ATOM     21  C   UNL     1       0.607   5.486  -0.366  0.00  0.00    +0.011 A 
ATOM     22  C   UNL     1       0.448   4.120  -0.319  0.00  0.00    +0.046 A 
BRANCH  17  23
ATOM     23  O   UNL     1       1.304   1.968   0.225  0.00  0.00    -0.480 OA
BRANCH  23  24
ATOM     24  C   UNL     1       2.391   1.201   0.745  0.00  0.00    +0.317 C 
BRANCH  24  26
ATOM     25  C   UNL     1       1.757  -1.368   0.704  0.00  0.00    +0.007 C 
ATOM     26  C   UNL     1       2.038  -0.228   0.722  0.00  0.00    -0.065 C 
ENDBRANCH  24  26
ENDBRANCH  23  24
ENDBRANCH  17  23
ENDBRANCH   1  20
TORSDOF 5
