REMARK  Name = ZINC33912829
REMARK  8 active torsions:
REMARK  status: ('A' for Active; 'I' for Inactive)
REMARK    1  A    between atoms: C_1  and  C_2
REMARK    2  A    between atoms: C_4  and  C_10
REMARK    3  A    between atoms: C_6  and  C_9
REMARK    4  A    between atoms: C_7  and  O_8
REMARK    5  A    between atoms: N_18  and  C_21
REMARK    6  A    between atoms: C_27  and  C_29
REMARK    7  A    between atoms: C_27  and  C_36
REMARK    8  A    between atoms: C_29  and  C_30
REMARK                            x       y       z     vdW  Elec       q    Type
REMARK                         _______ _______ _______ _____ _____    ______ ____
ROOT
ATOM      1  C   UNL     1      -0.816  -2.644  -2.609  0.00  0.00    -0.027 C 
ATOM      2  C   UNL     1       0.699  -2.795  -2.709  0.00  0.00    +0.077 C 
ATOM      3  C   UNL     1       0.710  -3.942  -3.790  0.00  0.00    +0.086 C 
ATOM      4  C   UNL     1       2.069  -3.885  -4.272  0.00  0.00    +0.225 C 
ATOM      5  O   UNL     1       2.757  -4.808  -4.653  0.00  0.00    -0.275 OA
ATOM      6  N   UNL     1       2.413  -2.557  -4.208  0.00  0.00    -0.239 N 
ATOM      7  C   UNL     1       1.524  -1.804  -3.468  0.00  0.00    +0.225 C 
ATOM      8  O   UNL     1       1.423  -0.597  -3.438  0.00  0.00    -0.275 OA
ATOM      9  C   UNL     1      -0.259  -4.913  -3.268  0.00  0.00    +0.048 C 
ATOM     10  N   UNL     1      -1.300  -4.063  -2.577  0.00  0.00    +0.395 N 
ATOM     11  H   UNL     1      -1.401  -4.370  -1.621  0.00  0.00    -0.083 HD
ATOM     12  H   UNL     1      -2.186  -4.133  -3.055  0.00  0.00    -0.083 HD
ENDROOT
BRANCH   1  16
ATOM     13  C   UNL     1      -2.294   1.529  -0.277  0.00  0.00    +0.047 C 
ATOM     14  C   UNL     1      -1.904   0.074  -0.227  0.00  0.00    -0.009 A 
ATOM     15  C   UNL     1      -1.554  -0.589  -1.387  0.00  0.00    +0.009 A 
ATOM     16  C   UNL     1      -1.196  -1.924  -1.341  0.00  0.00    -0.060 A 
ATOM     17  C   UNL     1      -1.187  -2.598  -0.134  0.00  0.00    +0.009 A 
ATOM     18  C   UNL     1      -1.536  -1.940   1.029  0.00  0.00    -0.009 A 
ATOM     19  C   UNL     1      -1.890  -0.599   0.987  0.00  0.00    +0.123 A 
ATOM     20  C   UNL     1      -1.526  -2.676   2.344  0.00  0.00    +0.047 C 
BRANCH  19  21
ATOM     21  O   UNL     1      -2.228   0.052   2.130  0.00  0.00    -0.506 OA
ATOM     22  H   UNL     1      -3.170   0.011   2.343  0.00  0.00    +0.292 HD
ENDBRANCH  19  21
ENDBRANCH   1  16
BRANCH   6  23
ATOM     23  C   UNL     1       3.607  -1.996  -4.845  0.00  0.00    +0.084 C 
ATOM     24  C   UNL     1       4.507  -1.369  -3.779  0.00  0.00    +0.023 C 
ATOM     25  C   UNL     1       5.754  -0.783  -4.445  0.00  0.00    +0.002 C 
ATOM     26  C   UNL     1       5.337   0.288  -5.455  0.00  0.00    +0.000 C 
ATOM     27  C   UNL     1       4.437  -0.340  -6.521  0.00  0.00    +0.002 C 
ATOM     28  C   UNL     1       3.190  -0.926  -5.856  0.00  0.00    +0.023 C 
ENDBRANCH   6  23
BRANCH   9  29
ATOM     29  C   UNL     1       0.410  -5.857  -2.303  0.00  0.00    +0.346 C 
ATOM     30  O   UNL     1       0.065  -5.879  -1.133  0.00  0.00    -0.248 OA
ATOM     31  O   UNL     1       1.296  -6.599  -2.691  0.00  0.00    -0.248 OA
ENDBRANCH   9  29
BRANCH   9  32
ATOM     32  C   UNL     1      -0.905  -5.691  -4.416  0.00  0.00    +0.003 C 
BRANCH  32  33
ATOM     33  C   UNL     1      -2.021  -6.582  -3.865  0.00  0.00    -0.012 C 
ATOM     34  C   UNL     1      -1.406  -7.731  -3.063  0.00  0.00    +0.003 C 
ATOM     35  C   UNL     1      -2.522  -8.621  -2.511  0.00  0.00    +0.000 C 
ATOM     36  C   UNL     1      -3.341  -9.190  -3.672  0.00  0.00    +0.000 C 
ATOM     37  C   UNL     1      -3.955  -8.041  -4.474  0.00  0.00    +0.000 C 
ATOM     38  C   UNL     1      -2.840  -7.151  -5.025  0.00  0.00    +0.003 C 
ENDBRANCH  32  33
ENDBRANCH   9  32
TORSDOF 6
