REMARK  Name = ZINC06733717
REMARK  9 active torsions:
REMARK  status: ('A' for Active; 'I' for Inactive)
REMARK    1  A    between atoms: C_1  and  C_2
REMARK    2  A    between atoms: C_2  and  N_3
REMARK    3  A    between atoms: C_11  and  C_13
REMARK    4  A    between atoms: C_18  and  S_20
REMARK    5  A    between atoms: S_20  and  C_21
REMARK    6  A    between atoms: C_21  and  C_22
REMARK    7  A    between atoms: N_24  and  O_25
REMARK    8  A    between atoms: O_25  and  C_26
REMARK    9  A    between atoms: C_26  and  C_27
REMARK                            x       y       z     vdW  Elec       q    Type
REMARK                         _______ _______ _______ _____ _____    ______ ____
ROOT
ATOM      1  N   UNL     1     -13.370  -0.070   1.075  0.00  0.00    -0.299 N 
ATOM      2  C   UNL     1     -12.800   0.432  -0.039  0.00  0.00    +0.303 C 
ATOM      3  O   UNL     1     -13.409   0.420  -1.091  0.00  0.00    -0.253 OA
ATOM      4  N   UNL     1     -11.556   0.946   0.014  0.00  0.00    -0.280 N 
ATOM      5  C   UNL     1     -10.849   1.082   1.296  0.00  0.00    +0.128 C 
ATOM      6  C   UNL     1      -9.462   0.444   1.158  0.00  0.00    +0.125 C 
ATOM      7  N   UNL     1      -8.771   1.031   0.002  0.00  0.00    -0.312 N 
ATOM      8  C   UNL     1      -9.481   0.737  -1.250  0.00  0.00    +0.128 C 
ATOM      9  C   UNL     1     -10.869   1.386  -1.210  0.00  0.00    +0.092 C 
ATOM     10  C   UNL     1     -11.674   0.953  -2.436  0.00  0.00    +0.030 C 
ATOM     11  C   UNL     1      -7.455   0.599  -0.061  0.00  0.00    +0.127 A 
ATOM     12  C   UNL     1      -7.159  -0.764  -0.101  0.00  0.00    +0.083 A 
ATOM     13  C   UNL     1      -5.832  -1.149  -0.163  0.00  0.00    +0.135 A 
ATOM     14  N   UNL     1      -4.887  -0.219  -0.189  0.00  0.00    -0.210 NA
ATOM     15  C   UNL     1      -5.199   1.069  -0.145  0.00  0.00    +0.192 A 
ATOM     16  N   UNL     1      -6.458   1.478  -0.085  0.00  0.00    -0.207 NA
ATOM     17 CL   UNL     1      -5.407  -2.832  -0.215  0.00  0.00    -0.062 Cl
ATOM     18  H   UNL     1     -12.915   0.006   1.928  0.00  0.00    +0.150 HD
ENDROOT
BRANCH   1  20
ATOM     19  C   UNL     1     -15.092  -1.204   2.390  0.00  0.00    +0.024 C 
ATOM     20  C   UNL     1     -14.676  -0.730   0.996  0.00  0.00    +0.102 C 
ENDBRANCH   1  20
BRANCH  15  21
ATOM     21  S   UNL     1      -3.907   2.267  -0.175  0.00  0.00    -0.077 S 
BRANCH  21  22
ATOM     22  C   UNL     1      -2.467   1.174  -0.257  0.00  0.00    +0.175 C 
BRANCH  22  23
ATOM     23  C   UNL     1      -1.209   2.002  -0.293  0.00  0.00    +0.246 C 
ATOM     24  O   UNL     1      -1.279   3.213  -0.267  0.00  0.00    -0.273 OA
ATOM     25  N   UNL     1      -0.005   1.399  -0.355  0.00  0.00    -0.194 N 
ATOM     26  H   UNL     1       0.051   0.430  -0.377  0.00  0.00    +0.182 HD
BRANCH  25  27
ATOM     27  O   UNL     1       1.177   2.178  -0.395  0.00  0.00    -0.280 OA
BRANCH  27  28
ATOM     28  C   UNL     1       2.378   1.407  -0.466  0.00  0.00    +0.187 C 
ATOM     29  C   UNL     1       3.585   2.347  -0.504  0.00  0.00    +0.036 C 
ENDBRANCH  27  28
ENDBRANCH  25  27
ENDBRANCH  22  23
ENDBRANCH  21  22
ENDBRANCH  15  21
TORSDOF 6
