REMARK  Name = ZINC13692948
REMARK  11 active torsions:
REMARK  status: ('A' for Active; 'I' for Inactive)
REMARK    1  A    between atoms: C_1  and  O_2
REMARK    2  A    between atoms: O_2  and  C_3
REMARK    3  A    between atoms: C_5  and  N_13
REMARK    4  A    between atoms: C_7  and  O_11
REMARK    5  A    between atoms: C_8  and  O_9
REMARK    6  A    between atoms: O_9  and  C_10
REMARK    7  A    between atoms: O_11  and  C_12
REMARK    8  A    between atoms: C_14  and  C_16
REMARK    9  A    between atoms: C_16  and  C_17
REMARK   10  A    between atoms: N_21  and  S_22
REMARK   11  A    between atoms: S_22  and  C_25
REMARK                            x       y       z     vdW  Elec       q    Type
REMARK                         _______ _______ _______ _____ _____    ______ ____
ROOT
ATOM      1  N   UNL     1      -4.787   0.202   0.037  0.00  0.00    -0.285 N 
ATOM      2  C   UNL     1      -4.796   1.457  -0.454  0.00  0.00    +0.223 C 
ATOM      3  O   UNL     1      -3.803   1.907  -0.986  0.00  0.00    -0.275 OA
ATOM      4  H   UNL     1      -5.601  -0.185   0.394  0.00  0.00    +0.155 HD
ENDROOT
BRANCH   1   7
ATOM      5  C   UNL     1      -1.206  -0.643   0.201  0.00  0.00    +0.167 A 
ATOM      6  C   UNL     1      -2.380   0.094   0.205  0.00  0.00    +0.073 A 
ATOM      7  C   UNL     1      -3.601  -0.544   0.033  0.00  0.00    +0.041 A 
ATOM      8  C   UNL     1      -3.647  -1.920  -0.144  0.00  0.00    +0.073 A 
ATOM      9  C   UNL     1      -2.474  -2.658  -0.148  0.00  0.00    +0.167 A 
ATOM     10  C   UNL     1      -1.251  -2.020   0.019  0.00  0.00    +0.204 A 
BRANCH   5  12
ATOM     11  C   UNL     1      -0.038   1.399   0.551  0.00  0.00    +0.277 C 
ATOM     12  O   UNL     1      -0.010  -0.018   0.369  0.00  0.00    -0.491 OA
ENDBRANCH   5  12
BRANCH  10  13
ATOM     13  O   UNL     1      -0.098  -2.744   0.009  0.00  0.00    -0.488 OA
ATOM     14  C   UNL     1       0.360  -3.252   1.264  0.00  0.00    +0.277 C 
ENDBRANCH  10  13
BRANCH   9  15
ATOM     15  O   UNL     1      -2.520  -4.006  -0.321  0.00  0.00    -0.491 OA
ATOM     16  C   UNL     1      -3.811  -4.595  -0.492  0.00  0.00    +0.277 C 
ENDBRANCH   9  15
ENDBRANCH   1   7
BRANCH   2  17
ATOM     17  C   UNL     1      -6.039   2.301  -0.341  0.00  0.00    +0.149 C 
BRANCH  17  18
ATOM     18  C   UNL     1      -5.787   3.651  -0.963  0.00  0.00    +0.033 A 
ATOM     19  C   UNL     1      -6.139   3.875  -2.229  0.00  0.00    +0.070 A 
ATOM     20  S   UNL     1      -5.638   5.573  -2.462  0.00  0.00    -0.057 S 
ATOM     21  C   UNL     1      -4.984   5.862  -0.825  0.00  0.00    +0.191 A 
ATOM     22  N   UNL     1      -4.444   6.946  -0.326  0.00  0.00    -0.108 NA
ATOM     23  N   UNL     1      -5.205   4.641  -0.226  0.00  0.00    -0.336 N 
ATOM     24  H   UNL     1      -4.950   4.487   0.697  0.00  0.00    +0.168 HD
BRANCH  22  25
ATOM     25  S   UNL     1      -3.910   6.959   1.242  0.00  0.00    +0.069 S 
ATOM     26  O   UNL     1      -5.080   6.769   2.025  0.00  0.00    -0.152 OA
ATOM     27  O   UNL     1      -2.855   6.008   1.272  0.00  0.00    -0.152 OA
ATOM     28  C   UNL     1      -3.252   8.630   1.496  0.00  0.00    +0.223 C 
ENDBRANCH  22  25
ENDBRANCH  17  18
ENDBRANCH   2  17
TORSDOF 7
