REMARK  Name = ZINC35081948
REMARK  5 active torsions:
REMARK  status: ('A' for Active; 'I' for Inactive)
REMARK    1  A    between atoms: C_1  and  C_2
REMARK    2  A    between atoms: C_5  and  N_9
REMARK    3  A    between atoms: C_6  and  O_8
REMARK    4  A    between atoms: N_9  and  S_10
REMARK    5  A    between atoms: S_10  and  C_13
REMARK                            x       y       z     vdW  Elec       q    Type
REMARK                         _______ _______ _______ _____ _____    ______ ____
ROOT
ATOM      1  N   UNL     1       0.123  -4.099  -0.044  0.00  0.00    -0.213 N 
ATOM      2  H   UNL     1      -0.397  -4.542   0.645  0.00  0.00    +0.174 HD
ENDROOT
BRANCH   1   7
ATOM      3  C   UNL     1       0.918   1.518   0.164  0.00  0.00    +0.044 C 
ATOM      4  C   UNL     1       0.708   0.026   0.111  0.00  0.00    -0.047 A 
ATOM      5  C   UNL     1       0.562  -0.606  -1.109  0.00  0.00    +0.005 A 
ATOM      6  C   UNL     1       0.368  -1.974  -1.164  0.00  0.00    +0.028 A 
ATOM      7  C   UNL     1       0.320  -2.714   0.008  0.00  0.00    +0.089 A 
ATOM      8  C   UNL     1       0.467  -2.076   1.238  0.00  0.00    +0.139 A 
ATOM      9  C   UNL     1       0.666  -0.706   1.284  0.00  0.00    +0.050 A 
BRANCH   8  10
ATOM     10  O   UNL     1       0.419  -2.797   2.390  0.00  0.00    -0.505 OA
ATOM     11  H   UNL     1       1.280  -3.128   2.683  0.00  0.00    +0.292 HD
ENDBRANCH   8  10
ENDBRANCH   1   7
BRANCH   1  12
ATOM     12  S   UNL     1       0.778  -4.982  -1.282  0.00  0.00    +0.074 S 
ATOM     13  O   UNL     1       2.123  -4.546  -1.425  0.00  0.00    -0.150 OA
ATOM     14  O   UNL     1       0.440  -6.340  -1.037  0.00  0.00    -0.150 OA
BRANCH  12  15
ATOM     15  C   UNL     1      -0.062  -4.513  -2.758  0.00  0.00    +0.127 A 
ATOM     16  C   UNL     1       0.634  -3.902  -3.785  0.00  0.00    +0.031 A 
ATOM     17  C   UNL     1      -0.025  -3.534  -4.943  0.00  0.00    +0.017 A 
ATOM     18  C   UNL     1      -1.380  -3.776  -5.075  0.00  0.00    +0.019 A 
ATOM     19  C   UNL     1      -2.077  -4.387  -4.049  0.00  0.00    +0.037 A 
ATOM     20  C   UNL     1      -1.416  -4.761  -2.892  0.00  0.00    +0.069 A 
ATOM     21 CL   UNL     1      -2.288  -5.534  -1.605  0.00  0.00    -0.081 Cl
ATOM     22 BR   UNL     1      -2.281  -3.271  -6.660  0.00  0.00    -0.050 Br
ENDBRANCH  12  15
ENDBRANCH   1  12
TORSDOF 4
