REMARK  Name = ZINC21045735
REMARK  8 active torsions:
REMARK  status: ('A' for Active; 'I' for Inactive)
REMARK    1  A    between atoms: C_1  and  C_2
REMARK    2  A    between atoms: C_2  and  C_3
REMARK    3  A    between atoms: C_4  and  C_33
REMARK    4  A    between atoms: N_10  and  C_19
REMARK    5  A    between atoms: C_11  and  C_13
REMARK    6  A    between atoms: C_19  and  C_20
REMARK    7  A    between atoms: N_22  and  C_23
REMARK    8  A    between atoms: C_23  and  C_24
REMARK                            x       y       z     vdW  Elec       q    Type
REMARK                         _______ _______ _______ _____ _____    ______ ____
ROOT
ATOM      1  C   UNL     1      -0.954   2.842   1.653  0.00  0.00    -0.034 A 
ATOM      2  C   UNL     1      -0.718   1.572   1.248  0.00  0.00    -0.010 A 
ATOM      3  S   UNL     1      -1.454   0.621   2.570  0.00  0.00    -0.099 S 
ATOM      4  C   UNL     1      -2.023   1.980   3.553  0.00  0.00    -0.016 A 
ATOM      5  C   UNL     1      -1.635   3.077   2.844  0.00  0.00    -0.037 A 
ATOM      6  C   UNL     1      -1.956   4.469   3.382  0.00  0.00    +0.018 C 
ATOM      7  C   UNL     1      -3.061   4.332   4.432  0.00  0.00    -0.072 C 
ATOM      8  N   UNL     1      -2.689   3.323   5.433  0.00  0.00    +0.393 N 
ATOM      9  C   UNL     1      -2.754   1.967   4.854  0.00  0.00    +0.001 C 
ATOM     10  C   UNL     1      -0.013   1.086   0.008  0.00  0.00    +0.052 C 
ATOM     11  H   UNL     1      -1.652   3.518   5.744  0.00  0.00    -0.080 HD
ENDROOT
BRANCH   9  12
ATOM     12  C   UNL     1      -2.106   0.981   5.792  0.00  0.00    -0.056 A 
ATOM     13  C   UNL     1      -0.958   1.332   6.478  0.00  0.00    +0.002 A 
ATOM     14  C   UNL     1      -0.366   0.430   7.341  0.00  0.00    +0.000 A 
ATOM     15  C   UNL     1      -0.916  -0.827   7.512  0.00  0.00    +0.000 A 
ATOM     16  C   UNL     1      -2.061  -1.179   6.822  0.00  0.00    +0.000 A 
ATOM     17  C   UNL     1      -2.656  -0.276   5.962  0.00  0.00    +0.002 A 
ENDBRANCH   9  12
BRANCH   1  19
ATOM     18  C   UNL     1      -1.578   4.387  -0.184  0.00  0.00    +0.009 C 
ATOM     19  C   UNL     1      -0.482   4.001   0.812  0.00  0.00    +0.033 C 
ENDBRANCH   1  19
BRANCH   8  20
ATOM     20  C   UNL     1      -3.538   3.427   6.627  0.00  0.00    +0.020 C 
BRANCH  20  21
ATOM     21  C   UNL     1      -3.261   4.732   7.328  0.00  0.00    +0.197 C 
ATOM     22  O   UNL     1      -2.437   5.500   6.878  0.00  0.00    -0.278 OA
ATOM     23  N   UNL     1      -3.929   5.046   8.456  0.00  0.00    -0.313 N 
ATOM     24  H   UNL     1      -4.676   4.350   8.865  0.00  0.00    +0.149 HD
BRANCH  23  25
ATOM     25  C   UNL     1      -3.660   6.315   9.138  0.00  0.00    +0.139 C 
BRANCH  25  26
ATOM     26  C   UNL     1      -4.531   6.421  10.363  0.00  0.00    -0.027 A 
ATOM     27  C   UNL     1      -5.780   7.007  10.272  0.00  0.00    +0.009 A 
ATOM     28  C   UNL     1      -6.585   7.103  11.392  0.00  0.00    +0.050 A 
ATOM     29  C   UNL     1      -6.137   6.622  12.611  0.00  0.00    +0.166 A 
ATOM     30  C   UNL     1      -4.876   6.036  12.704  0.00  0.00    +0.167 A 
ATOM     31  C   UNL     1      -4.077   5.939  11.576  0.00  0.00    +0.054 A 
ATOM     32  O   UNL     1      -4.670   5.647  13.995  0.00  0.00    -0.453 OA
ATOM     33  C   UNL     1      -5.975   5.629  14.604  0.00  0.00    +0.466 C 
ATOM     34  O   UNL     1      -6.720   6.599  13.845  0.00  0.00    -0.453 OA
ENDBRANCH  25  26
ENDBRANCH  23  25
ENDBRANCH  20  21
ENDBRANCH   8  20
TORSDOF 6
