REMARK  Name = ZINC15674949
REMARK  6 active torsions:
REMARK  status: ('A' for Active; 'I' for Inactive)
REMARK    1  A    between atoms: C_5  and  C_7
REMARK    2  A    between atoms: C_10  and  C_13
REMARK    3  A    between atoms: C_13  and  N_52
REMARK    4  A    between atoms: C_15  and  O_32
REMARK    5  A    between atoms: C_18  and  C_20
REMARK    6  A    between atoms: C_22  and  C_25
REMARK                            x       y       z     vdW  Elec       q    Type
REMARK                         _______ _______ _______ _____ _____    ______ ____
ROOT
ATOM      1  C   UNL     1      -1.984   0.816  -1.396  0.00  0.00    -0.046 C 
ATOM      2  C   UNL     1      -2.319   1.032  -2.887  0.00  0.00    +0.097 C 
ATOM      3  C   UNL     1      -0.970   1.364  -3.557  0.00  0.00    +0.023 C 
ATOM      4  C   UNL     1       0.067   1.320  -2.414  0.00  0.00    +0.025 C 
ATOM      5  N   UNL     1      -0.732   1.561  -1.216  0.00  0.00    +0.392 N 
ATOM      6  H   UNL     1      -0.931   2.564  -1.122  0.00  0.00    -0.080 HD
ENDROOT
BRANCH   4   7
ATOM      7  C   UNL     1       1.104   2.398  -2.604  0.00  0.00    +0.214 A 
ATOM      8  N   UNL     1       2.361   2.220  -2.925  0.00  0.00    -0.193 NA
ATOM      9  C   UNL     1       2.900   3.459  -2.984  0.00  0.00    +0.202 A 
ATOM     10  N   UNL     1       1.949   4.307  -2.689  0.00  0.00    -0.056 NA
ATOM     11  O   UNL     1       0.914   3.714  -2.469  0.00  0.00    -0.339 OA
BRANCH   9  12
ATOM     12  C   UNL     1       4.307   3.793  -3.314  0.00  0.00    +0.023 A 
ATOM     13  C   UNL     1       5.216   2.777  -3.604  0.00  0.00    +0.014 A 
ATOM     14  C   UNL     1       6.523   3.092  -3.916  0.00  0.00    +0.039 A 
ATOM     15  C   UNL     1       6.934   4.416  -3.931  0.00  0.00    +0.123 A 
ATOM     16  C   UNL     1       6.034   5.428  -3.638  0.00  0.00    +0.039 A 
ATOM     17  C   UNL     1       4.725   5.122  -3.330  0.00  0.00    +0.014 A 
ATOM     18  F   UNL     1       8.216   4.720  -4.231  0.00  0.00    -0.205 F 
ENDBRANCH   9  12
ENDBRANCH   4   7
BRANCH   2  19
ATOM     19  O   UNL     1      -2.872  -0.160  -3.449  0.00  0.00    -0.394 OA
ATOM     20  H   UNL     1      -3.722  -0.417  -3.066  0.00  0.00    +0.210 HD
ENDBRANCH   2  19
BRANCH   5  21
ATOM     21  C   UNL     1      -0.013   1.086   0.008  0.00  0.00    -0.042 C 
BRANCH  21  25
ATOM     22  C   UNL     1      -2.014   2.465   3.526  0.00  0.00    +0.000 A 
ATOM     23  C   UNL     1      -2.369   1.246   2.951  0.00  0.00    +0.010 A 
ATOM     24  C   UNL     1      -1.720   0.805   1.816  0.00  0.00    +0.002 A 
ATOM     25  C   UNL     1      -0.718   1.572   1.248  0.00  0.00    -0.064 A 
ATOM     26  C   UNL     1      -0.358   2.780   1.817  0.00  0.00    +0.002 A 
ATOM     27  C   UNL     1      -1.004   3.233   2.949  0.00  0.00    +0.010 A 
BRANCH  22  32
ATOM     28  C   UNL     1      -3.004   4.597   6.452  0.00  0.00    +0.004 A 
ATOM     29  C   UNL     1      -4.003   3.795   6.986  0.00  0.00    +0.020 A 
ATOM     30  C   UNL     1      -4.310   2.595   6.371  0.00  0.00    +0.111 A 
ATOM     31  N   UNL     1      -3.673   2.209   5.285  0.00  0.00    -0.255 NA
ATOM     32  C   UNL     1      -2.709   2.943   4.746  0.00  0.00    +0.071 A 
ATOM     33  C   UNL     1      -2.347   4.163   5.313  0.00  0.00    +0.028 A 
ENDBRANCH  22  32
ENDBRANCH  21  25
ENDBRANCH   5  21
TORSDOF 6
