REMARK  Name = ZINC38776869
REMARK  8 active torsions:
REMARK  status: ('A' for Active; 'I' for Inactive)
REMARK    1  A    between atoms: C_1  and  S_2
REMARK    2  A    between atoms: S_2  and  C_3
REMARK    3  A    between atoms: C_3  and  C_4
REMARK    4  A    between atoms: C_4  and  C_5
REMARK    5  A    between atoms: C_5  and  C_7
REMARK    6  A    between atoms: C_5  and  N_24
REMARK    7  A    between atoms: C_25  and  C_27
REMARK    8  A    between atoms: C_27  and  C_28
REMARK                            x       y       z     vdW  Elec       q    Type
REMARK                         _______ _______ _______ _____ _____    ______ ____
ROOT
ATOM      1  C   UNL     1       1.623  -3.815   3.115  0.00  0.00    +0.236 C 
ATOM      2  O   UNL     1       2.616  -4.502   3.235  0.00  0.00    -0.274 OA
ATOM      3  N   UNL     1       0.401  -4.382   3.167  0.00  0.00    -0.300 N 
ATOM      4  C   UNL     1      -0.805  -3.583   2.909  0.00  0.00    +0.106 C 
ATOM      5  C   UNL     1      -1.625  -4.270   1.812  0.00  0.00    +0.009 C 
ATOM      6  C   UNL     1      -1.902  -5.718   2.216  0.00  0.00    -0.037 C 
ATOM      7  C   UNL     1      -0.581  -6.472   2.378  0.00  0.00    +0.009 C 
ATOM      8  C   UNL     1       0.251  -5.810   3.476  0.00  0.00    +0.106 C 
ATOM      9  C   UNL     1      -2.754  -6.398   1.145  0.00  0.00    +0.140 C 
ATOM     10  C   UNL     1      -3.092  -7.779   1.699  0.00  0.00    +0.042 C 
ATOM     11  N   UNL     1      -2.686  -8.619   0.828  0.00  0.00    -0.243 NA
ATOM     12  C   UNL     1      -2.038  -8.007  -0.194  0.00  0.00    +0.216 C 
ATOM     13  N   UNL     1      -2.008  -6.697  -0.078  0.00  0.00    -0.264 NA
ATOM     14  C   UNL     1      -3.668  -7.952   3.081  0.00  0.00    +0.034 C 
ATOM     15  C   UNL     1      -2.787  -7.101   4.016  0.00  0.00    -0.076 C 
ATOM     16  N   UNL     1      -2.643  -5.743   3.486  0.00  0.00    +0.385 N 
ATOM     17  H   UNL     1      -2.153  -5.178   4.162  0.00  0.00    -0.085 HD
ATOM     18  H   UNL     1      -3.561  -5.351   3.336  0.00  0.00    -0.085 HD
ENDROOT
BRANCH   1  19
ATOM     19  C   UNL     1       1.757  -2.329   2.909  0.00  0.00    +0.160 C 
BRANCH  19  20
ATOM     20  N   UNL     1       3.017  -1.865   3.496  0.00  0.00    -0.304 N 
ATOM     21  C   UNL     1       3.144  -0.583   3.891  0.00  0.00    +0.218 C 
ATOM     22  O   UNL     1       2.216   0.187   3.761  0.00  0.00    -0.275 OA
ATOM     23  H   UNL     1       3.759  -2.481   3.599  0.00  0.00    +0.149 HD
BRANCH  21  24
ATOM     24  C   UNL     1       4.440  -0.106   4.495  0.00  0.00    +0.130 C 
BRANCH  24  25
ATOM     25  C   UNL     1       4.322   1.354   4.849  0.00  0.00    -0.039 A 
ATOM     26  C   UNL     1       4.661   2.320   3.920  0.00  0.00    +0.005 A 
ATOM     27  C   UNL     1       4.553   3.659   4.244  0.00  0.00    +0.020 A 
ATOM     28  C   UNL     1       4.106   4.033   5.498  0.00  0.00    +0.041 A 
ATOM     29  C   UNL     1       3.767   3.066   6.428  0.00  0.00    +0.020 A 
ATOM     30  C   UNL     1       3.870   1.727   6.101  0.00  0.00    +0.005 A 
ATOM     31 CL   UNL     1       3.971   5.715   5.907  0.00  0.00    -0.084 Cl
ENDBRANCH  24  25
ENDBRANCH  21  24
ENDBRANCH  19  20
BRANCH  19  32
ATOM     32  C   UNL     1       1.748  -2.019   1.410  0.00  0.00    +0.042 C 
BRANCH  32  33
ATOM     33  C   UNL     1       1.739  -0.503   1.203  0.00  0.00    +0.071 C 
BRANCH  33  35
ATOM     34  C   UNL     1       1.718   1.676  -0.647  0.00  0.00    +0.084 C 
ATOM     35  S   UNL     1       1.728  -0.136  -0.574  0.00  0.00    -0.164 S 
ENDBRANCH  33  35
ENDBRANCH  32  33
ENDBRANCH  19  32
ENDBRANCH   1  19
TORSDOF 7
