REMARK  Name = ZINC12514613
REMARK  8 active torsions:
REMARK  status: ('A' for Active; 'I' for Inactive)
REMARK    1  A    between atoms: C_1  and  C_2
REMARK    2  A    between atoms: C_2  and  C_4
REMARK    3  A    between atoms: C_2  and  S_18
REMARK    4  A    between atoms: N_6  and  C_7
REMARK    5  A    between atoms: C_8  and  C_15
REMARK    6  A    between atoms: S_18  and  C_19
REMARK    7  A    between atoms: C_22  and  C_30
REMARK    8  A    between atoms: N_23  and  C_24
REMARK                            x       y       z     vdW  Elec       q    Type
REMARK                         _______ _______ _______ _____ _____    ______ ____
ROOT
ATOM      1  C   UNL     1      -2.528   0.560  -5.681  0.00  0.00    +0.029 C 
ATOM      2  C   UNL     1      -2.127   1.898  -5.056  0.00  0.00    +0.137 C 
ENDROOT
BRANCH   2   3
ATOM      3  C   UNL     1      -2.709   1.998  -3.669  0.00  0.00    +0.231 C 
ATOM      4  O   UNL     1      -3.767   2.564  -3.495  0.00  0.00    -0.274 OA
ATOM      5  N   UNL     1      -2.053   1.459  -2.622  0.00  0.00    -0.278 N 
ATOM      6  H   UNL     1      -1.207   1.006  -2.761  0.00  0.00    +0.155 HD
BRANCH   5   7
ATOM      7  C   UNL     1      -2.588   1.551  -1.347  0.00  0.00    +0.084 A 
ATOM      8  C   UNL     1      -2.070   1.065  -0.159  0.00  0.00    +0.068 A 
ATOM      9  C   UNL     1      -2.837   1.304   1.063  0.00  0.00    -0.023 A 
ATOM     10  C   UNL     1      -3.987   1.980   0.892  0.00  0.00    -0.004 A 
ATOM     11  S   UNL     1      -4.069   2.300  -0.853  0.00  0.00    -0.077 S 
ATOM     12  C   UNL     1      -4.717   2.191   2.192  0.00  0.00    +0.043 C 
ATOM     13  C   UNL     1      -3.655   1.925   3.281  0.00  0.00    +0.010 C 
ATOM     14  C   UNL     1      -2.683   0.978   2.549  0.00  0.00    +0.037 C 
BRANCH   8  15
ATOM     15  C   UNL     1      -0.794   0.343  -0.126  0.00  0.00    +0.244 C 
ATOM     16  O   UNL     1      -0.777  -0.867  -0.256  0.00  0.00    -0.270 OA
ATOM     17  N   UNL     1       0.359   1.019   0.043  0.00  0.00    -0.325 N 
ATOM     18  H   UNL     1       1.203   0.542   0.061  0.00  0.00    +0.145 HD
ATOM     19  H   UNL     1       0.345   1.984   0.146  0.00  0.00    +0.145 HD
ENDBRANCH   8  15
ENDBRANCH   5   7
ENDBRANCH   2   3
BRANCH   2  20
ATOM     20  S   UNL     1      -2.757   3.254  -6.074  0.00  0.00    -0.073 S 
BRANCH  20  21
ATOM     21  C   UNL     1      -1.827   2.990  -7.547  0.00  0.00    +0.197 A 
ATOM     22  N   UNL     1      -0.937   2.043  -7.748  0.00  0.00    -0.122 NA
ATOM     23  N   UNL     1      -0.450   2.138  -8.933  0.00  0.00    -0.128 NA
ATOM     24  C   UNL     1      -0.990   3.156  -9.561  0.00  0.00    +0.171 A 
ATOM     25  N   UNL     1      -1.890   3.735  -8.692  0.00  0.00    -0.270 N 
BRANCH  25  26
ATOM     26  C   UNL     1      -2.700   4.853  -8.932  0.00  0.00    +0.051 A 
ATOM     27  C   UNL     1      -3.733   4.778  -9.858  0.00  0.00    +0.026 A 
ATOM     28  C   UNL     1      -4.534   5.880 -10.088  0.00  0.00    +0.002 A 
ATOM     29  C   UNL     1      -4.301   7.060  -9.406  0.00  0.00    +0.000 A 
ATOM     30  C   UNL     1      -3.270   7.139  -8.488  0.00  0.00    +0.002 A 
ATOM     31  C   UNL     1      -2.469   6.039  -8.249  0.00  0.00    +0.026 A 
ENDBRANCH  25  26
BRANCH  24  32
ATOM     32  C   UNL     1      -0.690   3.599 -10.939  0.00  0.00    +0.038 A 
ATOM     33  C   UNL     1      -1.044   4.884 -11.367  0.00  0.00    +0.014 A 
ATOM     34  C   UNL     1      -0.740   5.249 -12.666  0.00  0.00    +0.020 A 
ATOM     35  C   UNL     1      -0.103   4.341 -13.493  0.00  0.00    +0.111 A 
ATOM     36  N   UNL     1       0.219   3.137 -13.063  0.00  0.00    -0.263 NA
ATOM     37  C   UNL     1      -0.044   2.744 -11.833  0.00  0.00    +0.122 A 
ENDBRANCH  24  32
ENDBRANCH  20  21
ENDBRANCH   2  20
TORSDOF 7
