REMARK  Name = ZINC12847170
REMARK  8 active torsions:
REMARK  status: ('A' for Active; 'I' for Inactive)
REMARK    1  A    between atoms: C_1  and  C_2
REMARK    2  A    between atoms: C_2  and  C_21
REMARK    3  A    between atoms: N_5  and  C_9
REMARK    4  A    between atoms: C_9  and  C_10
REMARK    5  A    between atoms: C_10  and  C_12
REMARK    6  A    between atoms: C_10  and  O_20
REMARK    7  A    between atoms: C_12  and  O_13
REMARK    8  A    between atoms: O_13  and  C_14
REMARK                            x       y       z     vdW  Elec       q    Type
REMARK                         _______ _______ _______ _____ _____    ______ ____
ROOT
ATOM      1  C   UNL     1      -2.851   4.122   2.717  0.00  0.00    +0.047 C 
ATOM      2  C   UNL     1      -2.284   2.701   2.709  0.00  0.00    +0.135 C 
ATOM      3  C   UNL     1      -2.029   2.237   1.289  0.00  0.00    +0.251 C 
ATOM      4  O   UNL     1      -2.846   2.107   0.403  0.00  0.00    -0.272 OA
ATOM      5  N   UNL     1      -0.704   1.998   1.216  0.00  0.00    -0.221 N 
ATOM      6  C   UNL     1      -0.092   2.251   2.378  0.00  0.00    +0.310 C 
ATOM      7  O   UNL     1       1.102   2.114   2.557  0.00  0.00    -0.252 OA
ATOM      8  N   UNL     1      -0.947   2.674   3.328  0.00  0.00    -0.281 N 
ATOM      9  H   UNL     1      -0.726   2.915   4.241  0.00  0.00    +0.152 HD
ENDROOT
BRANCH   2  10
ATOM     10  C   UNL     1      -3.216   1.756   3.421  0.00  0.00    -0.012 A 
ATOM     11  C   UNL     1      -4.226   1.125   2.718  0.00  0.00    +0.010 A 
ATOM     12  C   UNL     1      -5.086   0.255   3.365  0.00  0.00    +0.050 A 
ATOM     13  C   UNL     1      -4.931   0.017   4.720  0.00  0.00    +0.162 A 
ATOM     14  C   UNL     1      -3.917   0.651   5.425  0.00  0.00    +0.162 A 
ATOM     15  C   UNL     1      -3.056   1.517   4.774  0.00  0.00    +0.055 A 
ATOM     16  O   UNL     1      -3.774   0.410   6.761  0.00  0.00    -0.488 OA
ATOM     17  C   UNL     1      -4.816   0.910   7.601  0.00  0.00    +0.232 C 
ATOM     18  C   UNL     1      -5.976  -0.070   7.664  0.00  0.00    +0.082 C 
ATOM     19  C   UNL     1      -6.660  -0.244   6.317  0.00  0.00    +0.232 C 
ATOM     20  O   UNL     1      -5.771  -0.840   5.370  0.00  0.00    -0.488 OA
ENDBRANCH   2  10
BRANCH   5  21
ATOM     21  C   UNL     1      -0.019   1.526   0.010  0.00  0.00    +0.152 C 
BRANCH  21  22
ATOM     22  C   UNL     1       0.002  -0.004   0.002  0.00  0.00    +0.170 C 
BRANCH  22  23
ATOM     23  O   UNL     1      -1.335  -0.498  -0.105  0.00  0.00    -0.387 OA
ATOM     24  H   UNL     1      -1.796  -0.214  -0.907  0.00  0.00    +0.210 HD
ENDBRANCH  22  23
BRANCH  22  25
ATOM     25  C   UNL     1       0.825  -0.496  -1.190  0.00  0.00    +0.261 C 
BRANCH  25  26
ATOM     26  O   UNL     1       0.942  -1.919  -1.133  0.00  0.00    -0.489 OA
BRANCH  26  27
ATOM     27  C   UNL     1       1.648  -2.521  -2.126  0.00  0.00    +0.121 A 
ATOM     28  C   UNL     1       2.212  -1.758  -3.138  0.00  0.00    +0.045 A 
ATOM     29  C   UNL     1       2.935  -2.371  -4.143  0.00  0.00    +0.004 A 
ATOM     30  C   UNL     1       3.086  -3.745  -4.148  0.00  0.00    +0.000 A 
ATOM     31  C   UNL     1       2.520  -4.508  -3.144  0.00  0.00    +0.004 A 
ATOM     32  C   UNL     1       1.802  -3.900  -2.133  0.00  0.00    +0.045 A 
ENDBRANCH  26  27
ENDBRANCH  25  26
ENDBRANCH  22  25
ENDBRANCH  21  22
ENDBRANCH   5  21
TORSDOF 7
