REMARK  Name = ZINC00849979
REMARK  8 active torsions:
REMARK  status: ('A' for Active; 'I' for Inactive)
REMARK    1  A    between atoms: C_1  and  C_2
REMARK    2  A    between atoms: C_2  and  C_25
REMARK    3  A    between atoms: C_4  and  N_18
REMARK    4  A    between atoms: C_6  and  N_11
REMARK    5  A    between atoms: C_8  and  C_9
REMARK    6  A    between atoms: C_8  and  C_10
REMARK    7  A    between atoms: C_12  and  C_14
REMARK    8  A    between atoms: C_19  and  C_21
REMARK                            x       y       z     vdW  Elec       q    Type
REMARK                         _______ _______ _______ _____ _____    ______ ____
ROOT
ATOM      1  C   UNL     1       5.607   2.504  -1.642  0.00  0.00    -0.010 C 
ATOM      2  C   UNL     1       4.192   3.075  -1.482  0.00  0.00    -0.072 C 
ATOM      3  C   UNL     1       3.190   2.153  -2.171  0.00  0.00    +0.011 C 
ATOM      4  C   UNL     1       2.942   0.902  -1.332  0.00  0.00    +0.091 C 
ATOM      5  C   UNL     1       2.417   1.310   0.042  0.00  0.00    +0.082 C 
ATOM      6  C   UNL     1       3.412   2.227   0.749  0.00  0.00    -0.053 C 
ATOM      7  C   UNL     1       2.694   2.837   1.973  0.00  0.00    -0.009 C 
ATOM      8  C   UNL     1       4.585   1.394   1.281  0.00  0.00    -0.009 C 
ATOM      9  C   UNL     1       4.161   4.431  -2.221  0.00  0.00    -0.010 C 
ATOM     10  N   UNL     1       3.886   3.382  -0.059  0.00  0.00    +0.387 N 
ATOM     11  H   UNL     1       3.156   4.104  -0.040  0.00  0.00    -0.084 HD
ATOM     12  H   UNL     1       4.740   3.747   0.378  0.00  0.00    -0.084 HD
ENDROOT
BRANCH   5  13
ATOM     13  N   UNL     1       1.129   1.996  -0.099  0.00  0.00    -0.305 N 
ATOM     14  C   UNL     1       0.044   1.534   0.553  0.00  0.00    +0.318 C 
ATOM     15  O   UNL     1       0.109   0.497   1.179  0.00  0.00    -0.266 OA
ATOM     16  H   UNL     1       1.057   2.783  -0.662  0.00  0.00    +0.149 HD
BRANCH  14  17
ATOM     17  C   UNL     1      -1.252   2.302   0.500  0.00  0.00    +0.469 C 
ATOM     18  F   UNL     1      -2.225   1.626   1.243  0.00  0.00    -0.162 F 
ATOM     19  F   UNL     1      -1.059   3.579   1.038  0.00  0.00    -0.162 F 
ATOM     20  F   UNL     1      -1.673   2.414  -0.829  0.00  0.00    -0.162 F 
ENDBRANCH  14  17
ENDBRANCH   5  13
BRANCH   4  21
ATOM     21  N   UNL     1       1.941   0.061  -2.002  0.00  0.00    -0.303 N 
ATOM     22  C   UNL     1       2.327  -0.840  -2.926  0.00  0.00    +0.318 C 
ATOM     23  O   UNL     1       3.502  -0.957  -3.206  0.00  0.00    -0.266 OA
ATOM     24  H   UNL     1       1.001   0.154  -1.779  0.00  0.00    +0.149 HD
BRANCH  22  25
ATOM     25  C   UNL     1       1.300  -1.703  -3.614  0.00  0.00    +0.469 C 
ATOM     26  F   UNL     1       1.938  -2.552  -4.524  0.00  0.00    -0.162 F 
ATOM     27  F   UNL     1       0.620  -2.468  -2.660  0.00  0.00    -0.162 F 
ATOM     28  F   UNL     1       0.389  -0.889  -4.295  0.00  0.00    -0.162 F 
ENDBRANCH  22  25
ENDBRANCH   4  21
TORSDOF 4
