REMARK  Name = ZINC39534429
REMARK  10 active torsions:
REMARK  status: ('A' for Active; 'I' for Inactive)
REMARK    1  A    between atoms: C_1  and  C_2
REMARK    2  A    between atoms: C_2  and  C_3
REMARK    3  A    between atoms: C_2  and  S_4
REMARK    4  A    between atoms: S_4  and  C_7
REMARK    5  A    between atoms: C_10  and  C_13
REMARK    6  A    between atoms: C_13  and  C_15
REMARK    7  A    between atoms: C_13  and  N_18
REMARK    8  A    between atoms: C_15  and  N_16
REMARK    9  A    between atoms: C_22  and  C_25
REMARK   10  A    between atoms: C_25  and  C_26
REMARK                            x       y       z     vdW  Elec       q    Type
REMARK                         _______ _______ _______ _____ _____    ______ ____
ROOT
ATOM      1  C   UNL     1       6.401   1.776  -1.129  0.00  0.00    +0.101 C 
ENDROOT
BRANCH   1   2
ATOM      2  N   UNL     1       7.394   0.709  -1.312  0.00  0.00    -0.297 NA
ATOM      3  C   UNL     1       7.608  -0.032  -0.060  0.00  0.00    +0.066 C 
ATOM      4  C   UNL     1       8.602  -1.169  -0.308  0.00  0.00    -0.067 C 
ATOM      5  N   UNL     1       9.873  -0.612  -0.790  0.00  0.00    +0.383 N 
ATOM      6  C   UNL     1       9.648   0.104  -2.052  0.00  0.00    -0.053 C 
ATOM      7  C   UNL     1       8.662   1.252  -1.819  0.00  0.00    +0.069 C 
ATOM      8  H   UNL     1      10.242   0.027  -0.102  0.00  0.00    -0.085 HD
ATOM      9  H   UNL     1      10.532  -1.361  -0.941  0.00  0.00    -0.085 HD
BRANCH   6  10
ATOM     10  C   UNL     1      10.976   0.668  -2.562  0.00  0.00    +0.020 C 
BRANCH  10  11
ATOM     11  C   UNL     1      11.904  -0.468  -2.908  0.00  0.00    -0.049 A 
ATOM     12  C   UNL     1      12.752  -0.985  -1.946  0.00  0.00    +0.003 A 
ATOM     13  C   UNL     1      13.603  -2.027  -2.264  0.00  0.00    +0.000 A 
ATOM     14  C   UNL     1      13.606  -2.552  -3.542  0.00  0.00    +0.000 A 
ATOM     15  C   UNL     1      12.757  -2.036  -4.504  0.00  0.00    +0.000 A 
ATOM     16  C   UNL     1      11.903  -0.997  -4.185  0.00  0.00    +0.003 A 
ENDBRANCH  10  11
ENDBRANCH   6  10
ENDBRANCH   1   2
BRANCH   1  20
ATOM     17  C   UNL     1       2.475   0.163  -1.610  0.00  0.00    +0.088 A 
ATOM     18  C   UNL     1       2.682   1.525  -1.728  0.00  0.00    +0.027 A 
ATOM     19  C   UNL     1       3.953   2.047  -1.573  0.00  0.00    +0.007 A 
ATOM     20  C   UNL     1       5.016   1.207  -1.298  0.00  0.00    -0.029 A 
ATOM     21  C   UNL     1       4.809  -0.154  -1.178  0.00  0.00    +0.007 A 
ATOM     22  C   UNL     1       3.538  -0.676  -1.330  0.00  0.00    +0.027 A 
BRANCH  17  23
ATOM     23  S   UNL     1       0.856  -0.502  -1.809  0.00  0.00    -0.001 S 
ATOM     24  O   UNL     1       1.064  -1.843  -2.231  0.00  0.00    -0.169 OA
ATOM     25  O   UNL     1       0.183   0.426  -2.648  0.00  0.00    -0.169 OA
BRANCH  23  27
ATOM     26  C   UNL     1       0.095   0.963   0.372  0.00  0.00    +0.032 C 
ATOM     27  C   UNL     1       0.134  -0.477  -0.145  0.00  0.00    +0.130 C 
ATOM     28  C   UNL     1      -1.288  -1.039  -0.197  0.00  0.00    +0.032 C 
ENDBRANCH  23  27
ENDBRANCH  17  23
ENDBRANCH   1  20
BRANCH   1  29
ATOM     29  C   UNL     1       6.542   2.368   0.275  0.00  0.00    +0.115 C 
BRANCH  29  30
ATOM     30  N   UNL     1       7.890   2.928   0.438  0.00  0.00    -0.259 NA
ATOM     31  I   UNL     1       8.052   3.952   2.207  0.00  0.00    +0.018 I 
ATOM     32  H   UNL     1       8.591   2.205   0.373  0.00  0.00    +0.134 HD
ENDBRANCH  29  30
ENDBRANCH   1  29
TORSDOF 8
