REMARK  Name = ZINC09521927
REMARK  2 active torsions:
REMARK  status: ('A' for Active; 'I' for Inactive)
REMARK    1  A    between atoms: C_6  and  C_7
REMARK    2  A    between atoms: C_7  and  C_8
REMARK                            x       y       z     vdW  Elec       q    Type
REMARK                         _______ _______ _______ _____ _____    ______ ____
ROOT
ATOM      1  C   UNL     1      -1.434  -6.943   0.463  0.00  0.00    +0.223 C 
ATOM      2  O   UNL     1      -0.285  -7.046   0.088  0.00  0.00    -0.275 OA
ATOM      3  N   UNL     1      -1.977  -5.722   0.641  0.00  0.00    -0.264 N 
ATOM      4  C   UNL     1      -1.222  -4.585   0.396  0.00  0.00    +0.165 A 
ATOM      5  N   UNL     1      -1.571  -3.326   0.511  0.00  0.00    -0.224 NA
ATOM      6  C   UNL     1      -0.724  -2.309   0.236  0.00  0.00    +0.084 A 
ATOM      7  C   UNL     1      -0.975  -0.920   0.319  0.00  0.00    +0.078 A 
ATOM      8  C   UNL     1       0.002  -0.004   0.002  0.00  0.00    +0.168 A 
ATOM      9  C   UNL     1       1.270  -0.422  -0.410  0.00  0.00    +0.167 A 
ATOM     10  C   UNL     1       1.545  -1.775  -0.502  0.00  0.00    +0.066 A 
ATOM     11  C   UNL     1       0.570  -2.689  -0.186  0.00  0.00    +0.044 A 
ATOM     12  S   UNL     1       0.473  -4.463  -0.156  0.00  0.00    -0.052 S 
ATOM     13  O   UNL     1       2.038   0.679  -0.656  0.00  0.00    -0.453 OA
ATOM     14  C   UNL     1       1.365   1.770  -0.002  0.00  0.00    +0.466 C 
ATOM     15  O   UNL     1      -0.017   1.364   0.009  0.00  0.00    -0.453 OA
ATOM     16  H   UNL     1      -2.896  -5.639   0.941  0.00  0.00    +0.157 HD
ENDROOT
BRANCH   1  17
ATOM     17  C   UNL     1      -2.254  -8.179   0.730  0.00  0.00    +0.131 C 
BRANCH  17  23
ATOM     18  C   UNL     1      -1.414  -9.967  -0.806  0.00  0.00    +0.008 A 
ATOM     19  C   UNL     1      -0.646 -11.088  -1.062  0.00  0.00    +0.050 A 
ATOM     20  C   UNL     1       0.111 -11.655  -0.051  0.00  0.00    +0.166 A 
ATOM     21  C   UNL     1       0.101 -11.091   1.222  0.00  0.00    +0.166 A 
ATOM     22  C   UNL     1      -0.666  -9.965   1.471  0.00  0.00    +0.053 A 
ATOM     23  C   UNL     1      -1.420  -9.404   0.457  0.00  0.00    -0.035 A 
ATOM     24  O   UNL     1       0.919 -11.826   2.031  0.00  0.00    -0.453 OA
ATOM     25  C   UNL     1       1.108 -13.080   1.349  0.00  0.00    +0.466 C 
ATOM     26  O   UNL     1       0.935 -12.744  -0.040  0.00  0.00    -0.453 OA
ENDBRANCH  17  23
ENDBRANCH   1  17
TORSDOF 2
