REMARK  Name = ZINC63141956
REMARK  15 active torsions:
REMARK  status: ('A' for Active; 'I' for Inactive)
REMARK    1  A    between atoms: C_1  and  C_2
REMARK    2  A    between atoms: C_2  and  C_3
REMARK    3  A    between atoms: C_3  and  C_4
REMARK    4  A    between atoms: C_4  and  N_5
REMARK    5  A    between atoms: N_5  and  C_6
REMARK    6  A    between atoms: N_5  and  C_10
REMARK    7  A    between atoms: C_6  and  C_7
REMARK    8  A    between atoms: C_7  and  C_8
REMARK    9  A    between atoms: C_8  and  C_9
REMARK   10  A    between atoms: C_10  and  C_11
REMARK   11  A    between atoms: C_11  and  C_12
REMARK   12  A    between atoms: C_12  and  N_13
REMARK   13  A    between atoms: C_33  and  C_35
REMARK   14  A    between atoms: C_40  and  O_41
REMARK   15  A    between atoms: O_41  and  C_42
REMARK                            x       y       z     vdW  Elec       q    Type
REMARK                         _______ _______ _______ _____ _____    ______ ____
ROOT
ATOM      1  N   UNL     1      -2.753  -5.595  -3.544  0.00  0.00    -0.291 N 
ATOM      2  C   UNL     1      -3.385  -5.947  -2.283  0.00  0.00    +0.203 C 
ATOM      3  C   UNL     1      -4.720  -6.584  -2.480  0.00  0.00    +0.234 C 
ATOM      4  O   UNL     1      -5.335  -6.920  -1.490  0.00  0.00    -0.274 OA
ATOM      5  N   UNL     1      -5.287  -6.811  -3.671  0.00  0.00    -0.279 N 
ATOM      6  C   UNL     1      -4.653  -6.434  -4.930  0.00  0.00    +0.167 C 
ATOM      7  C   UNL     1      -3.315  -5.803  -4.734  0.00  0.00    +0.237 C 
ATOM      8  O   UNL     1      -2.697  -5.462  -5.720  0.00  0.00    -0.274 OA
ATOM      9  C   UNL     1      -5.566  -5.471  -5.710  0.00  0.00    +0.065 C 
ATOM     10  C   UNL     1      -6.954  -6.061  -5.663  0.00  0.00    -0.034 C 
ATOM     11  C   UNL     1      -7.834  -6.319  -6.622  0.00  0.00    -0.001 A 
ATOM     12  C   UNL     1      -7.826  -6.025  -8.065  0.00  0.00    +0.010 A 
ATOM     13  C   UNL     1      -8.902  -6.461  -8.771  0.00  0.00    +0.001 A 
ATOM     14  C   UNL     1      -9.973  -7.152  -8.194  0.00  0.00    +0.002 A 
ATOM     15  C   UNL     1     -10.068  -7.456  -6.875  0.00  0.00    +0.026 A 
ATOM     16  C   UNL     1      -8.999  -7.042  -6.028  0.00  0.00    +0.043 A 
ATOM     17  N   UNL     1      -8.843  -7.178  -4.744  0.00  0.00    -0.375 N 
ATOM     18  C   UNL     1      -7.600  -6.510  -4.357  0.00  0.00    +0.131 C 
ATOM     19  C   UNL     1      -6.612  -7.471  -3.691  0.00  0.00    +0.137 C 
ATOM     20  H   UNL     1      -9.448  -7.642  -4.145  0.00  0.00    +0.160 HD
ENDROOT
BRANCH  19  21
ATOM     21  C   UNL     1      -7.057  -7.766  -2.281  0.00  0.00    +0.017 A 
ATOM     22  C   UNL     1      -7.881  -6.878  -1.617  0.00  0.00    +0.009 A 
ATOM     23  C   UNL     1      -8.290  -7.147  -0.324  0.00  0.00    +0.001 A 
ATOM     24  C   UNL     1      -7.876  -8.305   0.307  0.00  0.00    +0.004 A 
ATOM     25  C   UNL     1      -7.053  -9.197  -0.353  0.00  0.00    +0.046 A 
ATOM     26  C   UNL     1      -6.645  -8.931  -1.652  0.00  0.00    +0.125 A 
BRANCH  26  27
ATOM     27  O   UNL     1      -5.840  -9.809  -2.306  0.00  0.00    -0.495 OA
ATOM     28  C   UNL     1      -5.455 -10.989  -1.597  0.00  0.00    +0.277 C 
ENDBRANCH  26  27
ENDBRANCH  19  21
BRANCH   1  29
ATOM     29  C   UNL     1      -1.428  -4.971  -3.504  0.00  0.00    +0.106 C 
BRANCH  29  30
ATOM     30  C   UNL     1      -1.582  -3.450  -3.428  0.00  0.00    +0.000 C 
BRANCH  30  31
ATOM     31  C   UNL     1      -0.199  -2.799  -3.386  0.00  0.00    -0.077 C 
BRANCH  31  32
ATOM     32  N   UNL     1      -0.346  -1.339  -3.313  0.00  0.00    +0.380 N 
ATOM     33  H   UNL     1      -0.918  -1.020  -4.081  0.00  0.00    -0.082 HD
BRANCH  32  34
ATOM     34  C   UNL     1      -0.986  -0.975  -2.042  0.00  0.00    -0.079 C 
BRANCH  34  35
ATOM     35  C   UNL     1      -1.269   0.529  -2.026  0.00  0.00    -0.019 C 
BRANCH  35  37
ATOM     36  C   UNL     1      -2.336   2.390  -0.745  0.00  0.00    +0.004 C 
ATOM     37  C   UNL     1      -2.053   0.886  -0.761  0.00  0.00    -0.005 C 
ENDBRANCH  35  37
ENDBRANCH  34  35
ENDBRANCH  32  34
BRANCH  32  38
ATOM     38  C   UNL     1       0.978  -0.708  -3.393  0.00  0.00    -0.079 C 
BRANCH  38  39
ATOM     39  C   UNL     1       1.584  -0.969  -4.774  0.00  0.00    -0.019 C 
BRANCH  39  40
ATOM     40  C   UNL     1       2.902  -0.203  -4.905  0.00  0.00    -0.005 C 
ATOM     41  C   UNL     1       3.508  -0.464  -6.285  0.00  0.00    +0.004 C 
ENDBRANCH  39  40
ENDBRANCH  38  39
ENDBRANCH  32  38
ENDBRANCH  31  32
ENDBRANCH  30  31
ENDBRANCH  29  30
ENDBRANCH   1  29
TORSDOF 12
