REMARK  Name = ZINC05840967
REMARK  7 active torsions:
REMARK  status: ('A' for Active; 'I' for Inactive)
REMARK    1  A    between atoms: C_2  and  C_21
REMARK    2  A    between atoms: N_9  and  C1*_10
REMARK    3  A    between atoms: C3*_13  and  O3*_20
REMARK    4  A    between atoms: C4*_15  and  C5*_18
REMARK    5  A    between atoms: C5*_18  and  O5*_19
REMARK    6  A    between atoms: C_21  and  C_23
REMARK    7  A    between atoms: C_21  and  N_25
REMARK                            x       y       z     vdW  Elec       q    Type
REMARK                         _______ _______ _______ _____ _____    ______ ____
ROOT
ATOM      1  C   UNL     1      -2.989  -0.504   3.735  0.00  0.00    +0.104 A 
ATOM      2  C   UNL     1      -3.389  -0.605   5.020  0.00  0.00    +0.059 A 
ATOM      3  C   UNL     1      -4.441  -1.494   5.346  0.00  0.00    +0.259 A 
ATOM      4  O   UNL     1      -4.815  -1.607   6.500  0.00  0.00    -0.267 OA
ATOM      5  N   UNL     1      -5.024  -2.216   4.368  0.00  0.00    -0.275 N 
ATOM      6  H   UNL     1      -5.842  -2.910   4.610  0.00  0.00    +0.173 HD
ATOM      7  C   UNL     1      -4.609  -2.091   3.094  0.00  0.00    +0.331 A 
ATOM      8  O   UNL     1      -5.145  -2.748   2.222  0.00  0.00    -0.246 OA
ATOM      9  N   UNL     1      -3.611  -1.250   2.771  0.00  0.00    -0.274 N 
ENDROOT
BRANCH   9  10
ATOM     10  C1* UNL     1      -3.181  -1.135   1.375  0.00  0.00    +0.226 C 
ATOM     11  C2* UNL     1      -2.613  -2.482   0.875  0.00  0.00    +0.088 C 
ATOM     12  C3* UNL     1      -1.437  -2.078  -0.042  0.00  0.00    +0.150 C 
ATOM     13  C4* UNL     1      -1.433  -0.534   0.013  0.00  0.00    +0.175 C 
ATOM     14  O4* UNL     1      -2.080  -0.207   1.262  0.00  0.00    -0.348 OA
BRANCH  12  15
ATOM     15  O3* UNL     1      -0.206  -2.600   0.463  0.00  0.00    -0.389 OA
ATOM     16  H3* UNL     1       0.734  -2.404  -0.072  0.00  0.00    +0.210 HD
ENDBRANCH  12  15
BRANCH  13  17
ATOM     17  C5* UNL     1       0.002  -0.004   0.002  0.00  0.00    +0.190 C 
BRANCH  17  18
ATOM     18  O5* UNL     1      -0.017   1.425   0.010  0.00  0.00    -0.392 OA
ATOM     19  H5* UNL     1       0.928   1.988   0.004  0.00  0.00    +0.210 HD
ENDBRANCH  17  18
ENDBRANCH  13  17
ENDBRANCH   9  10
BRANCH   2  20
ATOM     20  C   UNL     1      -2.720   0.213   6.095  0.00  0.00    +0.158 C 
BRANCH  20  21
ATOM     21  N   UNL     1      -2.227  -0.676   7.150  0.00  0.00    -0.235 N 
ATOM     22  N   UNL     1      -1.623  -0.258   8.000  0.00  0.00    -0.192 NA
ATOM     23  N   UNL     1      -1.018   0.160   8.851  0.00  0.00    +0.066 NA
ATOM     24  H   UNL     1      -2.449  -1.753   7.109  0.00  0.00    +0.198 HD
ENDBRANCH  20  21
BRANCH  20  25
ATOM     25  C   UNL     1      -3.728   1.198   6.688  0.00  0.00    +0.106 C 
ATOM     26  I   UNL     1      -2.769   2.372   8.229  0.00  0.00    -0.083 I 
ENDBRANCH  20  25
ENDBRANCH   2  20
TORSDOF 7
