REMARK  Name = ZINC63515477
REMARK  11 active torsions:
REMARK  status: ('A' for Active; 'I' for Inactive)
REMARK    1  A    between atoms: C_1  and  C_2
REMARK    2  A    between atoms: C_2  and  O_3
REMARK    3  A    between atoms: O_3  and  C_4
REMARK    4  A    between atoms: C_9  and  S_10
REMARK    5  A    between atoms: S_10  and  N_13
REMARK    6  A    between atoms: N_13  and  C_14
REMARK    7  A    between atoms: C_14  and  C_15
REMARK    8  A    between atoms: C_15  and  C_16
REMARK    9  A    between atoms: C_19  and  O_27
REMARK   10  A    between atoms: C_24  and  C_26
REMARK   11  A    between atoms: O_27  and  C_28
REMARK                            x       y       z     vdW  Elec       q    Type
REMARK                         _______ _______ _______ _____ _____    ______ ____
ROOT
ATOM      1  N   UNL     1      -4.073  -0.537   1.577  0.00  0.00    -0.190 NA
ATOM      2  H   UNL     1      -4.562  -0.923   2.321  0.00  0.00    +0.148 HD
ENDROOT
BRANCH   1   3
ATOM      3  S   UNL     1      -4.361  -1.065   0.034  0.00  0.00    +0.062 S 
ATOM      4  O   UNL     1      -5.397  -2.033   0.123  0.00  0.00    -0.153 OA
ATOM      5  O   UNL     1      -3.093  -1.357  -0.538  0.00  0.00    -0.153 OA
BRANCH   3  11
ATOM      6  C   UNL     1      -6.246   0.839  -0.510  0.00  0.00    +0.148 A 
ATOM      7  C   UNL     1      -6.760   1.915  -1.219  0.00  0.00    +0.063 A 
ATOM      8  C   UNL     1      -6.051   2.442  -2.283  0.00  0.00    +0.021 A 
ATOM      9  C   UNL     1      -4.831   1.896  -2.640  0.00  0.00    +0.017 A 
ATOM     10  C   UNL     1      -4.318   0.824  -1.936  0.00  0.00    +0.033 A 
ATOM     11  C   UNL     1      -5.020   0.297  -0.868  0.00  0.00    +0.147 A 
ATOM     12 BR   UNL     1      -6.751   3.908  -3.250  0.00  0.00    -0.050 Br
BRANCH   6  13
ATOM     13  O   UNL     1      -6.940   0.319   0.536  0.00  0.00    -0.490 OA
BRANCH  13  15
ATOM     14  C   UNL     1      -8.824   0.220   2.046  0.00  0.00    +0.048 C 
ATOM     15  C   UNL     1      -8.241   0.856   0.783  0.00  0.00    +0.226 C 
ENDBRANCH  13  15
ENDBRANCH   6  13
ENDBRANCH   3  11
ENDBRANCH   1   3
BRANCH   1  16
ATOM     16  C   UNL     1      -3.080   0.513   1.819  0.00  0.00    +0.110 C 
BRANCH  16  17
ATOM     17  C   UNL     1      -3.297   1.108   3.212  0.00  0.00    +0.050 C 
BRANCH  17  18
ATOM     18  C   UNL     1      -2.273   2.186   3.462  0.00  0.00    -0.037 C 
ATOM     19  C   UNL     1      -1.297   2.591   2.619  0.00  0.00    +0.003 A 
ATOM     20  C   UNL     1      -0.908   2.167   1.270  0.00  0.00    +0.055 A 
ATOM     21  C   UNL     1       0.140   2.769   0.658  0.00  0.00    +0.121 A 
ATOM     22  C   UNL     1       0.879   3.796   1.272  0.00  0.00    +0.047 A 
ATOM     23  C   UNL     1       0.598   4.253   2.511  0.00  0.00    +0.029 A 
ATOM     24  C   UNL     1      -0.517   3.672   3.265  0.00  0.00    +0.043 A 
ATOM     25  N   UNL     1      -0.993   3.925   4.458  0.00  0.00    -0.378 N 
ATOM     26  C   UNL     1      -2.135   3.037   4.705  0.00  0.00    +0.103 C 
ATOM     27  C   UNL     1      -1.857   2.152   5.922  0.00  0.00    +0.035 C 
ATOM     28  H   UNL     1      -0.651   4.591   5.075  0.00  0.00    +0.160 HD
BRANCH  21  29
ATOM     29  O   UNL     1       0.490   2.366  -0.592  0.00  0.00    -0.495 OA
ATOM     30  C   UNL     1       1.667   2.948  -1.156  0.00  0.00    +0.277 C 
ENDBRANCH  21  29
ENDBRANCH  17  18
ENDBRANCH  16  17
ENDBRANCH   1  16
TORSDOF 8
