REMARK  Name = ZINC09968503
REMARK  9 active torsions:
REMARK  status: ('A' for Active; 'I' for Inactive)
REMARK    1  A    between atoms: C_1  and  C_2
REMARK    2  A    between atoms: C_3  and  C_32
REMARK    3  A    between atoms: C_4  and  C_22
REMARK    4  A    between atoms: C_6  and  C_20
REMARK    5  A    between atoms: C_7  and  S_9
REMARK    6  A    between atoms: S_9  and  C_10
REMARK    7  A    between atoms: C_10  and  C_11
REMARK    8  A    between atoms: C_11  and  C_13
REMARK    9  A    between atoms: C_32  and  C_34
REMARK                            x       y       z     vdW  Elec       q    Type
REMARK                         _______ _______ _______ _____ _____    ______ ____
ROOT
ATOM      1  C   UNL     1      -4.027   0.797   2.385  0.00  0.00    +0.061 C 
ATOM      2  C   UNL     1      -3.220   1.137   1.158  0.00  0.00    +0.013 C 
ATOM      3  C   UNL     1      -2.118   1.907   1.280  0.00  0.00    +0.024 C 
ATOM      4  C   UNL     1      -1.274   2.268   0.092  0.00  0.00    +0.099 C 
ATOM      5  C   UNL     1      -2.017   2.013  -1.188  0.00  0.00    +0.069 C 
ATOM      6  C   UNL     1      -3.131   1.234  -1.215  0.00  0.00    +0.080 C 
ATOM      7  N   UNL     1      -3.613   0.662  -0.059  0.00  0.00    -0.312 N 
ATOM      8  H   UNL     1      -4.318  -0.180  -0.118  0.00  0.00    +0.152 HD
ENDROOT
BRANCH   4   9
ATOM      9  C   UNL     1      -0.015   1.440   0.108  0.00  0.00    -0.010 A 
ATOM     10  C   UNL     1       0.060   0.101   0.066  0.00  0.00    +0.088 A 
ATOM     11  N   UNL     1       1.370  -0.295   0.092  0.00  0.00    -0.360 N 
ATOM     12  H   UNL     1       1.622  -1.365   0.064  0.00  0.00    +0.165 HD
ATOM     13  C   UNL     1       2.191   0.809   0.155  0.00  0.00    +0.047 A 
ATOM     14  C   UNL     1       1.359   1.944   0.167  0.00  0.00    +0.004 A 
ATOM     15  C   UNL     1       1.923   3.220   0.227  0.00  0.00    +0.010 A 
ATOM     16  C   UNL     1       3.282   3.360   0.272  0.00  0.00    +0.001 A 
ATOM     17  C   UNL     1       4.106   2.243   0.259  0.00  0.00    +0.002 A 
ATOM     18  C   UNL     1       3.571   0.975   0.201  0.00  0.00    +0.026 A 
ENDBRANCH   4   9
BRANCH   3  19
ATOM     19  C   UNL     1      -1.753   2.382   2.550  0.00  0.00    +0.159 C 
ATOM     20  O   UNL     1      -2.462   3.183   3.126  0.00  0.00    -0.293 OA
ATOM     21  C   UNL     1      -0.481   1.899   3.198  0.00  0.00    +0.091 C 
ENDBRANCH   3  19
BRANCH   5  22
ATOM     22  C   UNL     1      -1.543   2.602  -2.404  0.00  0.00    +0.098 C 
ATOM     23  N   UNL     1      -1.167   3.070  -3.369  0.00  0.00    -0.191 NA
ENDBRANCH   5  22
BRANCH   6  24
ATOM     24  S   UNL     1      -3.965   0.954  -2.741  0.00  0.00    -0.101 S 
BRANCH  24  25
ATOM     25  C   UNL     1      -5.314  -0.110  -2.172  0.00  0.00    +0.155 C 
BRANCH  25  26
ATOM     26  C   UNL     1      -6.185  -0.487  -3.343  0.00  0.00    +0.173 C 
ATOM     27  O   UNL     1      -5.919  -0.077  -4.453  0.00  0.00    -0.291 OA
BRANCH  26  28
ATOM     28  C   UNL     1      -7.356  -1.353  -3.139  0.00  0.00    +0.018 A 
ATOM     29  C   UNL     1      -7.662  -1.832  -1.861  0.00  0.00    +0.013 A 
ATOM     30  C   UNL     1      -8.764  -2.639  -1.677  0.00  0.00    +0.020 A 
ATOM     31  C   UNL     1      -9.563  -2.984  -2.756  0.00  0.00    +0.041 A 
ATOM     32  C   UNL     1      -9.263  -2.517  -4.025  0.00  0.00    +0.020 A 
ATOM     33  C   UNL     1      -8.167  -1.705  -4.224  0.00  0.00    +0.013 A 
ATOM     34 CL   UNL     1     -10.945  -4.006  -2.516  0.00  0.00    -0.084 Cl
ENDBRANCH  26  28
ENDBRANCH  25  26
ENDBRANCH  24  25
ENDBRANCH   6  24
TORSDOF 7
