REMARK  Name = ZINC64640064
REMARK  5 active torsions:
REMARK  status: ('A' for Active; 'I' for Inactive)
REMARK    1  A    between atoms: C_1  and  C_2
REMARK    2  A    between atoms: C_3  and  C_10
REMARK    3  A    between atoms: C_16  and  C_19
REMARK    4  A    between atoms: C_19  and  N_20
REMARK    5  A    between atoms: C_21  and  C_23
REMARK                            x       y       z     vdW  Elec       q    Type
REMARK                         _______ _______ _______ _____ _____    ______ ____
ROOT
ATOM      1  C   UNL     1      -0.004  -0.378  -2.467  0.00  0.00    +0.265 C 
ATOM      2  O   UNL     1      -0.119   0.807  -2.727  0.00  0.00    -0.268 OA
ATOM      3  N   UNL     1       0.105  -1.278  -3.464  0.00  0.00    -0.296 N 
ATOM      4  C   UNL     1       0.121  -2.719  -3.173  0.00  0.00    +0.108 C 
ATOM      5  C   UNL     1       1.364  -3.338  -3.818  0.00  0.00    +0.019 C 
ATOM      6  C   UNL     1       1.382  -2.998  -5.311  0.00  0.00    +0.008 C 
ATOM      7  C   UNL     1       1.451  -1.480  -5.489  0.00  0.00    +0.024 C 
ATOM      8  C   UNL     1       0.203  -0.839  -4.862  0.00  0.00    +0.113 C 
ENDROOT
BRANCH   1  11
ATOM      9  C   UNL     1       2.549  -0.636  -0.709  0.00  0.00    +0.068 C 
ATOM     10  C   UNL     1       1.126  -0.934  -0.311  0.00  0.00    +0.070 A 
ATOM     11  C   UNL     1       0.014  -0.809  -1.117  0.00  0.00    +0.132 A 
ATOM     12  N   UNL     1      -1.097  -1.190  -0.345  0.00  0.00    -0.289 N 
ATOM     13  C   UNL     1      -2.458  -1.303  -0.500  0.00  0.00    +0.101 A 
ATOM     14  C   UNL     1      -3.227  -1.718   0.507  0.00  0.00    +0.067 A 
ATOM     15  S   UNL     1      -2.022  -1.987   1.797  0.00  0.00    -0.058 S 
ATOM     16  C   UNL     1      -0.579  -1.517   0.870  0.00  0.00    +0.178 A 
ATOM     17  N   UNL     1       0.722  -1.370   0.877  0.00  0.00    -0.226 NA
ENDBRANCH   1  11
BRANCH   7  18
ATOM     18  C   UNL     1       1.503  -1.142  -6.980  0.00  0.00    +0.109 C 
BRANCH  18  19
ATOM     19  N   UNL     1       1.689   0.301  -7.148  0.00  0.00    -0.313 N 
ATOM     20  C   UNL     1       1.765   0.832  -8.385  0.00  0.00    +0.239 C 
ATOM     21  O   UNL     1       1.678   0.114  -9.359  0.00  0.00    -0.273 OA
ATOM     22  H   UNL     1       1.758   0.875  -6.369  0.00  0.00    +0.149 HD
BRANCH  20  23
ATOM     23  C   UNL     1       1.956   2.316  -8.557  0.00  0.00    +0.190 C 
ATOM     24  C   UNL     1       0.780   3.065  -7.972  0.00  0.00    +0.016 C 
ATOM     25  C   UNL     1       0.224   3.751  -8.996  0.00  0.00    -0.004 A 
ATOM     26  C   UNL     1      -0.931   4.654  -9.079  0.00  0.00    +0.010 A 
ATOM     27  C   UNL     1      -1.251   5.202 -10.273  0.00  0.00    +0.001 A 
ATOM     28  C   UNL     1      -0.509   4.931 -11.431  0.00  0.00    +0.002 A 
ATOM     29  C   UNL     1       0.564   4.113 -11.434  0.00  0.00    +0.026 A 
ATOM     30  C   UNL     1       0.991   3.481 -10.234  0.00  0.00    +0.043 A 
ATOM     31  N   UNL     1       1.984   2.660  -9.983  0.00  0.00    -0.370 N 
ATOM     32  H   UNL     1       2.628   2.335 -10.632  0.00  0.00    +0.161 HD
ENDBRANCH  20  23
ENDBRANCH  18  19
ENDBRANCH   7  18
TORSDOF 4
