REMARK  Name = ZINC43528207
REMARK  11 active torsions:
REMARK  status: ('A' for Active; 'I' for Inactive)
REMARK    1  A    between atoms: C_1  and  O_2
REMARK    2  A    between atoms: O_2  and  C_3
REMARK    3  A    between atoms: C_3  and  C_4
REMARK    4  A    between atoms: N_9  and  C_10
REMARK    5  A    between atoms: C_10  and  C_11
REMARK    6  A    between atoms: C_20  and  C_22
REMARK    7  A    between atoms: C_22  and  N_23
REMARK    8  A    between atoms: N_23  and  C_24
REMARK    9  A    between atoms: C_24  and  N_26
REMARK   10  A    between atoms: N_26  and  C_27
REMARK   11  A    between atoms: C_30  and  C_33
REMARK                            x       y       z     vdW  Elec       q    Type
REMARK                         _______ _______ _______ _____ _____    ______ ____
ROOT
ATOM      1  C   UNL     1       0.614  -2.215   4.174  0.00  0.00    -0.041 C 
ATOM      2  C   UNL     1       1.939  -2.399   3.431  0.00  0.00    -0.076 C 
ATOM      3  N   UNL     1       3.007  -1.672   4.121  0.00  0.00    +0.383 N 
ATOM      4  C   UNL     1       2.717  -0.236   4.153  0.00  0.00    -0.078 C 
ATOM      5  C   UNL     1       1.418   0.019   4.920  0.00  0.00    -0.015 C 
ATOM      6  C   UNL     1       0.852  -1.326   5.402  0.00  0.00    -0.015 C 
ATOM      7  C   UNL     1       1.904  -2.001   6.292  0.00  0.00    -0.010 C 
ATOM      8  C   UNL     1       3.190  -2.191   5.479  0.00  0.00    -0.051 C 
ATOM      9  H   UNL     1       3.866  -1.806   3.610  0.00  0.00    -0.081 HD
ENDROOT
BRANCH   1  10
ATOM     10  C   UNL     1      -0.405  -1.549   3.248  0.00  0.00    -0.076 C 
BRANCH  10  15
ATOM     11  C   UNL     1      -2.048  -1.970   1.542  0.00  0.00    -0.043 C 
ATOM     12  C   UNL     1      -1.681  -1.966   0.043  0.00  0.00    -0.015 C 
ATOM     13  C   UNL     1      -0.570  -3.045  -0.049  0.00  0.00    -0.020 C 
ATOM     14  C   UNL     1       0.170  -2.848   1.298  0.00  0.00    -0.078 C 
ATOM     15  N   UNL     1      -0.898  -2.532   2.275  0.00  0.00    +0.383 N 
ATOM     16  H   UNL     1      -1.181  -3.373   2.756  0.00  0.00    -0.081 HD
BRANCH  11  17
ATOM     17  C   UNL     1      -2.320  -0.541   2.015  0.00  0.00    +0.144 C 
BRANCH  17  19
ATOM     18  C   UNL     1      -1.389   1.667   2.026  0.00  0.00    +0.193 C 
ATOM     19  O   UNL     1      -1.234   0.303   1.630  0.00  0.00    -0.385 OA
ENDBRANCH  17  19
ENDBRANCH  11  17
ENDBRANCH  10  15
ENDBRANCH   1  10
BRANCH   8  20
ATOM     20  C   UNL     1       4.337  -1.441   6.159  0.00  0.00    +0.088 C 
BRANCH  20  21
ATOM     21  N   UNL     1       5.541  -1.534   5.330  0.00  0.00    -0.328 N 
ATOM     22  H   UNL     1       5.516  -2.021   4.491  0.00  0.00    +0.148 HD
BRANCH  21  23
ATOM     23  C   UNL     1       6.684  -0.944   5.732  0.00  0.00    +0.134 C 
ATOM     24  S   UNL     1       6.728  -0.086   7.213  0.00  0.00    -0.019 S 
BRANCH  23  25
ATOM     25  N   UNL     1       7.791  -1.030   4.969  0.00  0.00    -0.297 N 
ATOM     26  H   UNL     1       7.784  -1.567   4.162  0.00  0.00    +0.154 HD
BRANCH  25  27
ATOM     27  C   UNL     1       8.952  -0.344   5.342  0.00  0.00    +0.033 A 
ATOM     28  C   UNL     1       9.398  -0.393   6.657  0.00  0.00    +0.024 A 
ATOM     29  C   UNL     1      10.544   0.285   7.021  0.00  0.00    +0.014 A 
ATOM     30  C   UNL     1      11.249   1.012   6.079  0.00  0.00    +0.055 A 
ATOM     31  C   UNL     1      10.808   1.063   4.769  0.00  0.00    +0.014 A 
ATOM     32  C   UNL     1       9.665   0.383   4.397  0.00  0.00    +0.024 A 
BRANCH  30  33
ATOM     33  C   UNL     1      12.499   1.751   6.481  0.00  0.00    +0.417 C 
ATOM     34  F   UNL     1      13.608   0.913   6.321  0.00  0.00    -0.166 F 
ATOM     35  F   UNL     1      12.650   2.884   5.674  0.00  0.00    -0.166 F 
ATOM     36  F   UNL     1      12.399   2.143   7.820  0.00  0.00    -0.166 F 
ENDBRANCH  30  33
ENDBRANCH  25  27
ENDBRANCH  23  25
ENDBRANCH  21  23
ENDBRANCH  20  21
ENDBRANCH   8  20
TORSDOF 10
