REMARK  Name = ZINC14474662
REMARK  6 active torsions:
REMARK  status: ('A' for Active; 'I' for Inactive)
REMARK    1  A    between atoms: C_1  and  C_2
REMARK    2  A    between atoms: C_2  and  C_3
REMARK    3  A    between atoms: C_3  and  C_4
REMARK    4  A    between atoms: N_6  and  C_7
REMARK    5  A    between atoms: C_20  and  C_23
REMARK    6  A    between atoms: C_28  and  O_29
REMARK                            x       y       z     vdW  Elec       q    Type
REMARK                         _______ _______ _______ _____ _____    ______ ____
ROOT
ATOM      1  C   UNL     1       4.443   1.141   2.498  0.00  0.00    +0.039 A 
ATOM      2  C   UNL     1       5.300   0.202   1.939  0.00  0.00    +0.025 A 
ATOM      3  C   UNL     1       5.627   0.289   0.600  0.00  0.00    +0.023 A 
ATOM      4  C   UNL     1       5.112   1.304  -0.178  0.00  0.00    +0.062 A 
ATOM      5  C   UNL     1       4.253   2.263   0.369  0.00  0.00    +0.052 A 
ATOM      6  C   UNL     1       3.919   2.160   1.720  0.00  0.00    +0.003 A 
ATOM      7  C   UNL     1       2.993   3.169   2.281  0.00  0.00    +0.050 C 
ATOM      8  C   UNL     1       3.045   3.576   3.707  0.00  0.00    -0.023 C 
ATOM      9  C   UNL     1       2.689   4.853   3.795  0.00  0.00    -0.030 C 
ATOM     10  C   UNL     1       2.404   5.412   2.399  0.00  0.00    +0.033 C 
ATOM     11  C   UNL     1       3.274   4.504   1.523  0.00  0.00    +0.029 C 
ATOM     12  C   UNL     1       2.823   4.239   0.102  0.00  0.00    +0.108 C 
ATOM     13  N   UNL     1       3.774   3.280  -0.481  0.00  0.00    -0.335 N 
ATOM     14 CL   UNL     1       5.535   1.394  -1.859  0.00  0.00    -0.082 Cl
ATOM     15  H   UNL     1       3.424   2.907  -1.351  0.00  0.00    +0.147 HD
ENDROOT
BRANCH  12  16
ATOM     16  C   UNL     1       1.436   3.650   0.105  0.00  0.00    +0.014 A 
ATOM     17  C   UNL     1       1.267   2.279   0.058  0.00  0.00    +0.009 A 
ATOM     18  C   UNL     1      -0.005   1.738   0.061  0.00  0.00    +0.001 A 
ATOM     19  C   UNL     1      -1.112   2.566   0.104  0.00  0.00    +0.004 A 
ATOM     20  C   UNL     1      -0.948   3.937   0.156  0.00  0.00    +0.046 A 
ATOM     21  C   UNL     1       0.328   4.482   0.154  0.00  0.00    +0.122 A 
BRANCH  21  22
ATOM     22  O   UNL     1       0.491   5.831   0.199  0.00  0.00    -0.506 OA
ATOM     23  H   UNL     1       0.523   6.253  -0.670  0.00  0.00    +0.292 HD
ENDBRANCH  21  22
ENDBRANCH  12  16
BRANCH   1  26
ATOM     24  C   UNL     1       5.003   0.581   4.742  0.00  0.00    +0.217 C 
ATOM     25  O   UNL     1       6.131   0.317   4.383  0.00  0.00    -0.275 OA
ATOM     26  N   UNL     1       4.107   1.057   3.854  0.00  0.00    -0.285 N 
ATOM     27  H   UNL     1       3.230   1.341   4.155  0.00  0.00    +0.155 HD
BRANCH  24  28
ATOM     28  C   UNL     1       4.603   0.378   6.180  0.00  0.00    +0.096 C 
BRANCH  28  30
ATOM     29  C   UNL     1       5.390  -0.373   8.430  0.00  0.00    +0.004 C 
ATOM     30  C   UNL     1       5.796  -0.166   6.969  0.00  0.00    +0.006 C 
ENDBRANCH  28  30
ENDBRANCH  24  28
ENDBRANCH   1  26
TORSDOF 5
