REMARK  Name = ZINC39722408
REMARK  7 active torsions:
REMARK  status: ('A' for Active; 'I' for Inactive)
REMARK    1  A    between atoms: C_1  and  C_2
REMARK    2  A    between atoms: C_8  and  N_10
REMARK    3  A    between atoms: C_11  and  C_34
REMARK    4  A    between atoms: C_15  and  S_17
REMARK    5  A    between atoms: S_17  and  C_18
REMARK    6  A    between atoms: C_18  and  C_19
REMARK    7  A    between atoms: C_27  and  C_31
REMARK                            x       y       z     vdW  Elec       q    Type
REMARK                         _______ _______ _______ _____ _____    ______ ____
ROOT
ATOM      1  N   UNL     1       1.950  -0.057   1.410  0.00  0.00    +0.413 N 
ATOM      2  C   UNL     1       2.371   1.350   1.644  0.00  0.00    +0.051 C 
ATOM      3  N   UNL     1       3.787   1.204   2.071  0.00  0.00    -0.267 NA
ATOM      4  N   UNL     1       3.799  -0.008   2.894  0.00  0.00    -0.262 NA
ATOM      5  C   UNL     1       2.636  -0.819   2.479  0.00  0.00    +0.078 C 
ATOM      6  H   UNL     1       4.088   2.006   2.604  0.00  0.00    +0.139 HD
ATOM      7  H   UNL     1       3.748   0.221   3.876  0.00  0.00    +0.140 HD
ATOM      8  H   UNL     1       2.253  -0.372   0.501  0.00  0.00    -0.075 HD
ENDROOT
BRANCH   1  15
ATOM      9  C   UNL     1       0.516  -2.084  -0.085  0.00  0.00    +0.006 C 
ATOM     10  C   UNL     1       0.089  -1.645   1.317  0.00  0.00    -0.028 C 
ATOM     11  C   UNL     1      -1.429  -1.780   1.452  0.00  0.00    +0.002 C 
ATOM     12  C   UNL     1      -1.857  -1.342   2.854  0.00  0.00    +0.000 C 
ATOM     13  C   UNL     1      -1.453   0.117   3.078  0.00  0.00    -0.002 C 
ATOM     14  C   UNL     1       0.065   0.252   2.942  0.00  0.00    -0.015 C 
ATOM     15  C   UNL     1       0.493  -0.187   1.540  0.00  0.00    -0.060 C 
ENDBRANCH   1  15
BRANCH   2  16
ATOM     16  C   UNL     1       2.273   2.155   0.373  0.00  0.00    -0.028 A 
ATOM     17  C   UNL     1       3.014   3.316   0.219  0.00  0.00    +0.006 A 
ATOM     18  C   UNL     1       2.892   4.024  -0.967  0.00  0.00    +0.020 A 
ATOM     19  C   UNL     1       2.042   3.551  -1.949  0.00  0.00    +0.111 A 
ATOM     20  N   UNL     1       1.352   2.443  -1.767  0.00  0.00    -0.263 NA
ATOM     21  C   UNL     1       1.447   1.741  -0.655  0.00  0.00    +0.114 A 
ENDBRANCH   2  16
BRANCH   5  22
ATOM     22  S   UNL     1       3.194  -2.422   1.839  0.00  0.00    -0.152 S 
BRANCH  22  23
ATOM     23  C   UNL     1       4.323  -1.987   0.487  0.00  0.00    +0.143 C 
BRANCH  23  24
ATOM     24  C   UNL     1       4.865  -3.245  -0.140  0.00  0.00    +0.120 A 
ATOM     25  N   UNL     1       5.738  -3.126  -1.174  0.00  0.00    -0.310 N 
ATOM     26  H   UNL     1       5.994  -2.244  -1.487  0.00  0.00    +0.170 HD
ATOM     27  C   UNL     1       6.254  -4.225  -1.770  0.00  0.00    +0.259 A 
ATOM     28  O   UNL     1       7.037  -4.133  -2.697  0.00  0.00    -0.267 OA
ATOM     29  C   UNL     1       5.831  -5.539  -1.254  0.00  0.00    +0.065 A 
ATOM     30  C   UNL     1       6.305  -6.730  -1.801  0.00  0.00    +0.016 A 
ATOM     31  C   UNL     1       5.887  -7.926  -1.291  0.00  0.00    +0.016 A 
ATOM     32  C   UNL     1       4.983  -7.968  -0.222  0.00  0.00    +0.065 A 
ATOM     33  C   UNL     1       4.497  -6.791   0.337  0.00  0.00    +0.043 A 
ATOM     34  C   UNL     1       4.919  -5.563  -0.176  0.00  0.00    +0.079 A 
ATOM     35  N   UNL     1       4.478  -4.388   0.339  0.00  0.00    -0.233 NA
BRANCH  32  36
ATOM     36  C   UNL     1       4.542  -9.272   0.316  0.00  0.00    +0.387 C 
ATOM     37  O   UNL     1       4.966 -10.310  -0.173  0.00  0.00    -0.241 OA
ATOM     38  O   UNL     1       3.753  -9.314   1.249  0.00  0.00    -0.241 OA
ENDBRANCH  32  36
ENDBRANCH  23  24
ENDBRANCH  22  23
ENDBRANCH   5  22
TORSDOF 6
