REMARK  Name = ZINC65183100
REMARK  6 active torsions:
REMARK  status: ('A' for Active; 'I' for Inactive)
REMARK    1  A    between atoms: C_1  and  N_2
REMARK    2  A    between atoms: N_2  and  C_3
REMARK    3  A    between atoms: C_3  and  C_4
REMARK    4  A    between atoms: C_4  and  C_5
REMARK    5  A    between atoms: C_8  and  C_11
REMARK    6  A    between atoms: C_22  and  C_24
REMARK                            x       y       z     vdW  Elec       q    Type
REMARK                         _______ _______ _______ _____ _____    ______ ____
ROOT
ATOM      1  C   UNL     1      -1.123  -1.800   3.126  0.00  0.00    +0.139 C 
ATOM      2  N   UNL     1       0.002  -2.123   3.654  0.00  0.00    -0.072 NA
ATOM      3  O   UNL     1      -0.189  -2.826   4.867  0.00  0.00    -0.367 OA
ATOM      4  C   UNL     1      -1.609  -2.920   5.060  0.00  0.00    +0.318 C 
ATOM      5  N   UNL     1      -2.181  -2.227   3.894  0.00  0.00    -0.291 N 
ATOM      6  H   UNL     1      -3.123  -2.098   3.703  0.00  0.00    +0.151 HD
ENDROOT
BRANCH   4   7
ATOM      7  C   UNL     1      -2.020  -2.214   6.354  0.00  0.00    +0.165 C 
ATOM      8  C   UNL     1      -3.513  -2.337   6.563  0.00  0.00    +0.012 C 
ATOM      9  C   UNL     1      -3.675  -3.003   7.729  0.00  0.00    -0.002 A 
ATOM     10  C   UNL     1      -4.866  -3.430   8.473  0.00  0.00    +0.029 A 
ATOM     11  C   UNL     1      -4.707  -4.096   9.640  0.00  0.00    +0.042 A 
ATOM     12  C   UNL     1      -3.435  -4.387  10.155  0.00  0.00    +0.022 A 
ATOM     13  C   UNL     1      -2.295  -4.027   9.529  0.00  0.00    +0.027 A 
ATOM     14  C   UNL     1      -2.344  -3.322   8.294  0.00  0.00    +0.043 A 
ATOM     15  N   UNL     1      -1.396  -2.870   7.508  0.00  0.00    -0.373 N 
ATOM     16 CL   UNL     1      -6.113  -4.603  10.523  0.00  0.00    -0.084 Cl
ATOM     17  H   UNL     1      -0.442  -2.955   7.663  0.00  0.00    +0.160 HD
ENDBRANCH   4   7
BRANCH   1  18
ATOM     18  C   UNL     1      -1.266  -1.044   1.831  0.00  0.00    +0.094 C 
BRANCH  18  19
ATOM     19  C   UNL     1       0.121  -0.739   1.262  0.00  0.00    +0.115 C 
BRANCH  19  21
ATOM     20  C   UNL     1      -0.067   1.461   0.012  0.00  0.00    +0.132 C 
ATOM     21  N   UNL     1      -0.018  -0.003   0.003  0.00  0.00    -0.298 N 
ATOM     22  C   UNL     1      -0.102  -0.673  -1.163  0.00  0.00    +0.282 C 
ATOM     23  O   UNL     1      -0.159  -1.889  -1.164  0.00  0.00    -0.267 OA
BRANCH  22  24
ATOM     24  C   UNL     1      -0.124   0.063  -2.432  0.00  0.00    +0.189 A 
ATOM     25  C   UNL     1      -0.326  -0.477  -3.670  0.00  0.00    +0.054 A 
ATOM     26  C   UNL     1      -0.267   0.583  -4.587  0.00  0.00    +0.042 A 
ATOM     27  C   UNL     1      -0.035   1.710  -3.878  0.00  0.00    +0.196 A 
ATOM     28  O   UNL     1       0.046   1.393  -2.580  0.00  0.00    -0.458 OA
ENDBRANCH  22  24
ENDBRANCH  19  21
ENDBRANCH  18  19
ENDBRANCH   1  18
TORSDOF 5
