REMARK  Name = ZINC10022862
REMARK  10 active torsions:
REMARK  status: ('A' for Active; 'I' for Inactive)
REMARK    1  A    between atoms: C_1  and  C_2
REMARK    2  A    between atoms: C_2  and  O_3
REMARK    3  A    between atoms: O_3  and  C_4
REMARK    4  A    between atoms: C_12  and  N_17
REMARK    5  A    between atoms: C_13  and  C_14
REMARK    6  A    between atoms: C_18  and  C_20
REMARK    7  A    between atoms: C_20  and  S_21
REMARK    8  A    between atoms: S_21  and  C_22
REMARK    9  A    between atoms: C_25  and  O_28
REMARK   10  A    between atoms: O_28  and  C_29
REMARK                            x       y       z     vdW  Elec       q    Type
REMARK                         _______ _______ _______ _____ _____    ______ ____
ROOT
ATOM      1  C   UNL     1       4.787  13.748   1.091  0.00  0.00    +0.403 C 
ATOM      2  O   UNL     1       5.782  14.424   1.259  0.00  0.00    -0.226 OA
ATOM      3  N   UNL     1       4.823  12.690   0.256  0.00  0.00    -0.262 N 
ATOM      4  C   UNL     1       6.054  12.329  -0.465  0.00  0.00    +0.116 C 
ATOM      5  C   UNL     1       6.540  10.957   0.006  0.00  0.00    +0.056 C 
ATOM      6  C   UNL     1       5.368   9.984   0.008  0.00  0.00    -0.020 A 
ATOM      7  C   UNL     1       4.090  10.423   0.022  0.00  0.00    +0.013 A 
ATOM      8  S   UNL     1       3.103   8.954   0.023  0.00  0.00    -0.076 S 
ATOM      9  C   UNL     1       4.367   7.769   0.003  0.00  0.00    +0.084 A 
ATOM     10  C   UNL     1       5.522   8.538   0.002  0.00  0.00    +0.068 A 
ATOM     11  C   UNL     1       3.631  11.850   0.032  0.00  0.00    +0.153 C 
ENDROOT
BRANCH  10  12
ATOM     12  C   UNL     1       6.849   7.916  -0.008  0.00  0.00    +0.244 C 
ATOM     13  O   UNL     1       7.395   7.664  -1.067  0.00  0.00    -0.270 OA
ATOM     14  N   UNL     1       7.465   7.622   1.154  0.00  0.00    -0.325 N 
ATOM     15  H   UNL     1       7.030   7.823   1.998  0.00  0.00    +0.145 HD
ATOM     16  H   UNL     1       8.344   7.210   1.147  0.00  0.00    +0.145 HD
ENDBRANCH  10  12
BRANCH   9  17
ATOM     17  N   UNL     1       4.253   6.387  -0.003  0.00  0.00    -0.279 N 
ATOM     18  C   UNL     1       3.034   5.812   0.005  0.00  0.00    +0.228 C 
ATOM     19  O   UNL     1       2.037   6.503   0.019  0.00  0.00    -0.275 OA
ATOM     20  H   UNL     1       5.050   5.834  -0.014  0.00  0.00    +0.155 HD
BRANCH  18  21
ATOM     21  C   UNL     1       2.909   4.310  -0.002  0.00  0.00    +0.170 C 
BRANCH  21  22
ATOM     22  S   UNL     1       1.155   3.849   0.012  0.00  0.00    -0.116 S 
BRANCH  22  23
ATOM     23  C   UNL     1       1.177   2.087   0.002  0.00  0.00    +0.009 A 
ATOM     24  C   UNL     1      -0.017   1.377   0.010  0.00  0.00    +0.018 A 
ATOM     25  C   UNL     1       0.002  -0.004   0.002  0.00  0.00    +0.047 A 
ATOM     26  C   UNL     1       1.212  -0.682  -0.013  0.00  0.00    +0.120 A 
ATOM     27  C   UNL     1       2.405   0.027  -0.020  0.00  0.00    +0.047 A 
ATOM     28  C   UNL     1       2.389   1.407  -0.013  0.00  0.00    +0.018 A 
BRANCH  26  29
ATOM     29  O   UNL     1       1.230  -2.042  -0.021  0.00  0.00    -0.495 OA
ATOM     30  C   UNL     1       2.511  -2.674  -0.036  0.00  0.00    +0.277 C 
ENDBRANCH  26  29
ENDBRANCH  22  23
ENDBRANCH  21  22
ENDBRANCH  18  21
ENDBRANCH   9  17
BRANCH   1  31
ATOM     31  O   UNL     1       3.647  14.055   1.738  0.00  0.00    -0.451 OA
BRANCH  31  33
ATOM     32  C   UNL     1       2.305  15.398   3.263  0.00  0.00    +0.048 C 
ATOM     33  C   UNL     1       3.680  15.207   2.621  0.00  0.00    +0.230 C 
ENDBRANCH  31  33
ENDBRANCH   1  31
TORSDOF 8
