REMARK  Name = ZINC39634839
REMARK  14 active torsions:
REMARK  status: ('A' for Active; 'I' for Inactive)
REMARK    1  A    between atoms: C_1  and  C_2
REMARK    2  A    between atoms: C_2  and  N_3
REMARK    3  A    between atoms: C_4  and  C_10
REMARK    4  A    between atoms: C_6  and  C_8
REMARK    5  A    between atoms: C_14  and  C_23
REMARK    6  A    between atoms: N_25  and  C_26
REMARK    7  A    between atoms: C_26  and  C_27
REMARK    8  A    between atoms: C_27  and  N_28
REMARK    9  A    between atoms: N_28  and  C_29
REMARK   10  A    between atoms: N_28  and  C_32
REMARK   11  A    between atoms: C_29  and  C_30
REMARK   12  A    between atoms: C_29  and  C_31
REMARK   13  A    between atoms: C_32  and  C_33
REMARK   14  A    between atoms: C_32  and  C_34
REMARK                            x       y       z     vdW  Elec       q    Type
REMARK                         _______ _______ _______ _____ _____    ______ ____
ROOT
ATOM      1  C   UNL     1       5.219   2.606   0.002  0.00  0.00    +0.266 C 
ATOM      2  O   UNL     1       6.423   2.442   0.053  0.00  0.00    -0.268 OA
ATOM      3  N   UNL     1       4.601   2.692  -1.193  0.00  0.00    -0.295 N 
ATOM      4  C   UNL     1       3.147   2.796  -1.459  0.00  0.00    +0.121 C 
ATOM      5  C   UNL     1       3.034   3.799  -2.629  0.00  0.00    +0.100 C 
ATOM      6  C   UNL     1       4.399   3.734  -3.334  0.00  0.00    -0.004 C 
ATOM      7  C   UNL     1       5.224   2.712  -2.539  0.00  0.00    +0.115 C 
ATOM      8  C   UNL     1       5.080   5.098  -3.295  0.00  0.00    -0.010 C 
ATOM      9  C   UNL     1       6.409   5.023  -4.052  0.00  0.00    -0.082 C 
ATOM     10  N   UNL     1       6.160   4.618  -5.441  0.00  0.00    +0.379 N 
ATOM     11  C   UNL     1       5.590   3.265  -5.474  0.00  0.00    -0.082 C 
ATOM     12  C   UNL     1       4.227   3.267  -4.777  0.00  0.00    -0.010 C 
ATOM     13  H   UNL     1       5.514   5.264  -5.867  0.00  0.00    -0.086 HD
ATOM     14  H   UNL     1       7.029   4.628  -5.953  0.00  0.00    -0.086 HD
ENDROOT
BRANCH   1  16
ATOM     15  N   UNL     1       4.012   3.858   1.851  0.00  0.00    -0.258 N 
ATOM     16  C   UNL     1       4.437   2.710   1.243  0.00  0.00    +0.138 A 
ATOM     17  C   UNL     1       3.982   1.664   2.029  0.00  0.00    +0.071 A 
ATOM     18  C   UNL     1       3.296   2.269   3.087  0.00  0.00    +0.075 A 
ATOM     19  N   UNL     1       3.359   3.565   2.918  0.00  0.00    -0.175 NA
ATOM     20  C   UNL     1       2.610   1.554   4.223  0.00  0.00    +0.069 C 
ATOM     21 BR   UNL     1       4.235  -0.186   1.735  0.00  0.00    -0.046 Br
BRANCH  15  23
ATOM     22  C   UNL     1       5.631   5.690   1.870  0.00  0.00    +0.029 C 
ATOM     23  C   UNL     1       4.268   5.216   1.365  0.00  0.00    +0.141 C 
ENDBRANCH  15  23
ENDBRANCH   1  16
BRANCH   5  24
ATOM     24  C   UNL     1       1.933   3.385  -3.571  0.00  0.00    +0.218 C 
ATOM     25  O   UNL     1       1.618   2.217  -3.659  0.00  0.00    -0.275 OA
ATOM     26  N   UNL     1       1.299   4.312  -4.316  0.00  0.00    -0.317 N 
ATOM     27  H   UNL     1       1.599   5.235  -4.300  0.00  0.00    +0.149 HD
BRANCH  26  28
ATOM     28  C   UNL     1       0.158   3.927  -5.149  0.00  0.00    +0.085 C 
BRANCH  28  29
ATOM     29  C   UNL     1      -0.374   5.158  -5.886  0.00  0.00    -0.059 C 
BRANCH  29  30
ATOM     30  N   UNL     1      -1.603   4.803  -6.608  0.00  0.00    +0.384 N 
ATOM     31  H   UNL     1      -2.262   4.388  -5.966  0.00  0.00    -0.081 HD
BRANCH  30  32
ATOM     32  C   UNL     1      -2.191   6.013  -7.198  0.00  0.00    -0.074 C 
ATOM     33  C   UNL     1      -3.500   5.652  -7.903  0.00  0.00    -0.014 C 
ATOM     34  C   UNL     1      -2.471   7.035  -6.094  0.00  0.00    -0.014 C 
ENDBRANCH  30  32
BRANCH  30  35
ATOM     35  C   UNL     1      -1.286   3.843  -7.673  0.00  0.00    -0.074 C 
ATOM     36  C   UNL     1       0.104   4.147  -8.236  0.00  0.00    -0.014 C 
ATOM     37  C   UNL     1      -1.307   2.423  -7.104  0.00  0.00    -0.014 C 
ENDBRANCH  30  35
ENDBRANCH  29  30
ENDBRANCH  28  29
ENDBRANCH  26  28
ENDBRANCH   5  24
TORSDOF 8
