REMARK  Name = ZINC61442714
REMARK  4 active torsions:
REMARK  status: ('A' for Active; 'I' for Inactive)
REMARK    1  A    between atoms: C_4  and  C_7
REMARK    2  A    between atoms: C_7  and  C_8
REMARK    3  A    between atoms: C_7  and  N_13
REMARK    4  A    between atoms: C_14  and  C_16
REMARK                            x       y       z     vdW  Elec       q    Type
REMARK                         _______ _______ _______ _____ _____    ______ ____
ROOT
ATOM      1  N   UNL     1       3.611  -1.865  -0.930  0.00  0.00    -0.298 N 
ATOM      2  C   UNL     1       4.721  -2.370  -1.504  0.00  0.00    +0.245 C 
ATOM      3  O   UNL     1       5.805  -1.867  -1.281  0.00  0.00    -0.270 OA
ATOM      4  H   UNL     1       2.747  -2.267  -1.108  0.00  0.00    +0.150 HD
ENDROOT
BRANCH   2   5
ATOM      5  C   UNL     1       4.621  -3.537  -2.403  0.00  0.00    +0.040 A 
ATOM      6  C   UNL     1       3.375  -4.113  -2.665  0.00  0.00    +0.015 A 
ATOM      7  C   UNL     1       3.280  -5.202  -3.504  0.00  0.00    +0.028 A 
ATOM      8  C   UNL     1       4.423  -5.727  -4.091  0.00  0.00    +0.076 A 
ATOM      9  C   UNL     1       5.672  -5.156  -3.833  0.00  0.00    +0.143 A 
ATOM     10  C   UNL     1       5.771  -4.062  -2.999  0.00  0.00    +0.060 A 
ATOM     11  O   UNL     1       6.782  -5.686  -4.414  0.00  0.00    -0.481 OA
ATOM     12  C   UNL     1       6.780  -7.099  -4.633  0.00  0.00    +0.325 C 
ATOM     13  C   UNL     1       5.466  -7.513  -5.247  0.00  0.00    +0.255 C 
ATOM     14  O   UNL     1       5.421  -8.456  -6.008  0.00  0.00    -0.272 OA
ATOM     15  N   UNL     1       4.341  -6.831  -4.945  0.00  0.00    -0.280 N 
ATOM     16  H   UNL     1       3.486  -7.103  -5.315  0.00  0.00    +0.155 HD
ENDBRANCH   2   5
BRANCH   1  17
ATOM     17  C   UNL     1       3.711  -0.707  -0.038  0.00  0.00    +0.170 C 
BRANCH  17  21
ATOM     18  C   UNL     1      -0.017   1.378   0.010  0.00  0.00    +0.000 A 
ATOM     19  C   UNL     1       1.171   2.086   0.002  0.00  0.00    +0.000 A 
ATOM     20  C   UNL     1       2.377   1.411  -0.013  0.00  0.00    +0.006 A 
ATOM     21  C   UNL     1       2.396   0.029  -0.020  0.00  0.00    -0.020 A 
ATOM     22  C   UNL     1       1.208  -0.679  -0.012  0.00  0.00    +0.006 A 
ATOM     23  C   UNL     1       0.002  -0.004   0.002  0.00  0.00    +0.000 A 
ENDBRANCH  17  21
BRANCH  17  24
ATOM     24  C   UNL     1       4.044  -1.175   1.356  0.00  0.00    +0.129 A 
ATOM     25  C   UNL     1       4.893  -0.570   2.207  0.00  0.00    +0.047 A 
ATOM     26  C   UNL     1       4.904  -1.342   3.391  0.00  0.00    +0.041 A 
ATOM     27  C   UNL     1       4.061  -2.372   3.193  0.00  0.00    +0.195 A 
ATOM     28  O   UNL     1       3.539  -2.262   1.961  0.00  0.00    -0.466 OA
ENDBRANCH  17  24
ENDBRANCH   1  17
TORSDOF 4
