REMARK  Name = ZINC39711076
REMARK  13 active torsions:
REMARK  status: ('A' for Active; 'I' for Inactive)
REMARK    1  A    between atoms: C_1  and  C_2
REMARK    2  A    between atoms: C_4  and  C_39
REMARK    3  A    between atoms: C_9  and  C_14
REMARK    4  A    between atoms: C_14  and  C_16
REMARK    5  A    between atoms: C_14  and  N_26
REMARK    6  A    between atoms: N_21  and  C_22
REMARK    7  A    between atoms: C_22  and  C_23
REMARK    8  A    between atoms: C_22  and  C_24
REMARK    9  A    between atoms: C_22  and  C_25
REMARK   10  A    between atoms: N_26  and  C_27
REMARK   11  A    between atoms: N_26  and  C_33
REMARK   12  A    between atoms: C_27  and  C_28
REMARK   13  A    between atoms: C_33  and  C_34
REMARK                            x       y       z     vdW  Elec       q    Type
REMARK                         _______ _______ _______ _____ _____    ______ ____
ROOT
ATOM      1  C   UNL     1       1.369  -4.968   3.085  0.00  0.00    -0.010 C 
ENDROOT
BRANCH   1  10
ATOM      2  C   UNL     1      -2.841  -6.286  -2.532  0.00  0.00    +0.044 C 
ATOM      3  C   UNL     1      -2.593  -5.882  -1.101  0.00  0.00    -0.050 A 
ATOM      4  C   UNL     1      -3.621  -6.009  -0.167  0.00  0.00    +0.008 A 
ATOM      5  C   UNL     1      -3.472  -5.666   1.139  0.00  0.00    -0.028 A 
ATOM      6  C   UNL     1      -2.246  -5.158   1.608  0.00  0.00    +0.043 A 
ATOM      7  N   UNL     1      -2.111  -4.825   2.892  0.00  0.00    -0.284 N 
ATOM      8  C   UNL     1      -0.989  -4.342   3.398  0.00  0.00    +0.223 C 
ATOM      9  O   UNL     1      -0.925  -4.056   4.579  0.00  0.00    -0.275 OA
ATOM     10  C   UNL     1       0.215  -4.148   2.504  0.00  0.00    +0.088 C 
ATOM     11  C   UNL     1       0.067  -4.526   1.043  0.00  0.00    -0.006 C 
ATOM     12  C   UNL     1      -1.142  -5.013   0.643  0.00  0.00    -0.007 A 
ATOM     13  C   UNL     1      -1.371  -5.407  -0.747  0.00  0.00    +0.012 A 
ATOM     14  C   UNL     1      -4.627  -5.830   2.092  0.00  0.00    +0.046 C 
ATOM     15  H   UNL     1      -2.872  -4.942   3.482  0.00  0.00    +0.155 HD
ENDBRANCH   1  10
BRANCH   1  16
ATOM     16  C   UNL     1       1.777  -4.385   4.439  0.00  0.00    +0.183 C 
ATOM     17  N   UNL     1       0.710  -4.585   5.438  0.00  0.00    -0.229 N 
ATOM     18  N   UNL     1       0.312  -3.303   5.835  0.00  0.00    -0.064 NA
ATOM     19  N   UNL     1       0.937  -2.415   5.263  0.00  0.00    -0.061 NA
ATOM     20  N   UNL     1       1.891  -2.916   4.362  0.00  0.00    -0.211 N 
ATOM     21  H   UNL     1       0.356  -5.431   5.753  0.00  0.00    +0.172 HD
BRANCH  20  22
ATOM     22  C   UNL     1       2.808  -2.144   3.520  0.00  0.00    +0.047 C 
ATOM     23  C   UNL     1       2.604  -2.534   2.055  0.00  0.00    +0.033 C 
ATOM     24  C   UNL     1       2.525  -0.650   3.695  0.00  0.00    +0.033 C 
ATOM     25  C   UNL     1       4.251  -2.441   3.932  0.00  0.00    +0.033 C 
ENDBRANCH  20  22
ENDBRANCH   1  16
BRANCH   1  26
ATOM     26  N   UNL     1       0.939  -6.361   3.262  0.00  0.00    +0.392 N 
ATOM     27  H   UNL     1       1.529  -6.812   3.945  0.00  0.00    -0.080 HD
BRANCH  26  28
ATOM     28  C   UNL     1       1.043  -7.072   1.980  0.00  0.00    -0.002 C 
BRANCH  28  29
ATOM     29  C   UNL     1       2.494  -7.217   1.603  0.00  0.00    +0.089 A 
ATOM     30  C   UNL     1       3.269  -8.287   1.852  0.00  0.00    +0.042 A 
ATOM     31  C   UNL     1       4.550  -7.997   1.329  0.00  0.00    +0.041 A 
ATOM     32  C   UNL     1       4.481  -6.766   0.791  0.00  0.00    +0.195 A 
ATOM     33  O   UNL     1       3.232  -6.301   0.954  0.00  0.00    -0.470 OA
ENDBRANCH  28  29
ENDBRANCH  26  28
BRANCH  26  34
ATOM     34  C   UNL     1      -0.455  -6.389   3.725  0.00  0.00    -0.034 C 
BRANCH  34  35
ATOM     35  C   UNL     1      -0.795  -7.773   4.214  0.00  0.00    -0.027 A 
ATOM     36  C   UNL     1      -0.676  -8.291   5.461  0.00  0.00    +0.009 A 
ATOM     37  C   UNL     1      -1.055  -9.602   5.681  0.00  0.00    +0.008 A 
ATOM     38  C   UNL     1      -1.534 -10.331   4.644  0.00  0.00    +0.045 A 
ATOM     39  S   UNL     1      -1.466  -9.154   3.303  0.00  0.00    -0.103 S 
ENDBRANCH  34  35
ENDBRANCH  26  34
ENDBRANCH   1  26
TORSDOF 8
