REMARK  Name = ZINC08716066
REMARK  7 active torsions:
REMARK  status: ('A' for Active; 'I' for Inactive)
REMARK    1  A    between atoms: C_1  and  C_2
REMARK    2  A    between atoms: C_9  and  C_14
REMARK    3  A    between atoms: C_14  and  O_16
REMARK    4  A    between atoms: O_16  and  C_17
REMARK    5  A    between atoms: C_17  and  C_19
REMARK    6  A    between atoms: C_17  and  C_20
REMARK    7  A    between atoms: N_22  and  C_23
REMARK                            x       y       z     vdW  Elec       q    Type
REMARK                         _______ _______ _______ _____ _____    ______ ____
ROOT
ATOM      1  C   UNL     1       0.001  -0.007   0.013  0.00  0.00    +0.340 C 
ATOM      2  O   UNL     1      -1.041  -0.631   0.028  0.00  0.00    -0.245 OA
ENDROOT
BRANCH   1  10
ATOM      3  C   UNL     1      -1.479   6.134  -2.335  0.00  0.00    +0.029 C 
ATOM      4  C   UNL     1      -1.656   6.362  -0.832  0.00  0.00    +0.134 C 
ATOM      5  C   UNL     1      -2.724   5.443  -0.305  0.00  0.00    +0.230 C 
ATOM      6  O   UNL     1      -3.857   5.868  -0.226  0.00  0.00    -0.274 OA
ATOM      7  N   UNL     1      -2.495   4.190   0.077  0.00  0.00    -0.284 N 
ATOM      8  C   UNL     1      -1.269   3.530   0.048  0.00  0.00    +0.048 A 
ATOM      9  C   UNL     1      -1.243   2.145   0.035  0.00  0.00    +0.039 A 
ATOM     10  C   UNL     1      -0.021   1.466   0.018  0.00  0.00    +0.061 A 
ATOM     11  C   UNL     1       1.180   2.183   0.001  0.00  0.00    +0.016 A 
ATOM     12  C   UNL     1       1.154   3.560   0.004  0.00  0.00    +0.017 A 
ATOM     13  C   UNL     1      -0.059   4.234   0.027  0.00  0.00    +0.030 A 
ATOM     14  S   UNL     1      -0.095   5.999   0.027  0.00  0.00    -0.111 S 
ATOM     15  H   UNL     1      -3.255   3.687   0.409  0.00  0.00    +0.155 HD
ENDBRANCH   1  10
BRANCH   1  16
ATOM     16  O   UNL     1       1.179  -0.663  -0.009  0.00  0.00    -0.449 OA
BRANCH  16  17
ATOM     17  C   UNL     1       1.125  -2.114  -0.014  0.00  0.00    +0.259 C 
ATOM     18  C   UNL     1       1.130  -2.629   1.427  0.00  0.00    +0.062 C 
BRANCH  17  19
ATOM     19  C   UNL     1       2.324  -2.659  -0.746  0.00  0.00    +0.258 C 
ATOM     20  O   UNL     1       3.189  -1.904  -1.139  0.00  0.00    -0.271 OA
ATOM     21  N   UNL     1       2.435  -3.984  -0.965  0.00  0.00    -0.282 N 
ATOM     22  H   UNL     1       1.779  -4.593  -0.594  0.00  0.00    +0.155 HD
BRANCH  21  23
ATOM     23  C   UNL     1       3.498  -4.480  -1.728  0.00  0.00    +0.034 A 
ATOM     24  C   UNL     1       3.309  -5.583  -2.550  0.00  0.00    +0.024 A 
ATOM     25  C   UNL     1       4.358  -6.067  -3.307  0.00  0.00    +0.017 A 
ATOM     26  C   UNL     1       5.600  -5.462  -3.238  0.00  0.00    +0.018 A 
ATOM     27  C   UNL     1       5.793  -4.366  -2.415  0.00  0.00    +0.017 A 
ATOM     28  C   UNL     1       4.746  -3.874  -1.661  0.00  0.00    +0.024 A 
ATOM     29 BR   UNL     1       7.036  -6.131  -4.270  0.00  0.00    -0.050 Br
ENDBRANCH  21  23
ENDBRANCH  17  19
ENDBRANCH  16  17
ENDBRANCH   1  16
TORSDOF 5
