REMARK  Name = ZINC12099030
REMARK  7 active torsions:
REMARK  status: ('A' for Active; 'I' for Inactive)
REMARK    1  A    between atoms: C_9  and  C_12
REMARK    2  A    between atoms: C_19  and  C_20
REMARK    3  A    between atoms: C_19  and  N_62
REMARK    4  A    between atoms: C_20  and  N_21
REMARK    5  A    between atoms: C_22  and  C_24
REMARK    6  A    between atoms: C_28  and  C_30
REMARK    7  A    between atoms: C_30  and  N_31
REMARK                            x       y       z     vdW  Elec       q    Type
REMARK                         _______ _______ _______ _____ _____    ______ ____
ROOT
ATOM      1  C   UNL     1       4.175   2.114   2.256  0.00  0.00    +0.000 A 
ATOM      2  C   UNL     1       3.388   2.956   3.020  0.00  0.00    +0.004 A 
ATOM      3  C   UNL     1       3.196   4.269   2.634  0.00  0.00    +0.046 A 
ATOM      4  C   UNL     1       3.799   4.740   1.476  0.00  0.00    +0.123 A 
ATOM      5  C   UNL     1       4.599   3.899   0.725  0.00  0.00    -0.022 A 
ATOM      6  C   UNL     1       4.784   2.586   1.106  0.00  0.00    +0.005 A 
ATOM      7  C   UNL     1       5.277   4.434  -0.521  0.00  0.00    -0.039 C 
ATOM      8  C   UNL     1       3.643   6.031  -1.365  0.00  0.00    -0.028 C 
ATOM      9  C   UNL     1       2.782   6.146  -0.126  0.00  0.00    +0.190 C 
ATOM     10  O   UNL     1       3.577   6.017   1.059  0.00  0.00    -0.486 OA
ATOM     11  N   UNL     1       4.227   4.683  -1.537  0.00  0.00    +0.386 N 
ATOM     12  H   UNL     1       3.484   3.984  -1.421  0.00  0.00    -0.081 HD
ENDROOT
BRANCH   9  13
ATOM     13  C   UNL     1       2.098   7.489  -0.120  0.00  0.00    +0.026 A 
ATOM     14  C   UNL     1       2.659   8.547   0.570  0.00  0.00    +0.010 A 
ATOM     15  C   UNL     1       2.032   9.779   0.575  0.00  0.00    +0.001 A 
ATOM     16  C   UNL     1       0.846   9.956  -0.113  0.00  0.00    +0.003 A 
ATOM     17  C   UNL     1       0.281   8.898  -0.799  0.00  0.00    +0.039 A 
ATOM     18  C   UNL     1       0.908   7.663  -0.805  0.00  0.00    +0.130 A 
ATOM     19  F   UNL     1       0.359   6.629  -1.480  0.00  0.00    -0.205 F 
ENDBRANCH   9  13
BRANCH  11  20
ATOM     20  C   UNL     1       4.795   4.555  -2.889  0.00  0.00    -0.059 C 
BRANCH  20  21
ATOM     21  C   UNL     1       5.968   5.517  -3.086  0.00  0.00    +0.086 C 
BRANCH  21  22
ATOM     22  N   UNL     1       6.441   5.434  -4.470  0.00  0.00    -0.313 N 
ATOM     23  C   UNL     1       7.475   6.197  -4.875  0.00  0.00    +0.244 C 
ATOM     24  O   UNL     1       8.015   6.955  -4.093  0.00  0.00    -0.270 OA
ATOM     25  H   UNL     1       6.011   4.829  -5.094  0.00  0.00    +0.149 HD
BRANCH  23  26
ATOM     26  C   UNL     1       7.953   6.113  -6.272  0.00  0.00    +0.037 A 
ATOM     27  C   UNL     1       7.335   5.244  -7.173  0.00  0.00    +0.013 A 
ATOM     28  C   UNL     1       7.786   5.171  -8.475  0.00  0.00    +0.001 A 
ATOM     29  C   UNL     1       8.847   5.956  -8.888  0.00  0.00    +0.005 A 
ATOM     30  C   UNL     1       9.463   6.820  -8.000  0.00  0.00    -0.025 A 
ATOM     31  C   UNL     1       9.019   6.907  -6.697  0.00  0.00    +0.018 A 
BRANCH  30  32
ATOM     32  C   UNL     1      10.618   7.672  -8.460  0.00  0.00    +0.178 C 
BRANCH  32  33
ATOM     33  N   UNL     1      10.111   8.948  -8.970  0.00  0.00    -0.267 N 
ATOM     34  C   UNL     1      10.482  10.176  -8.549  0.00  0.00    +0.108 A 
ATOM     35  C   UNL     1       9.789  11.086  -9.271  0.00  0.00    +0.041 A 
ATOM     36  C   UNL     1       8.958  10.392 -10.156  0.00  0.00    +0.134 A 
ATOM     37  N   UNL     1       9.150   9.110  -9.977  0.00  0.00    -0.179 NA
ENDBRANCH  32  33
ENDBRANCH  30  32
ENDBRANCH  23  26
ENDBRANCH  21  22
ENDBRANCH  20  21
ENDBRANCH  11  20
TORSDOF 7
