REMARK  Name = ZINC66970319
REMARK  6 active torsions:
REMARK  status: ('A' for Active; 'I' for Inactive)
REMARK    1  A    between atoms: C_7  and  C_11
REMARK    2  A    between atoms: C_11  and  C_13
REMARK    3  A    between atoms: C_11  and  C_22
REMARK    4  A    between atoms: C_13  and  N_14
REMARK    5  A    between atoms: N_14  and  C_15
REMARK    6  A    between atoms: C_15  and  C_16
REMARK                            x       y       z     vdW  Elec       q    Type
REMARK                         _______ _______ _______ _____ _____    ______ ____
ROOT
ATOM      1  C   UNL     1       0.666  -3.275  -0.021  0.00  0.00    +0.041 C 
ENDROOT
BRANCH   1   8
ATOM      2  C   UNL     1      -0.017   1.362   0.009  0.00  0.00    +0.001 A 
ATOM      3  C   UNL     1       1.170   2.083   0.002  0.00  0.00    +0.002 A 
ATOM      4  C   UNL     1       2.386   1.436  -0.013  0.00  0.00    +0.026 A 
ATOM      5  C   UNL     1       2.428   0.046  -0.021  0.00  0.00    +0.047 A 
ATOM      6  C   UNL     1       1.223  -0.681  -0.013  0.00  0.00    +0.003 A 
ATOM      7  C   UNL     1       0.002  -0.004   0.002  0.00  0.00    +0.010 A 
ATOM      8  C   UNL     1       1.604  -2.095  -0.025  0.00  0.00    -0.016 A 
ATOM      9  C   UNL     1       2.945  -2.141  -0.038  0.00  0.00    +0.087 A 
ATOM     10  N   UNL     1       3.455  -0.871  -0.036  0.00  0.00    -0.360 N 
ATOM     11  H   UNL     1       4.399  -0.650  -0.044  0.00  0.00    +0.165 HD
ENDBRANCH   1   8
BRANCH   1  12
ATOM     12  C   UNL     1       0.923  -4.117   1.202  0.00  0.00    -0.005 A 
ATOM     13  C   UNL     1       0.074  -4.443   2.208  0.00  0.00    +0.012 A 
ATOM     14  C   UNL     1       0.533  -5.238   3.241  0.00  0.00    +0.008 A 
ATOM     15  C   UNL     1       1.818  -5.669   3.219  0.00  0.00    +0.045 A 
ATOM     16  S   UNL     1       2.421  -4.950   1.700  0.00  0.00    -0.101 S 
ENDBRANCH   1  12
BRANCH   1  17
ATOM     17  C   UNL     1       0.901  -4.117  -1.277  0.00  0.00    -0.069 C 
BRANCH  17  18
ATOM     18  N   UNL     1      -0.091  -5.199  -1.335  0.00  0.00    +0.383 N 
ATOM     19  H   UNL     1       0.000  -5.782  -0.517  0.00  0.00    -0.085 HD
ATOM     20  H   UNL     1      -1.019  -4.803  -1.363  0.00  0.00    -0.085 HD
BRANCH  18  21
ATOM     21  C   UNL     1       0.134  -6.006  -2.541  0.00  0.00    -0.027 C 
BRANCH  21  22
ATOM     22  C   UNL     1      -0.883  -7.116  -2.599  0.00  0.00    +0.019 A 
ATOM     23  C   UNL     1      -2.058  -7.087  -3.272  0.00  0.00    +0.042 A 
ATOM     24  C   UNL     1      -2.701  -8.312  -3.068  0.00  0.00    +0.134 A 
ATOM     25  N   UNL     1      -1.940  -9.050  -2.301  0.00  0.00    -0.182 NA
ATOM     26  H   UNL     1      -0.045  -8.623  -1.446  0.00  0.00    +0.188 HD
ATOM     27  N   UNL     1      -0.785  -8.319  -1.996  0.00  0.00    -0.283 N 
ENDBRANCH  21  22
ENDBRANCH  18  21
ENDBRANCH  17  18
ENDBRANCH   1  17
TORSDOF 6
