REMARK  Name = ZINC39007262
REMARK  6 active torsions:
REMARK  status: ('A' for Active; 'I' for Inactive)
REMARK    1  A    between atoms: C_5  and  C_7
REMARK    2  A    between atoms: C_7  and  S_8
REMARK    3  A    between atoms: S_8  and  C_9
REMARK    4  A    between atoms: C_14  and  C_16
REMARK    5  A    between atoms: C_18  and  N_34
REMARK    6  A    between atoms: C_23  and  C_28
REMARK                            x       y       z     vdW  Elec       q    Type
REMARK                         _______ _______ _______ _____ _____    ______ ____
ROOT
ATOM      1  C   UNL     1       1.331 -10.946   1.121  0.00  0.00    +0.124 C 
ATOM      2  C   UNL     1       0.605 -11.715  -0.008  0.00  0.00    -0.024 C 
ATOM      3  C   UNL     1       1.519 -12.327  -1.024  0.00  0.00    -0.053 C 
ATOM      4  C   UNL     1       1.158 -13.166  -2.011  0.00  0.00    +0.002 C 
ATOM      5  C   UNL     1       2.214 -13.757  -2.839  0.00  0.00    +0.023 C 
ATOM      6  C   UNL     1       3.506 -13.710  -2.424  0.00  0.00    +0.035 C 
ATOM      7  N   UNL     1       3.804 -13.076  -1.209  0.00  0.00    -0.328 N 
ATOM      8  C   UNL     1       2.985 -11.913  -0.859  0.00  0.00    +0.154 C 
ATOM      9  S   UNL     1       3.049 -11.611   0.957  0.00  0.00    -0.123 S 
ATOM     10  H   UNL     1       4.516 -13.392  -0.630  0.00  0.00    +0.147 HD
ENDROOT
BRANCH   1  16
ATOM     11  C   UNL     1       2.449  -4.942  -0.788  0.00  0.00    +0.160 A 
ATOM     12  N   UNL     1       1.476  -5.378  -0.002  0.00  0.00    -0.133 NA
ATOM     13  N   UNL     1       1.360  -6.596   0.304  0.00  0.00    -0.125 NA
ATOM     14  C   UNL     1       2.203  -7.513  -0.140  0.00  0.00    +0.189 A 
ATOM     15  N   UNL     1       2.233  -8.887   0.090  0.00  0.00    -0.262 N 
ATOM     16  C   UNL     1       1.298  -9.460   0.873  0.00  0.00    +0.230 C 
ATOM     17  O   UNL     1       0.431  -8.780   1.379  0.00  0.00    -0.274 OA
ATOM     18  S   UNL     1       3.290  -6.487  -1.125  0.00  0.00    -0.024 S 
ATOM     19  H   UNL     1       2.927  -9.431  -0.315  0.00  0.00    +0.157 HD
BRANCH  11  20
ATOM     20  S   UNL     1       2.810  -3.311  -1.348  0.00  0.00    -0.092 S 
BRANCH  20  21
ATOM     21  C   UNL     1       1.519  -2.290  -0.585  0.00  0.00    +0.113 C 
BRANCH  21  26
ATOM     22  C   UNL     1       2.680   1.302  -0.587  0.00  0.00    +0.000 A 
ATOM     23  C   UNL     1       2.068   1.790  -1.727  0.00  0.00    +0.001 A 
ATOM     24  C   UNL     1       1.279   0.958  -2.498  0.00  0.00    +0.020 A 
ATOM     25  C   UNL     1       1.101  -0.363  -2.129  0.00  0.00    +0.045 A 
ATOM     26  C   UNL     1       1.713  -0.851  -0.988  0.00  0.00    -0.019 A 
ATOM     27  C   UNL     1       2.502  -0.018  -0.217  0.00  0.00    +0.006 A 
ATOM     28 CL   UNL     1       0.109  -1.409  -3.096  0.00  0.00    -0.083 Cl
ENDBRANCH  21  26
ENDBRANCH  20  21
ENDBRANCH  11  20
ENDBRANCH   1  16
BRANCH   6  29
ATOM     29  C   UNL     1       4.579 -14.315  -3.238  0.00  0.00    -0.001 A 
ATOM     30  C   UNL     1       5.913 -14.276  -2.814  0.00  0.00    +0.027 A 
ATOM     31  C   UNL     1       6.883 -14.854  -3.606  0.00  0.00    +0.083 A 
ATOM     32  N   UNL     1       6.567 -15.438  -4.747  0.00  0.00    -0.367 N 
ATOM     33  C   UNL     1       5.323 -15.497  -5.183  0.00  0.00    +0.083 A 
ATOM     34  C   UNL     1       4.290 -14.951  -4.452  0.00  0.00    +0.027 A 
ATOM     35  H   UNL     1       7.272 -15.836  -5.282  0.00  0.00    +0.165 HD
ENDBRANCH   6  29
BRANCH   2  36
ATOM     36  N   UNL     1      -0.300 -10.787  -0.698  0.00  0.00    +0.384 N 
ATOM     37  H   UNL     1       0.242 -10.082  -1.176  0.00  0.00    -0.089 HD
ATOM     38  H   UNL     1      -0.857 -11.295  -1.368  0.00  0.00    -0.089 HD
ATOM     39  H   UNL     1      -0.906 -10.344  -0.024  0.00  0.00    -0.089 HD
ENDBRANCH   2  36
TORSDOF 6
