REMARK  Name = ZINC38744466
REMARK  6 active torsions:
REMARK  status: ('A' for Active; 'I' for Inactive)
REMARK    1  A    between atoms: C_1  and  C_2
REMARK    2  A    between atoms: C_2  and  C_3
REMARK    3  A    between atoms: C_2  and  C_4
REMARK    4  A    between atoms: C_6  and  C_10
REMARK    5  A    between atoms: C_14  and  C_19
REMARK    6  A    between atoms: C_19  and  C_20
REMARK                            x       y       z     vdW  Elec       q    Type
REMARK                         _______ _______ _______ _____ _____    ______ ____
ROOT
ATOM      1  C   UNL     1       3.477  -0.875  -3.068  0.00  0.00    +0.182 C 
ATOM      2  N   UNL     1       3.791  -1.062  -4.510  0.00  0.00    -0.265 N 
ATOM      3  N   UNL     1       5.099  -1.327  -4.785  0.00  0.00    -0.224 N 
ATOM      4  C   UNL     1       5.946  -1.242  -5.875  0.00  0.00    +0.156 A 
ATOM      5  N   UNL     1       7.109  -1.700  -5.518  0.00  0.00    -0.132 NA
ATOM      6  N   UNL     1       7.082  -2.058  -4.282  0.00  0.00    -0.121 NA
ATOM      7  C   UNL     1       5.901  -1.835  -3.795  0.00  0.00    +0.210 A 
ATOM      8  S   UNL     1       4.849  -1.883  -2.357  0.00  0.00    -0.058 S 
ATOM      9  H   UNL     1       3.186  -1.754  -4.925  0.00  0.00    +0.168 HD
ENDROOT
BRANCH   1  12
ATOM     10  C   UNL     1       0.707  -0.490  -1.238  0.00  0.00    +0.064 C 
ATOM     11  C   UNL     1       1.805  -1.250  -1.237  0.00  0.00    +0.029 C 
ATOM     12  C   UNL     1       2.107  -1.457  -2.710  0.00  0.00    +0.185 C 
ATOM     13  N   UNL     1       1.029  -0.708  -3.378  0.00  0.00    -0.177 NA
ATOM     14  N   UNL     1       0.311  -0.220  -2.502  0.00  0.00    -0.158 NA
BRANCH  10  16
ATOM     15  C   UNL     1      -0.019   1.526   0.010  0.00  0.00    +0.014 C 
ATOM     16  C   UNL     1       0.002  -0.004   0.002  0.00  0.00    +0.033 C 
ATOM     17  C   UNL     1      -1.433  -0.534   0.013  0.00  0.00    +0.014 C 
ENDBRANCH  10  16
ENDBRANCH   1  12
BRANCH   4  18
ATOM     18  C   UNL     1       5.584  -0.712  -7.239  0.00  0.00    +0.113 C 
BRANCH  18  19
ATOM     19  C   UNL     1       5.852   0.770  -7.290  0.00  0.00    -0.040 A 
ATOM     20  C   UNL     1       4.862   1.664  -6.928  0.00  0.00    +0.005 A 
ATOM     21  C   UNL     1       5.107   3.023  -6.974  0.00  0.00    +0.020 A 
ATOM     22  C   UNL     1       6.345   3.489  -7.382  0.00  0.00    +0.041 A 
ATOM     23  C   UNL     1       7.335   2.594  -7.745  0.00  0.00    +0.020 A 
ATOM     24  C   UNL     1       7.090   1.234  -7.692  0.00  0.00    +0.005 A 
ATOM     25 CL   UNL     1       6.654   5.196  -7.441  0.00  0.00    -0.084 Cl
ENDBRANCH  18  19
ENDBRANCH   4  18
TORSDOF 4
