REMARK  Name = ZINC32044711
REMARK  7 active torsions:
REMARK  status: ('A' for Active; 'I' for Inactive)
REMARK    1  A    between atoms: C_1  and  N_2
REMARK    2  A    between atoms: C_5  and  C_12
REMARK    3  A    between atoms: C_7  and  C_9
REMARK    4  A    between atoms: N_14  and  C_15
REMARK    5  A    between atoms: C_15  and  C_16
REMARK    6  A    between atoms: N_18  and  C_27
REMARK    7  A    between atoms: C_20  and  C_21
REMARK                            x       y       z     vdW  Elec       q    Type
REMARK                         _______ _______ _______ _____ _____    ______ ____
ROOT
ATOM      1  C   UNL     1       1.220   3.588   0.009  0.00  0.00    +0.245 C 
ATOM      2  O   UNL     1       0.177   4.212   0.022  0.00  0.00    -0.270 OA
ATOM      3  N   UNL     1       2.398   4.244   0.002  0.00  0.00    -0.307 N 
ATOM      4  H   UNL     1       3.341   3.679  -0.010  0.00  0.00    +0.149 HD
ENDROOT
BRANCH   1   9
ATOM      5  C   UNL     1      -1.743  -1.832   0.010  0.00  0.00    +0.175 C 
ATOM      6  N   UNL     1      -1.312  -0.432   0.012  0.00  0.00    -0.246 N 
ATOM      7  C   UNL     1       0.002  -0.004   0.002  0.00  0.00    +0.163 A 
ATOM      8  C   UNL     1      -0.017   1.401   0.010  0.00  0.00    +0.098 A 
ATOM      9  C   UNL     1       1.196   2.106   0.002  0.00  0.00    +0.054 A 
ATOM     10  C   UNL     1       2.381   1.367  -0.013  0.00  0.00    +0.037 A 
ATOM     11  C   UNL     1       2.313  -0.016  -0.019  0.00  0.00    +0.047 A 
ATOM     12  N   UNL     1       1.158  -0.650  -0.012  0.00  0.00    -0.232 NA
ATOM     13  C   UNL     1      -1.433   1.806   0.031  0.00  0.00    +0.298 A 
ATOM     14  O   UNL     1      -1.859   2.944   0.044  0.00  0.00    -0.264 OA
ATOM     15  N   UNL     1      -2.167   0.674   0.026  0.00  0.00    -0.127 NA
BRANCH  11  16
ATOM     16  C   UNL     1       3.591  -0.815  -0.035  0.00  0.00    +0.038 C 
ATOM     17  C   UNL     1       4.877  -0.082  -0.423  0.00  0.00    +0.010 C 
ATOM     18  C   UNL     1       4.241  -1.080  -1.395  0.00  0.00    +0.010 C 
ENDBRANCH  11  16
ENDBRANCH   1   9
BRANCH   3  19
ATOM     19  C   UNL     1       2.421   5.708   0.009  0.00  0.00    +0.143 C 
BRANCH  19  20
ATOM     20  C   UNL     1       3.849   6.188  -0.002  0.00  0.00    +0.015 A 
ATOM     21  C   UNL     1       4.551   6.621   1.068  0.00  0.00    +0.120 A 
ATOM     22  N   UNL     1       5.796   6.959   0.641  0.00  0.00    -0.239 N 
ATOM     23  N   UNL     1       5.856   6.734  -0.740  0.00  0.00    -0.166 NA
ATOM     24  C   UNL     1       4.688   6.270  -1.131  0.00  0.00    +0.098 A 
BRANCH  24  25
ATOM     25  C   UNL     1       4.318   5.899  -2.520  0.00  0.00    +0.002 A 
ATOM     26  C   UNL     1       3.462   4.825  -2.752  0.00  0.00    +0.010 A 
ATOM     27  C   UNL     1       3.118   4.487  -4.045  0.00  0.00    +0.001 A 
ATOM     28  C   UNL     1       3.629   5.207  -5.110  0.00  0.00    +0.000 A 
ATOM     29  C   UNL     1       4.483   6.271  -4.886  0.00  0.00    +0.001 A 
ATOM     30  C   UNL     1       4.830   6.621  -3.596  0.00  0.00    +0.010 A 
ENDBRANCH  24  25
BRANCH  22  31
ATOM     31  C   UNL     1       6.835   7.451   1.442  0.00  0.00    +0.065 A 
ATOM     32  C   UNL     1       6.638   7.633   2.804  0.00  0.00    +0.028 A 
ATOM     33  C   UNL     1       7.666   8.114   3.591  0.00  0.00    +0.002 A 
ATOM     34  C   UNL     1       8.887   8.424   3.022  0.00  0.00    +0.000 A 
ATOM     35  C   UNL     1       9.085   8.249   1.665  0.00  0.00    +0.002 A 
ATOM     36  C   UNL     1       8.063   7.764   0.873  0.00  0.00    +0.028 A 
ENDBRANCH  22  31
ENDBRANCH  19  20
ENDBRANCH   3  19
TORSDOF 6
