REMARK  Name = ZINC63416455
REMARK  8 active torsions:
REMARK  status: ('A' for Active; 'I' for Inactive)
REMARK    1  A    between atoms: C_4  and  C_7
REMARK    2  A    between atoms: N_9  and  C_10
REMARK    3  A    between atoms: C_10  and  C_21
REMARK    4  A    between atoms: C_11  and  C_12
REMARK    5  A    between atoms: N_23  and  CA_24
REMARK    6  A    between atoms: CA_24  and  CB_26
REMARK    7  A    between atoms: CA_24  and  C_36
REMARK    8  A    between atoms: CB_26  and  CG_27
REMARK                            x       y       z     vdW  Elec       q    Type
REMARK                         _______ _______ _______ _____ _____    ______ ____
ROOT
ATOM      1  C   UNK A   1       4.364  -3.204   0.635  0.00  0.00    +0.097 C 
ATOM      2  C   UNK A   1       4.464  -4.495   0.237  0.00  0.00    +0.036 C 
ENDROOT
BRANCH   2   3
ATOM      3  C   UNK A   1       3.357  -5.429   0.486  0.00  0.00    -0.019 A 
ATOM      4  C   UNK A   1       3.256  -6.611  -0.256  0.00  0.00    +0.012 A 
ATOM      5  C   UNK A   1       2.217  -7.485  -0.020  0.00  0.00    +0.050 A 
ATOM      6  C   UNK A   1       1.269  -7.197   0.952  0.00  0.00    +0.166 A 
ATOM      7  C   UNK A   1       1.363  -6.020   1.696  0.00  0.00    +0.167 A 
ATOM      8  C   UNK A   1       2.404  -5.142   1.470  0.00  0.00    +0.057 A 
ATOM      9  O   UNK A   1       0.319  -5.976   2.576  0.00  0.00    -0.453 OA
ATOM     10  C   UNK A   1      -0.638  -6.933   2.084  0.00  0.00    +0.466 C 
ATOM     11  O   UNK A   1       0.167  -7.888   1.368  0.00  0.00    -0.453 OA
ENDBRANCH   2   3
BRANCH   1  14
ATOM     12  C   UNK A   0       3.118  -2.156   2.369  0.00  0.00    +0.248 C 
ATOM     13  O   UNK A   0       4.149  -1.985   2.991  0.00  0.00    -0.270 OA
ATOM     14  N   UNK A   1       3.154  -2.723   1.147  0.00  0.00    -0.277 N 
ATOM     15  H   UNK A   1       2.341  -2.796   0.623  0.00  0.00    +0.155 HD
BRANCH  12  19
ATOM     16  C   UNK A   0      -0.597  -0.967   4.050  0.00  0.00    +0.000 A 
ATOM     17  C   UNK A   0       0.561  -0.871   4.801  0.00  0.00    +0.001 A 
ATOM     18  C   UNK A   0       1.771  -1.255   4.261  0.00  0.00    +0.013 A 
ATOM     19  C   UNK A   0       1.825  -1.742   2.954  0.00  0.00    +0.037 A 
ATOM     20  C   UNK A   0       0.653  -1.836   2.202  0.00  0.00    +0.013 A 
ATOM     21  C   UNK A   0      -0.550  -1.448   2.754  0.00  0.00    +0.001 A 
ENDBRANCH  12  19
ENDBRANCH   1  14
BRANCH   1  22
ATOM     22  C   UNK A   1       5.524  -2.311   0.529  0.00  0.00    +0.259 C 
ATOM     23  O   UNK A   1       6.604  -2.754   0.186  0.00  0.00    -0.269 OA
ATOM     24  N   TRP A   2       5.393  -0.999   0.812  0.00  0.00    -0.297 N 
ATOM     25  H   TRP A   2       4.552  -0.659   1.154  0.00  0.00    +0.150 HD
BRANCH  24  26
ATOM     26  CA  TRP A   2       6.522  -0.089   0.604  0.00  0.00    +0.191 C 
BRANCH  26  27
ATOM     27  C   TRP A   2       7.439  -0.144   1.799  0.00  0.00    +0.376 C 
ATOM     28  O   TRP A   2       8.633   0.058   1.660  0.00  0.00    -0.244 OA
ATOM     29  OXT TRP A   2       6.986  -0.390   2.904  0.00  0.00    -0.244 OA
ENDBRANCH  26  27
BRANCH  26  30
ATOM     30  CB  TRP A   2       5.999   1.339   0.427  0.00  0.00    +0.067 C 
BRANCH  30  31
ATOM     31  CG  TRP A   2       5.202   1.427  -0.849  0.00  0.00    -0.039 C 
ATOM     32  CD2 TRP A   2       3.861   1.312  -0.980  0.00  0.00    -0.001 A 
ATOM     33  CE3 TRP A   2       2.784   1.078  -0.011  0.00  0.00    +0.010 A 
ATOM     34  CZ3 TRP A   2       1.508   1.009  -0.452  0.00  0.00    +0.001 A 
ATOM     35  CH2 TRP A   2       1.188   1.156  -1.809  0.00  0.00    +0.002 A 
ATOM     36  CZ2 TRP A   2       2.123   1.374  -2.759  0.00  0.00    +0.026 A 
ATOM     37  CE2 TRP A   2       3.498   1.464  -2.407  0.00  0.00    +0.043 A 
ATOM     38  NE1 TRP A   2       4.573   1.665  -3.130  0.00  0.00    -0.380 N 
ATOM     39  CD1 TRP A   2       5.740   1.670  -2.242  0.00  0.00    +0.144 C 
ATOM     40  HE1 TRP A   2       4.592   1.794  -4.091  0.00  0.00    +0.160 HD
ENDBRANCH  30  31
ENDBRANCH  26  30
ENDBRANCH  24  26
ENDBRANCH   1  22
TORSDOF 8
