REMARK  Name = ZINC42655771
REMARK  6 active torsions:
REMARK  status: ('A' for Active; 'I' for Inactive)
REMARK    1  A    between atoms: C_1  and  C_2
REMARK    2  A    between atoms: C_5  and  C_8
REMARK    3  A    between atoms: C_8  and  C_9
REMARK    4  A    between atoms: C_14  and  C_24
REMARK    5  A    between atoms: C_15  and  C_17
REMARK    6  A    between atoms: N_22  and  C_23
REMARK                            x       y       z     vdW  Elec       q    Type
REMARK                         _______ _______ _______ _____ _____    ______ ____
ROOT
ATOM      1  C   UNL     1       1.487  -4.759  -0.032  0.00  0.00    +0.223 C 
ATOM      2  O   UNL     1       2.398  -3.959  -0.033  0.00  0.00    -0.275 OA
ATOM      3  N   UNL     1       1.750  -6.081  -0.041  0.00  0.00    -0.264 N 
ATOM      4  C   UNL     1       3.064  -6.527  -0.050  0.00  0.00    +0.165 A 
ATOM      5  N   UNL     1       4.170  -5.810  -0.047  0.00  0.00    -0.229 NA
ATOM      6  C   UNL     1       5.355  -6.380  -0.057  0.00  0.00    +0.058 A 
ATOM      7  C   UNL     1       5.377  -7.753  -0.071  0.00  0.00    +0.081 A 
ATOM      8  S   UNL     1       3.628  -8.112  -0.062  0.00  0.00    -0.049 S 
ATOM      9  C   UNL     1       6.624  -5.568  -0.053  0.00  0.00    +0.067 C 
ATOM     10  H   UNL     1       1.021  -6.721  -0.040  0.00  0.00    +0.157 HD
ENDROOT
BRANCH   7  11
ATOM     11  C   UNL     1       6.525  -8.674  -0.085  0.00  0.00    +0.173 A 
ATOM     12  N   UNL     1       7.797  -8.338  -0.081  0.00  0.00    -0.128 NA
ATOM     13  N   UNL     1       8.529  -9.394  -0.097  0.00  0.00    -0.121 NA
ATOM     14  C   UNL     1       7.774 -10.469  -0.112  0.00  0.00    +0.202 A 
ATOM     15  S   UNL     1       8.334 -12.139  -0.136  0.00  0.00    -0.009 SA
ATOM     16  N   UNL     1       6.472 -10.050  -0.099  0.00  0.00    -0.304 N 
ATOM     17  C   UNL     1       5.271 -10.890  -0.102  0.00  0.00    +0.153 C 
ENDBRANCH   7  11
BRANCH   1  18
ATOM     18  C   UNL     1       0.059  -4.275  -0.021  0.00  0.00    +0.131 C 
BRANCH  18  23
ATOM     19  C   UNL     1      -0.018   1.503   0.010  0.00  0.00    +0.044 C 
ATOM     20  C   UNL     1       0.002  -0.004   0.002  0.00  0.00    -0.050 A 
ATOM     21  C   UNL     1       0.006  -0.689  -1.199  0.00  0.00    +0.003 A 
ATOM     22  C   UNL     1       0.025  -2.071  -1.206  0.00  0.00    +0.004 A 
ATOM     23  C   UNL     1       0.040  -2.768  -0.013  0.00  0.00    -0.039 A 
ATOM     24  C   UNL     1       0.037  -2.084   1.188  0.00  0.00    +0.004 A 
ATOM     25  C   UNL     1       0.023  -0.702   1.195  0.00  0.00    +0.003 A 
ENDBRANCH  18  23
ENDBRANCH   1  18
TORSDOF 3
