REMARK  Name = ZINC67652636
REMARK  4 active torsions:
REMARK  status: ('A' for Active; 'I' for Inactive)
REMARK    1  A    between atoms: C_4  and  C_7
REMARK    2  A    between atoms: C_10  and  S_12
REMARK    3  A    between atoms: S_12  and  C_13
REMARK    4  A    between atoms: C_13  and  C_14
REMARK                            x       y       z     vdW  Elec       q    Type
REMARK                         _______ _______ _______ _____ _____    ______ ____
ROOT
ATOM      1  C   UNL     1       8.713  -1.425  -0.086  0.00  0.00    +0.132 C 
ENDROOT
BRANCH   1   2
ATOM      2  C   UNL     1      10.154  -0.985  -0.093  0.00  0.00    +0.061 A 
ATOM      3  C   UNL     1      11.170  -1.939  -0.116  0.00  0.00    +0.096 A 
ATOM      4  C   UNL     1      12.475  -1.524  -0.122  0.00  0.00    +0.276 A 
ATOM      5  O   UNL     1      13.482  -2.426  -0.144  0.00  0.00    -0.266 OA
ATOM      6  N   UNL     1      12.741  -0.189  -0.106  0.00  0.00    -0.158 N 
ATOM      7  C   UNL     1      11.718   0.716  -0.084  0.00  0.00    +0.258 A 
ATOM      8  N   UNL     1      10.447   0.299  -0.083  0.00  0.00    -0.214 NA
ATOM      9  N   UNL     1      12.263   1.929  -0.071  0.00  0.00    -0.176 NA
ATOM     10  C   UNL     1      13.590   1.824  -0.084  0.00  0.00    +0.234 A 
ATOM     11  N   UNL     1      13.930   0.553  -0.106  0.00  0.00    -0.125 NA
ATOM     12  N   UNL     1      14.481   2.895  -0.077  0.00  0.00    -0.326 N 
ATOM     13  H   UNL     1      14.146   3.805  -0.061  0.00  0.00    +0.145 HD
ATOM     14  H   UNL     1      15.437   2.730  -0.089  0.00  0.00    +0.145 HD
ENDBRANCH   1   2
BRANCH   1  15
ATOM     15  S   UNL     1       7.636   0.035  -0.063  0.00  0.00    -0.093 S 
BRANCH  15  19
ATOM     16  C   UNL     1       3.698  -0.688  -0.038  0.00  0.00    +0.079 A 
ATOM     17  C   UNL     1       3.728  -2.054  -0.051  0.00  0.00    +0.076 A 
ATOM     18  S   UNL     1       5.491  -2.349  -0.068  0.00  0.00    -0.069 S 
ATOM     19  C   UNL     1       6.007  -0.638  -0.057  0.00  0.00    +0.136 A 
ATOM     20  N   UNL     1       4.844  -0.011  -0.047  0.00  0.00    -0.233 NA
BRANCH  16  24
ATOM     21  C   UNL     1      -0.017   1.379   0.010  0.00  0.00    +0.000 A 
ATOM     22  C   UNL     1       1.169   2.092   0.002  0.00  0.00    +0.001 A 
ATOM     23  C   UNL     1       2.377   1.427  -0.013  0.00  0.00    +0.010 A 
ATOM     24  C   UNL     1       2.402   0.033  -0.021  0.00  0.00    +0.001 A 
ATOM     25  C   UNL     1       1.205  -0.680  -0.013  0.00  0.00    +0.010 A 
ATOM     26  C   UNL     1       0.002  -0.004   0.002  0.00  0.00    +0.001 A 
ENDBRANCH  16  24
ENDBRANCH  15  19
ENDBRANCH   1  15
TORSDOF 4
