REMARK  Name = ZINC00849977
REMARK  8 active torsions:
REMARK  status: ('A' for Active; 'I' for Inactive)
REMARK    1  A    between atoms: C_1  and  C_2
REMARK    2  A    between atoms: C_2  and  C_25
REMARK    3  A    between atoms: C_4  and  N_18
REMARK    4  A    between atoms: C_6  and  N_11
REMARK    5  A    between atoms: C_8  and  C_9
REMARK    6  A    between atoms: C_8  and  C_10
REMARK    7  A    between atoms: C_12  and  C_14
REMARK    8  A    between atoms: C_19  and  C_21
REMARK                            x       y       z     vdW  Elec       q    Type
REMARK                         _______ _______ _______ _____ _____    ______ ____
ROOT
ATOM      1  C   UNL     1       0.239   2.575  -1.492  0.00  0.00    -0.010 C 
ATOM      2  C   UNL     1       0.326   2.351   0.022  0.00  0.00    -0.072 C 
ATOM      3  C   UNL     1       1.765   2.015   0.406  0.00  0.00    +0.011 C 
ATOM      4  C   UNL     1       2.098   0.573   0.025  0.00  0.00    +0.091 C 
ATOM      5  C   UNL     1       1.137  -0.355   0.771  0.00  0.00    +0.082 C 
ATOM      6  C   UNL     1      -0.303  -0.056   0.355  0.00  0.00    -0.053 C 
ATOM      7  C   UNL     1      -1.234  -0.837   1.309  0.00  0.00    -0.009 C 
ATOM      8  C   UNL     1      -0.553  -0.585  -1.060  0.00  0.00    -0.009 C 
ATOM      9  C   UNL     1      -0.034   3.691   0.702  0.00  0.00    -0.010 C 
ATOM     10  N   UNL     1      -0.694   1.374   0.488  0.00  0.00    +0.387 N 
ATOM     11  H   UNL     1      -1.550   1.522  -0.059  0.00  0.00    -0.084 HD
ATOM     12  H   UNL     1      -0.884   1.561   1.480  0.00  0.00    -0.084 HD
ENDROOT
BRANCH   5  13
ATOM     13  N   UNL     1       1.458  -1.749   0.452  0.00  0.00    -0.305 N 
ATOM     14  C   UNL     1       2.056  -2.531   1.372  0.00  0.00    +0.318 C 
ATOM     15  O   UNL     1       2.329  -2.081   2.465  0.00  0.00    -0.266 OA
ATOM     16  H   UNL     1       1.241  -2.109  -0.422  0.00  0.00    +0.149 HD
BRANCH  14  17
ATOM     17  C   UNL     1       2.387  -3.964   1.044  0.00  0.00    +0.469 C 
ATOM     18  F   UNL     1       2.998  -4.567   2.149  0.00  0.00    -0.162 F 
ATOM     19  F   UNL     1       1.211  -4.653   0.728  0.00  0.00    -0.162 F 
ATOM     20  F   UNL     1       3.259  -4.003  -0.050  0.00  0.00    -0.162 F 
ENDBRANCH  14  17
ENDBRANCH   5  13
BRANCH   4  21
ATOM     21  N   UNL     1       3.475   0.270   0.432  0.00  0.00    -0.303 N 
ATOM     22  C   UNL     1       4.501   0.555  -0.394  0.00  0.00    +0.318 C 
ATOM     23  O   UNL     1       4.286   1.063  -1.474  0.00  0.00    -0.266 OA
ATOM     24  H   UNL     1       3.647  -0.136   1.296  0.00  0.00    +0.149 HD
BRANCH  22  25
ATOM     25  C   UNL     1       5.915   0.244   0.025  0.00  0.00    +0.469 C 
ATOM     26  F   UNL     1       6.797   0.628  -0.991  0.00  0.00    -0.162 F 
ATOM     27  F   UNL     1       6.219   0.946   1.196  0.00  0.00    -0.162 F 
ATOM     28  F   UNL     1       6.041  -1.129   0.257  0.00  0.00    -0.162 F 
ENDBRANCH  22  25
ENDBRANCH   4  21
TORSDOF 4
