REMARK  Name = ZINC48391449
REMARK  2 active torsions:
REMARK  status: ('A' for Active; 'I' for Inactive)
REMARK    1  A    between atoms: C_9  and  N_11
REMARK    2  A    between atoms: C_15  and  N_18
REMARK                            x       y       z     vdW  Elec       q    Type
REMARK                         _______ _______ _______ _____ _____    ______ ____
ROOT
ATOM      1  N   UNL     1       4.147  -1.058   1.302  0.00  0.00    -0.322 N 
ATOM      2  C   UNL     1       5.119  -0.155   1.717  0.00  0.00    +0.119 A 
ATOM      3  C   UNL     1       5.530   0.859   0.858  0.00  0.00    +0.046 A 
ATOM      4  C   UNL     1       6.499   1.750   1.284  0.00  0.00    +0.037 A 
ATOM      5  C   UNL     1       7.025   1.596   2.559  0.00  0.00    +0.144 A 
ATOM      6  C   UNL     1       6.571   0.567   3.359  0.00  0.00    +0.145 A 
ATOM      7  N   UNL     1       5.642  -0.265   2.928  0.00  0.00    -0.238 NA
ATOM      8  H   UNL     1       3.854  -1.764   1.899  0.00  0.00    +0.148 HD
ENDROOT
BRANCH   1  17
ATOM      9  C   UNL     1      -0.017   1.377   0.010  0.00  0.00    +0.000 A 
ATOM     10  C   UNL     1       1.172   2.083   0.002  0.00  0.00    +0.000 A 
ATOM     11  C   UNL     1       2.376   1.406  -0.013  0.00  0.00    +0.006 A 
ATOM     12  C   UNL     1       2.396   0.021  -0.021  0.00  0.00    -0.024 A 
ATOM     13  C   UNL     1       1.208  -0.685  -0.013  0.00  0.00    -0.042 A 
ATOM     14  C   UNL     1       0.002  -0.004   0.002  0.00  0.00    +0.004 A 
ATOM     15  C   UNL     1       1.496  -2.171  -0.025  0.00  0.00    +0.037 C 
ATOM     16  C   UNL     1       2.966  -2.294  -0.480  0.00  0.00    +0.032 C 
ATOM     17  C   UNL     1       3.564  -0.942  -0.037  0.00  0.00    +0.103 C 
ENDBRANCH   1  17
BRANCH   5  18
ATOM     18  N   UNL     1       8.063   2.527   3.057  0.00  0.00    +0.058 N 
ATOM     19  O   UNL     1       8.457   3.426   2.351  0.00  0.00    -0.126 OA
ATOM     20  O   UNL     1       8.518   2.388   4.168  0.00  0.00    -0.126 OA
ENDBRANCH   5  18
TORSDOF 2
