REMARK  Name = ZINC62674055
REMARK  5 active torsions:
REMARK  status: ('A' for Active; 'I' for Inactive)
REMARK    1  A    between atoms: C_1  and  C_2
REMARK    2  A    between atoms: C_7  and  S_8
REMARK    3  A    between atoms: S_8  and  N_11
REMARK    4  A    between atoms: C_12  and  C_14
REMARK    5  A    between atoms: C_17  and  C_22
REMARK                            x       y       z     vdW  Elec       q    Type
REMARK                         _______ _______ _______ _____ _____    ______ ____
ROOT
ATOM      1  N   UNL     1       1.449   1.014   2.806  0.00  0.00    -0.086 NA
ATOM      2  C   UNL     1       1.711   1.753   3.848  0.00  0.00    +0.300 C 
ATOM      3  O   UNL     1       0.819   1.832   4.863  0.00  0.00    -0.264 OA
ENDROOT
BRANCH   2   4
ATOM      4  C   UNL     1       2.976   2.502   3.920  0.00  0.00    +0.107 A 
ATOM      5  C   UNL     1       3.898   2.431   2.874  0.00  0.00    +0.021 A 
ATOM      6  C   UNL     1       5.082   3.146   2.965  0.00  0.00    +0.030 A 
ATOM      7  C   UNL     1       5.336   3.920   4.088  0.00  0.00    +0.085 A 
ATOM      8  N   UNL     1       4.428   3.986   5.111  0.00  0.00    -0.319 N 
ATOM      9  H   UNL     1       4.621   4.532   5.889  0.00  0.00    +0.169 HD
ATOM     10  C   UNL     1       3.267   3.307   5.047  0.00  0.00    +0.262 A 
ATOM     11  O   UNL     1       2.467   3.381   5.965  0.00  0.00    -0.267 OA
BRANCH   7  12
ATOM     12  C   UNL     1       6.588   4.675   4.181  0.00  0.00    +0.151 A 
ATOM     13  C   UNL     1       6.972   5.470   5.225  0.00  0.00    +0.051 A 
ATOM     14  C   UNL     1       8.232   5.992   4.893  0.00  0.00    +0.042 A 
ATOM     15  C   UNL     1       8.559   5.500   3.678  0.00  0.00    +0.196 A 
ATOM     16  O   UNL     1       7.568   4.702   3.254  0.00  0.00    -0.461 OA
ENDBRANCH   7  12
ENDBRANCH   2   4
BRANCH   1  17
ATOM     17  S   UNL     1       0.026   0.171   2.726  0.00  0.00    +0.102 S 
ATOM     18  O   UNL     1      -1.014   1.137   2.645  0.00  0.00    -0.146 OA
ATOM     19  O   UNL     1       0.076  -0.810   3.753  0.00  0.00    -0.146 OA
BRANCH  17  26
ATOM     20  C   UNL     1      -0.018   1.503   0.010  0.00  0.00    +0.046 C 
ATOM     21  C   UNL     1       0.002  -0.004   0.002  0.00  0.00    -0.024 A 
ATOM     22  C   UNL     1       0.006  -0.689  -1.199  0.00  0.00    +0.005 A 
ATOM     23  C   UNL     1       0.025  -2.071  -1.207  0.00  0.00    +0.000 A 
ATOM     24  C   UNL     1       0.040  -2.768  -0.013  0.00  0.00    +0.002 A 
ATOM     25  C   UNL     1       0.037  -2.084   1.188  0.00  0.00    +0.029 A 
ATOM     26  C   UNL     1       0.023  -0.702   1.195  0.00  0.00    +0.115 A 
ENDBRANCH  17  26
ENDBRANCH   1  17
TORSDOF 4
