REMARK  Name = ZINC40812106
REMARK  8 active torsions:
REMARK  status: ('A' for Active; 'I' for Inactive)
REMARK    1  A    between atoms: C_1  and  C_2
REMARK    2  A    between atoms: C_9  and  O_12
REMARK    3  A    between atoms: O_12  and  C_13
REMARK    4  A    between atoms: C_13  and  C_15
REMARK    5  A    between atoms: C_16  and  C_35
REMARK    6  A    between atoms: N_24  and  N_25
REMARK    7  A    between atoms: C_26  and  C_28
REMARK    8  A    between atoms: C_31  and  O_34
REMARK                            x       y       z     vdW  Elec       q    Type
REMARK                         _______ _______ _______ _____ _____    ______ ____
ROOT
ATOM      1  C   UNL     1      -0.163  -1.975   6.017  0.00  0.00    +0.215 A 
ATOM      2  C   UNL     1      -0.255  -2.564   7.248  0.00  0.00    +0.011 A 
ATOM      3  C   UNL     1      -0.351  -1.520   8.175  0.00  0.00    +0.042 A 
ATOM      4  C   UNL     1      -0.316  -0.339   7.472  0.00  0.00    +0.115 A 
ATOM      5  O   UNL     1      -0.195  -0.633   6.180  0.00  0.00    -0.452 OA
ATOM      6  C   UNL     1      -0.402   1.013   8.134  0.00  0.00    +0.075 C 
ATOM      7  C   UNL     1      -1.028   0.860   9.523  0.00  0.00    +0.014 C 
ATOM      8  C   UNL     1      -0.284  -0.202  10.338  0.00  0.00    +0.058 C 
ATOM      9  C   UNL     1      -0.470  -1.547   9.650  0.00  0.00    +0.070 C 
ATOM     10  N   UNL     1      -0.715  -2.638  10.309  0.00  0.00    -0.184 NA
ATOM     11  C   UNL     1      -0.253  -4.042   7.546  0.00  0.00    +0.048 C 
ENDROOT
BRANCH  10  12
ATOM     12  N   UNL     1      -0.818  -2.604  11.706  0.00  0.00    -0.203 N 
ATOM     13  C   UNL     1      -1.073  -3.737  12.390  0.00  0.00    +0.263 C 
ATOM     14  O   UNL     1      -1.214  -4.789  11.795  0.00  0.00    -0.268 OA
ATOM     15  H   UNL     1      -0.705  -1.766  12.181  0.00  0.00    +0.178 HD
BRANCH  13  16
ATOM     16  C   UNL     1      -1.180  -3.702  13.861  0.00  0.00    +0.039 A 
ATOM     17  C   UNL     1      -1.024  -2.495  14.547  0.00  0.00    +0.016 A 
ATOM     18  C   UNL     1      -1.126  -2.466  15.920  0.00  0.00    +0.046 A 
ATOM     19  C   UNL     1      -1.383  -3.636  16.624  0.00  0.00    +0.117 A 
ATOM     20  C   UNL     1      -1.539  -4.840  15.946  0.00  0.00    +0.046 A 
ATOM     21  C   UNL     1      -1.444  -4.876  14.572  0.00  0.00    +0.016 A 
BRANCH  19  22
ATOM     22  O   UNL     1      -1.482  -3.604  17.977  0.00  0.00    -0.507 OA
ATOM     23  H   UNL     1      -2.379  -3.444  18.302  0.00  0.00    +0.292 HD
ENDBRANCH  19  22
ENDBRANCH  13  16
ENDBRANCH  10  12
BRANCH   1  24
ATOM     24  C   UNL     1      -0.044  -2.680   4.738  0.00  0.00    +0.380 C 
ATOM     25  O   UNL     1      -0.025  -3.896   4.713  0.00  0.00    -0.241 OA
BRANCH  24  26
ATOM     26  O   UNL     1       0.045  -1.980   3.588  0.00  0.00    -0.418 OA
BRANCH  26  35
ATOM     27  C   UNL     1      -4.762  -2.971   2.671  0.00  0.00    +0.065 C 
ATOM     28  C   UNL     1      -3.475  -3.278   1.949  0.00  0.00    +0.039 A 
ATOM     29  C   UNL     1      -3.522  -3.990   0.752  0.00  0.00    +0.023 A 
ATOM     30  C   UNL     1      -2.365  -4.278   0.085  0.00  0.00    +0.012 A 
ATOM     31  C   UNL     1      -1.150  -3.835   0.641  0.00  0.00    +0.004 A 
ATOM     32  C   UNL     1       0.078  -4.092   0.011  0.00  0.00    +0.010 A 
ATOM     33  C   UNL     1       1.234  -3.648   0.578  0.00  0.00    +0.004 A 
ATOM     34  C   UNL     1       1.217  -2.940   1.777  0.00  0.00    +0.048 A 
ATOM     35  C   UNL     1       0.042  -2.671   2.419  0.00  0.00    +0.158 A 
ATOM     36  C   UNL     1      -1.175  -3.115   1.860  0.00  0.00    +0.113 A 
ATOM     37  N   UNL     1      -2.342  -2.863   2.460  0.00  0.00    -0.248 NA
ENDBRANCH  26  35
ENDBRANCH  24  26
ENDBRANCH   1  24
TORSDOF 6
