REMARK  Name = ZINC39926758
REMARK  5 active torsions:
REMARK  status: ('A' for Active; 'I' for Inactive)
REMARK    1  A    between atoms: C_1  and  C_2
REMARK    2  A    between atoms: C_2  and  N_3
REMARK    3  A    between atoms: C_4  and  S_20
REMARK    4  A    between atoms: S_20  and  C_21
REMARK    5  A    between atoms: C_21  and  C_22
REMARK                            x       y       z     vdW  Elec       q    Type
REMARK                         _______ _______ _______ _____ _____    ______ ____
ROOT
ATOM      1  N   UNL     1       0.367  -0.225  -0.998  0.00  0.00    -0.277 N 
ATOM      2  C   UNL     1      -0.299  -0.564  -2.245  0.00  0.00    +0.205 C 
ATOM      3  N   UNL     1       0.140  -1.801  -2.897  0.00  0.00    -0.277 NA
ATOM      4  C   UNL     1       1.184  -2.466  -2.133  0.00  0.00    +0.135 C 
ATOM      5  C   UNL     1       2.261  -1.372  -1.861  0.00  0.00    +0.129 C 
ATOM      6  C   UNL     1       1.692  -0.507  -0.787  0.00  0.00    +0.227 C 
ATOM      7  O   UNL     1       2.326  -0.102   0.164  0.00  0.00    -0.275 OA
ATOM      8  C   UNL     1       3.615  -1.952  -1.722  0.00  0.00    -0.046 C 
ATOM      9  C   UNL     1       3.815  -3.113  -2.361  0.00  0.00    -0.013 C 
ATOM     10  S   UNL     1       2.241  -3.583  -3.132  0.00  0.00    -0.110 S 
ATOM     11  C   UNL     1       5.094  -3.893  -2.433  0.00  0.00    +0.042 C 
ATOM     12  C   UNL     1       6.246  -3.005  -1.945  0.00  0.00    +0.005 C 
ATOM     13  C   UNL     1       5.821  -2.338  -0.633  0.00  0.00    +0.005 C 
ATOM     14  C   UNL     1       4.736  -1.301  -0.917  0.00  0.00    +0.032 C 
ATOM     15  H   UNL     1      -0.639  -2.421  -3.060  0.00  0.00    +0.126 HD
ENDROOT
BRANCH   1  17
ATOM     16  C   UNL     1      -0.303   1.957  -0.120  0.00  0.00    +0.024 C 
ATOM     17  C   UNL     1      -0.397   0.440   0.060  0.00  0.00    +0.107 C 
ENDBRANCH   1  17
BRANCH   2  18
ATOM     18  S   UNL     1      -0.047   0.804  -3.410  0.00  0.00    -0.115 S 
BRANCH  18  19
ATOM     19  C   UNL     1      -1.273   0.502  -4.713  0.00  0.00    +0.146 C 
BRANCH  19  20
ATOM     20  C   UNL     1      -1.254   1.646  -5.695  0.00  0.00    +0.118 A 
ATOM     21  N   UNL     1      -0.506   1.703  -6.758  0.00  0.00    -0.232 NA
ATOM     22  C   UNL     1      -0.738   2.867  -7.417  0.00  0.00    +0.089 A 
ATOM     23  C   UNL     1      -0.223   3.431  -8.587  0.00  0.00    +0.030 A 
ATOM     24  C   UNL     1      -0.668   4.653  -9.006  0.00  0.00    +0.002 A 
ATOM     25  C   UNL     1      -1.627   5.344  -8.281  0.00  0.00    +0.002 A 
ATOM     26  C   UNL     1      -2.149   4.807  -7.123  0.00  0.00    +0.028 A 
ATOM     27  C   UNL     1      -1.710   3.567  -6.682  0.00  0.00    +0.066 A 
ATOM     28  N   UNL     1      -2.020   2.765  -5.601  0.00  0.00    -0.341 N 
ATOM     29  H   UNL     1      -2.664   2.965  -4.903  0.00  0.00    +0.167 HD
ENDBRANCH  19  20
ENDBRANCH  18  19
ENDBRANCH   2  18
TORSDOF 4
