REMARK  Name = ZINC04203113
REMARK  14 active torsions:
REMARK  status: ('A' for Active; 'I' for Inactive)
REMARK    1  A    between atoms: C_1  and  C_2
REMARK    2  A    between atoms: C_2  and  O_3
REMARK    3  A    between atoms: O_3  and  C_4
REMARK    4  A    between atoms: C_4  and  C_6
REMARK    5  A    between atoms: C_9  and  C_12
REMARK    6  A    between atoms: C_14  and  C_32
REMARK    7  A    between atoms: C_16  and  C_25
REMARK    8  A    between atoms: C_18  and  C_20
REMARK    9  A    between atoms: C_20  and  O_22
REMARK   10  A    between atoms: O_22  and  C_23
REMARK   11  A    between atoms: C_23  and  C_24
REMARK   12  A    between atoms: C_32  and  O_34
REMARK   13  A    between atoms: O_34  and  C_35
REMARK   14  A    between atoms: C_35  and  C_36
REMARK                            x       y       z     vdW  Elec       q    Type
REMARK                         _______ _______ _______ _____ _____    ______ ____
ROOT
ATOM      1  C   UNL     1       0.399  -4.745  -0.578  0.00  0.00    +0.028 C 
ATOM      2  C   UNL     1      -0.597  -5.468  -1.509  0.00  0.00    +0.094 C 
ATOM      3  C   UNL     1      -1.864  -5.682  -0.653  0.00  0.00    -0.025 C 
ATOM      4  C   UNL     1      -0.351  -4.582   0.762  0.00  0.00    +0.048 C 
ATOM      5  N   UNL     1      -1.762  -4.651   0.380  0.00  0.00    +0.393 N 
ATOM      6  H   UNL     1      -2.337  -4.905   1.192  0.00  0.00    -0.084 HD
ATOM      7  H   UNL     1      -2.074  -3.745   0.010  0.00  0.00    -0.084 HD
ENDROOT
BRANCH   3   8
ATOM      8  C   UNL     1      -3.102  -5.503  -1.494  0.00  0.00    -0.061 A 
ATOM      9  C   UNL     1      -3.852  -4.348  -1.382  0.00  0.00    +0.003 A 
ATOM     10  C   UNL     1      -4.985  -4.181  -2.156  0.00  0.00    +0.015 A 
ATOM     11  C   UNL     1      -5.374  -5.176  -3.035  0.00  0.00    +0.018 A 
ATOM     12  C   UNL     1      -4.626  -6.335  -3.143  0.00  0.00    +0.015 A 
ATOM     13  C   UNL     1      -3.490  -6.498  -2.372  0.00  0.00    +0.003 A 
ATOM     14 BR   UNL     1      -6.928  -4.953  -4.090  0.00  0.00    -0.050 Br
ENDBRANCH   3   8
BRANCH   1  18
ATOM     15  C   UNL     1       1.419  -0.915  -2.184  0.00  0.00    +0.059 A 
ATOM     16  C   UNL     1       0.124  -1.160  -1.723  0.00  0.00    +0.015 A 
ATOM     17  C   UNL     1      -0.200  -2.399  -1.212  0.00  0.00    +0.004 A 
ATOM     18  C   UNL     1       0.758  -3.395  -1.144  0.00  0.00    -0.045 A 
ATOM     19  C   UNL     1       2.045  -3.158  -1.594  0.00  0.00    +0.004 A 
ATOM     20  C   UNL     1       2.381  -1.925  -2.113  0.00  0.00    +0.015 A 
BRANCH  15  21
ATOM     21  C   UNL     1       1.772   0.408  -2.738  0.00  0.00    +0.339 C 
ATOM     22  O   UNL     1       2.900   0.620  -3.134  0.00  0.00    -0.245 OA
BRANCH  21  23
ATOM     23  O   UNL     1       0.840   1.378  -2.810  0.00  0.00    -0.461 OA
BRANCH  23  25
ATOM     24  C   UNL     1       0.072   3.621  -3.367  0.00  0.00    +0.048 C 
ATOM     25  C   UNL     1       1.257   2.653  -3.366  0.00  0.00    +0.229 C 
ENDBRANCH  23  25
ENDBRANCH  21  23
ENDBRANCH  15  21
ENDBRANCH   1  18
BRANCH   4  26
ATOM     26  C   UNL     1      -0.014  -3.257   1.395  0.00  0.00    +0.294 C 
ATOM     27  O   UNL     1      -0.779  -2.327   1.293  0.00  0.00    -0.253 OA
BRANCH  26  28
ATOM     28  O   UNL     1       1.135  -3.109   2.071  0.00  0.00    -0.466 OA
BRANCH  28  29
ATOM     29  C   UNL     1       1.394  -1.805   2.655  0.00  0.00    +0.228 C 
ATOM     30  C   UNL     1       2.740  -1.829   3.381  0.00  0.00    +0.048 C 
ENDBRANCH  28  29
ENDBRANCH  26  28
ENDBRANCH   4  26
BRANCH   2  31
ATOM     31  C   UNL     1      -0.910  -4.610  -2.708  0.00  0.00    +0.309 C 
ATOM     32  O   UNL     1      -1.740  -3.736  -2.624  0.00  0.00    -0.251 OA
BRANCH  31  33
ATOM     33  O   UNL     1      -0.268  -4.817  -3.868  0.00  0.00    -0.465 OA
BRANCH  33  34
ATOM     34  C   UNL     1      -0.621  -3.953  -4.980  0.00  0.00    +0.229 C 
ATOM     35  C   UNL     1       0.208  -4.337  -6.207  0.00  0.00    +0.048 C 
ENDBRANCH  33  34
ENDBRANCH  31  33
ENDBRANCH   2  31
TORSDOF 11
