REMARK  Name = ZINC13649983
REMARK  12 active torsions:
REMARK  status: ('A' for Active; 'I' for Inactive)
REMARK    1  A    between atoms: C_5  and  C_7
REMARK    2  A    between atoms: C_7  and  N_59
REMARK    3  A    between atoms: C_8  and  C_9
REMARK    4  A    between atoms: C_8  and  N_59
REMARK    5  A    between atoms: C_9  and  C_10
REMARK    6  A    between atoms: C_10  and  C_11
REMARK    7  A    between atoms: C_11  and  C_12
REMARK    8  A    between atoms: C_12  and  C_13
REMARK    9  A    between atoms: C_13  and  N_14
REMARK   10  A    between atoms: C_18  and  O_30
REMARK   11  A    between atoms: C_22  and  C_23
REMARK   12  A    between atoms: C_26  and  O_29
REMARK                            x       y       z     vdW  Elec       q    Type
REMARK                         _______ _______ _______ _____ _____    ______ ____
ROOT
ATOM      1  N   UNL     1      -1.348  13.171  -5.765  0.00  0.00    -0.340 N 
ATOM      2  C   UNL     1      -2.566  13.802  -5.617  0.00  0.00    +0.050 A 
ATOM      3  C   UNL     1      -3.854  13.336  -5.373  0.00  0.00    +0.030 A 
ATOM      4  C   UNL     1      -4.899  14.227  -5.264  0.00  0.00    +0.047 A 
ATOM      5  C   UNL     1      -4.681  15.596  -5.389  0.00  0.00    +0.118 A 
ATOM      6  C   UNL     1      -3.410  16.080  -5.625  0.00  0.00    +0.055 A 
ATOM      7  C   UNL     1      -2.341  15.186  -5.738  0.00  0.00    +0.004 A 
ATOM      8  C   UNL     1      -0.908  15.349  -5.978  0.00  0.00    +0.036 A 
ATOM      9  C   UNL     1      -0.363  14.106  -5.984  0.00  0.00    +0.050 A 
ENDROOT
BRANCH   9  10
ATOM     10  C   UNL     1       1.069  13.804  -6.194  0.00  0.00    -0.001 A 
ATOM     11  C   UNL     1       1.610  12.611  -5.712  0.00  0.00    +0.013 A 
ATOM     12  C   UNL     1       2.944  12.330  -5.915  0.00  0.00    +0.046 A 
ATOM     13  C   UNL     1       3.752  13.237  -6.588  0.00  0.00    +0.117 A 
ATOM     14  C   UNL     1       3.219  14.428  -7.064  0.00  0.00    +0.046 A 
ATOM     15  C   UNL     1       1.884  14.713  -6.870  0.00  0.00    +0.013 A 
BRANCH  13  16
ATOM     16  O   UNL     1       5.068  12.959  -6.781  0.00  0.00    -0.507 OA
ATOM     17  H   UNL     1       5.644  13.273  -6.070  0.00  0.00    +0.292 HD
ENDBRANCH  13  16
ENDBRANCH   9  10
BRANCH   5  18
ATOM     18  O   UNL     1      -5.725  16.461  -5.279  0.00  0.00    -0.507 OA
ATOM     19  H   UNL     1      -6.166  16.655  -6.117  0.00  0.00    +0.292 HD
ENDBRANCH   5  18
BRANCH   1  20
ATOM     20  C   UNL     1      -1.136  11.723  -5.704  0.00  0.00    +0.122 C 
BRANCH  20  21
ATOM     21  C   UNL     1      -0.976  11.291  -4.245  0.00  0.00    +0.022 C 
BRANCH  21  22
ATOM     22  C   UNL     1      -0.859   9.768  -4.173  0.00  0.00    +0.002 C 
BRANCH  22  23
ATOM     23  C   UNL     1      -0.699   9.336  -2.714  0.00  0.00    -0.002 C 
BRANCH  23  24
ATOM     24  C   UNL     1      -0.582   7.812  -2.643  0.00  0.00    -0.019 C 
BRANCH  24  25
ATOM     25  C   UNL     1      -0.422   7.381  -1.183  0.00  0.00    -0.082 C 
BRANCH  25  26
ATOM     26  N   UNL     1      -0.310   5.912  -1.123  0.00  0.00    +0.383 N 
ATOM     27  H   UNL     1      -1.158   5.491  -1.520  0.00  0.00    -0.085 HD
ATOM     28  H   UNL     1       0.508   5.612  -1.667  0.00  0.00    -0.085 HD
BRANCH  26  29
ATOM     29  C   UNL     1      -0.154   5.467   0.274  0.00  0.00    -0.026 C 
BRANCH  29  34
ATOM     30  C   UNL     1       1.298   1.989   0.346  0.00  0.00    +0.003 A 
ATOM     31  C   UNL     1       0.125   1.250   0.359  0.00  0.00    +0.020 A 
ATOM     32  C   UNL     1      -1.088   1.912   0.339  0.00  0.00    +0.111 A 
ATOM     33  N   UNL     1      -1.137   3.229   0.318  0.00  0.00    -0.262 NA
ATOM     34  C   UNL     1      -0.043   3.964   0.305  0.00  0.00    +0.024 A 
ATOM     35  C   UNL     1       1.206   3.372   0.318  0.00  0.00    +0.021 A 
ENDBRANCH  29  34
ENDBRANCH  26  29
ENDBRANCH  25  26
ENDBRANCH  24  25
ENDBRANCH  23  24
ENDBRANCH  22  23
ENDBRANCH  21  22
ENDBRANCH  20  21
ENDBRANCH   1  20
TORSDOF 12
