REMARK  Name = ZINC02109524
REMARK  6 active torsions:
REMARK  status: ('A' for Active; 'I' for Inactive)
REMARK    1  A    between atoms: C_1  and  N_52
REMARK    2  A    between atoms: C_8  and  O_29
REMARK    3  A    between atoms: C_10  and  C_12
REMARK    4  A    between atoms: N_19  and  C_22
REMARK    5  A    between atoms: C_20  and  O_21
REMARK    6  A    between atoms: O_29  and  C_30
REMARK                            x       y       z     vdW  Elec       q    Type
REMARK                         _______ _______ _______ _____ _____    ______ ____
ROOT
ATOM      1  C   UNL     1       1.242   1.771  -0.198  0.00  0.00    +0.068 A 
ATOM      2  C   UNL     1       2.509   1.171  -0.309  0.00  0.00    +0.258 A 
ATOM      3  O   UNL     1       3.514   1.859  -0.333  0.00  0.00    -0.267 OA
ATOM      4  N   UNL     1       2.603  -0.171  -0.392  0.00  0.00    -0.302 N 
ATOM      5  H   UNL     1       3.475  -0.588  -0.469  0.00  0.00    +0.171 HD
ATOM      6  C   UNL     1       1.497  -0.937  -0.367  0.00  0.00    +0.168 A 
ATOM      7  S   UNL     1       1.647  -2.639  -0.474  0.00  0.00    -0.012 S 
ATOM      8  N   UNL     1       0.275  -0.385  -0.261  0.00  0.00    -0.260 N 
ATOM      9  C   UNL     1       0.133   0.979  -0.174  0.00  0.00    +0.206 A 
ENDROOT
BRANCH   1  19
ATOM     10  C   UNL     1       0.965   3.492  -2.509  0.00  0.00    -0.095 C 
ATOM     11  C   UNL     1       1.742   5.346  -1.154  0.00  0.00    -0.073 C 
ATOM     12  C   UNL     1       2.808   5.700  -0.116  0.00  0.00    +0.017 C 
ATOM     13  C   UNL     1       2.599   4.886   1.135  0.00  0.00    -0.040 A 
ATOM     14  C   UNL     1       3.222   5.300   2.303  0.00  0.00    +0.053 A 
ATOM     15  C   UNL     1       3.068   4.581   3.475  0.00  0.00    +0.170 A 
ATOM     16  C   UNL     1       2.280   3.435   3.482  0.00  0.00    +0.208 A 
ATOM     17  C   UNL     1       1.655   3.025   2.313  0.00  0.00    +0.167 A 
ATOM     18  C   UNL     1       1.814   3.753   1.138  0.00  0.00    -0.008 A 
ATOM     19  C   UNL     1       1.112   3.270  -0.104  0.00  0.00    +0.007 C 
ATOM     20  O   UNL     1       2.285   2.907   4.742  0.00  0.00    -0.449 OA
ATOM     21  C   UNL     1       3.410   3.512   5.406  0.00  0.00    +0.467 C 
ATOM     22  O   UNL     1       3.567   4.774   4.731  0.00  0.00    -0.452 OA
ATOM     23  N   UNL     1       1.725   3.875  -1.298  0.00  0.00    +0.386 N 
ATOM     24  H   UNL     1       2.690   3.535  -1.389  0.00  0.00    -0.081 HD
BRANCH  17  25
ATOM     25  O   UNL     1       0.883   1.905   2.315  0.00  0.00    -0.491 OA
ATOM     26  C   UNL     1      -0.467   2.049   2.764  0.00  0.00    +0.277 C 
ENDBRANCH  17  25
ENDBRANCH   1  19
BRANCH   8  27
ATOM     27  C   UNL     1      -0.861  -1.206  -0.237  0.00  0.00    +0.052 A 
ATOM     28  C   UNL     1      -1.730  -1.221  -1.320  0.00  0.00    +0.029 A 
ATOM     29  C   UNL     1      -2.845  -2.035  -1.298  0.00  0.00    +0.040 A 
ATOM     30  C   UNL     1      -3.103  -2.828  -0.192  0.00  0.00    +0.124 A 
ATOM     31  C   UNL     1      -2.241  -2.809   0.892  0.00  0.00    +0.040 A 
ATOM     32  C   UNL     1      -1.121  -2.001   0.871  0.00  0.00    +0.029 A 
ATOM     33  F   UNL     1      -4.198  -3.619  -0.169  0.00  0.00    -0.205 F 
ENDBRANCH   8  27
BRANCH   9  34
ATOM     34  O   UNL     1      -1.096   1.530  -0.073  0.00  0.00    -0.493 OA
ATOM     35  H   UNL     1      -1.820   0.892  -0.139  0.00  0.00    +0.294 HD
ENDBRANCH   9  34
TORSDOF 4
