REMARK  Name = ZINC22624846
REMARK  4 active torsions:
REMARK  status: ('A' for Active; 'I' for Inactive)
REMARK    1  A    between atoms: C_3  and  C_6
REMARK    2  A    between atoms: N_8  and  N_9
REMARK    3  A    between atoms: C_10  and  C_12
REMARK    4  A    between atoms: C_13  and  C_14
REMARK                            x       y       z     vdW  Elec       q    Type
REMARK                         _______ _______ _______ _____ _____    ______ ____
ROOT
ATOM      1  N   UNL     1       4.888   1.786  -0.034  0.00  0.00    -0.231 N 
ATOM      2  C   UNL     1       5.900   2.676  -0.038  0.00  0.00    +0.253 C 
ATOM      3  O   UNL     1       5.662   3.869  -0.031  0.00  0.00    -0.269 OA
ATOM      4  H   UNL     1       5.103   0.707  -0.041  0.00  0.00    +0.173 HD
ENDROOT
BRANCH   1   7
ATOM      5  C   UNL     1       2.548   1.345  -0.014  0.00  0.00    +0.267 C 
ATOM      6  O   UNL     1       2.787   0.152  -0.022  0.00  0.00    -0.268 OA
ATOM      7  N   UNL     1       3.561   2.235  -0.019  0.00  0.00    -0.230 N 
ATOM      8  H   UNL     1       3.345   3.314  -0.012  0.00  0.00    +0.173 HD
BRANCH   5  11
ATOM      9  C   UNL     1      -1.193   1.776   0.017  0.00  0.00    +0.008 A 
ATOM     10  C   UNL     1      -0.013   1.076   0.008  0.00  0.00    +0.021 A 
ATOM     11  C   UNL     1       1.160   1.815   0.001  0.00  0.00    +0.075 A 
ATOM     12  S   UNL     1       0.539   3.487   0.015  0.00  0.00    -0.092 S 
ATOM     13  C   UNL     1      -1.159   3.135   0.029  0.00  0.00    +0.046 A 
ENDBRANCH   5  11
ENDBRANCH   1   7
BRANCH   2  14
ATOM     14  C   UNL     1       7.285   2.207  -0.053  0.00  0.00    +0.069 C 
ATOM     15  C   UNL     1       8.299   3.098  -0.059  0.00  0.00    +0.013 C 
BRANCH  15  16
ATOM     16  C   UNL     1       9.692   2.627  -0.073  0.00  0.00    -0.020 A 
ATOM     17  C   UNL     1      10.745   3.549  -0.085  0.00  0.00    +0.057 A 
ATOM     18  C   UNL     1      12.051   3.102  -0.093  0.00  0.00    +0.168 A 
ATOM     19  C   UNL     1      12.320   1.732  -0.102  0.00  0.00    +0.184 A 
ATOM     20  C   UNL     1      11.275   0.817  -0.097  0.00  0.00    +0.087 A 
ATOM     21  C   UNL     1       9.969   1.255  -0.083  0.00  0.00    +0.031 A 
ATOM     22 CL   UNL     1      11.617  -0.885  -0.107  0.00  0.00    -0.080 Cl
ATOM     23  O   UNL     1      13.673   1.556  -0.115  0.00  0.00    -0.451 OA
ATOM     24  C   UNL     1      14.231   2.817   0.299  0.00  0.00    +0.466 C 
ATOM     25  O   UNL     1      13.237   3.779  -0.100  0.00  0.00    -0.453 OA
ENDBRANCH  15  16
ENDBRANCH   2  14
TORSDOF 4
