REMARK  Name = ZINC04014349
REMARK  8 active torsions:
REMARK  status: ('A' for Active; 'I' for Inactive)
REMARK    1  A    between atoms: C_1  and  C_2
REMARK    2  A    between atoms: C_2  and  C_32
REMARK    3  A    between atoms: C_6  and  C_26
REMARK    4  A    between atoms: C_8  and  C_24
REMARK    5  A    between atoms: C_9  and  S_13
REMARK    6  A    between atoms: S_13  and  C_14
REMARK    7  A    between atoms: C_14  and  C_15
REMARK    8  A    between atoms: N_17  and  C_18
REMARK                            x       y       z     vdW  Elec       q    Type
REMARK                         _______ _______ _______ _____ _____    ______ ____
ROOT
ATOM      1  C   UNL     1      -0.020   1.572   0.019  0.00  0.00    +0.011 C 
ATOM      2  C   UNL     1      -0.009   0.043   0.005  0.00  0.00    -0.023 C 
ATOM      3  C   UNL     1       0.724  -0.456  -1.244  0.00  0.00    +0.086 C 
ATOM      4  C   UNL     1       2.153   0.006  -1.199  0.00  0.00    +0.162 C 
ATOM      5  C   UNL     1       2.803   0.208  -0.031  0.00  0.00    +0.032 C 
ATOM      6  C   UNL     1       4.236   0.673  -0.091  0.00  0.00    +0.133 C 
ATOM      7  C   UNL     1       4.803   0.852   1.285  0.00  0.00    +0.076 C 
ATOM      8  C   UNL     1       4.054   0.604   2.412  0.00  0.00    +0.112 C 
ATOM      9  N   UNL     1       2.785   0.191   2.338  0.00  0.00    -0.244 NA
ATOM     10  C   UNL     1       2.164  -0.007   1.199  0.00  0.00    +0.051 C 
ATOM     11  C   UNL     1       0.729  -0.478   1.241  0.00  0.00    +0.062 C 
ATOM     12  O   UNL     1       2.807   0.224  -2.358  0.00  0.00    -0.292 OA
ATOM     13  C   UNL     1      -1.447  -0.482   0.006  0.00  0.00    +0.011 C 
ENDROOT
BRANCH   6  14
ATOM     14  C   UNL     1       5.057  -0.350  -0.833  0.00  0.00    +0.117 A 
ATOM     15  C   UNL     1       5.756  -0.129  -1.961  0.00  0.00    +0.045 A 
ATOM     16  C   UNL     1       6.371  -1.354  -2.308  0.00  0.00    +0.041 A 
ATOM     17  C   UNL     1       6.009  -2.250  -1.373  0.00  0.00    +0.195 A 
ATOM     18  O   UNL     1       5.218  -1.635  -0.479  0.00  0.00    -0.467 OA
ENDBRANCH   6  14
BRANCH   7  19
ATOM     19  C   UNL     1       6.158   1.292   1.430  0.00  0.00    +0.099 C 
ATOM     20  N   UNL     1       7.233   1.641   1.545  0.00  0.00    -0.191 NA
ENDBRANCH   7  19
BRANCH   8  21
ATOM     21  S   UNL     1       4.789   0.837   3.997  0.00  0.00    -0.096 S 
BRANCH  21  22
ATOM     22  C   UNL     1       3.467   0.402   5.161  0.00  0.00    +0.172 C 
BRANCH  22  23
ATOM     23  C   UNL     1       3.970   0.560   6.573  0.00  0.00    +0.227 C 
ATOM     24  O   UNL     1       5.107   0.930   6.774  0.00  0.00    -0.275 OA
ATOM     25  N   UNL     1       3.155   0.291   7.612  0.00  0.00    -0.285 N 
ATOM     26  H   UNL     1       2.226   0.061   7.453  0.00  0.00    +0.155 HD
BRANCH  25  27
ATOM     27  C   UNL     1       3.649   0.344   8.920  0.00  0.00    +0.033 A 
ATOM     28  C   UNL     1       3.184  -0.549   9.876  0.00  0.00    +0.023 A 
ATOM     29  C   UNL     1       3.673  -0.495  11.167  0.00  0.00    +0.002 A 
ATOM     30  C   UNL     1       4.625   0.449  11.507  0.00  0.00    +0.000 A 
ATOM     31  C   UNL     1       5.090   1.340  10.558  0.00  0.00    +0.002 A 
ATOM     32  C   UNL     1       4.609   1.287   9.264  0.00  0.00    +0.023 A 
ENDBRANCH  25  27
ENDBRANCH  22  23
ENDBRANCH  21  22
ENDBRANCH   8  21
TORSDOF 6
