REMARK  Name = ZINC00532473
REMARK  5 active torsions:
REMARK  status: ('A' for Active; 'I' for Inactive)
REMARK    1  A    between atoms: C_1  and  C_2
REMARK    2  A    between atoms: C_7  and  C_8
REMARK    3  A    between atoms: N_9  and  N_12
REMARK    4  A    between atoms: C_13  and  C_14
REMARK    5  A    between atoms: C_19  and  O_20
REMARK                            x       y       z     vdW  Elec       q    Type
REMARK                         _______ _______ _______ _____ _____    ______ ____
ROOT
ATOM      1  C   UNL     1      -0.018   1.503   0.010  0.00  0.00    +0.044 C 
ATOM      2  C   UNL     1       0.002  -0.004   0.002  0.00  0.00    -0.045 A 
ATOM      3  C   UNL     1       0.006  -0.680  -1.197  0.00  0.00    +0.033 A 
ATOM      4  C   UNL     1       0.025  -2.077  -1.206  0.00  0.00    +0.091 A 
ATOM      5  C   UNL     1       0.040  -2.776   0.014  0.00  0.00    +0.093 A 
ATOM      6  C   UNL     1       0.036  -2.078   1.213  0.00  0.00    +0.033 A 
ATOM      7  C   UNL     1       0.023  -0.699   1.203  0.00  0.00    -0.045 A 
ATOM      8  C   UNL     1       0.025   0.059   2.506  0.00  0.00    +0.044 C 
ATOM      9  N   UNL     1       0.057  -4.119  -0.316  0.00  0.00    -0.220 N 
ATOM     10  C   UNL     1       0.051  -4.200  -1.676  0.00  0.00    +0.224 A 
ATOM     11  N   UNL     1       0.033  -3.007  -2.196  0.00  0.00    -0.234 NA
ENDROOT
BRANCH   9  12
ATOM     12  N   UNL     1       0.076  -5.195   0.581  0.00  0.00    -0.173 NA
ATOM     13  C   UNL     1       0.090  -6.413   0.133  0.00  0.00    +0.144 C 
BRANCH  13  14
ATOM     14  C   UNL     1       0.110  -7.545   1.076  0.00  0.00    +0.037 A 
ATOM     15  C   UNL     1       0.132  -8.857   0.598  0.00  0.00    +0.028 A 
ATOM     16  C   UNL     1       0.151  -9.912   1.486  0.00  0.00    +0.019 A 
ATOM     17  C   UNL     1       0.148  -9.676   2.852  0.00  0.00    +0.019 A 
ATOM     18  C   UNL     1       0.128  -8.382   3.336  0.00  0.00    +0.047 A 
ATOM     19  C   UNL     1       0.114  -7.311   2.458  0.00  0.00    +0.126 A 
ATOM     20 BR   UNL     1       0.179 -11.689   0.839  0.00  0.00    -0.050 Br
BRANCH  19  21
ATOM     21  O   UNL     1       0.100  -6.039   2.934  0.00  0.00    -0.506 OA
ATOM     22  H   UNL     1      -0.788  -5.682   3.076  0.00  0.00    +0.292 HD
ENDBRANCH  19  21
ENDBRANCH  13  14
ENDBRANCH   9  12
TORSDOF 3
