REMARK  Name = ZINC13124040
REMARK  10 active torsions:
REMARK  status: ('A' for Active; 'I' for Inactive)
REMARK    1  A    between atoms: C_1  and  C_2
REMARK    2  A    between atoms: C_3  and  C_9
REMARK    3  A    between atoms: C_4  and  C_8
REMARK    4  A    between atoms: N_5  and  C_7
REMARK    5  A    between atoms: C_9  and  N_10
REMARK    6  A    between atoms: C_11  and  C_13
REMARK    7  A    between atoms: C_18  and  C_32
REMARK    8  A    between atoms: C_21  and  C_24
REMARK    9  A    between atoms: C_27  and  O_30
REMARK   10  A    between atoms: O_30  and  C_31
REMARK                            x       y       z     vdW  Elec       q    Type
REMARK                         _______ _______ _______ _____ _____    ______ ____
ROOT
ATOM      1  C   UNL     1       2.992   0.426  -4.769  0.00  0.00    +0.167 A 
ATOM      2  C   UNL     1       3.380   0.864  -6.056  0.00  0.00    +0.112 A 
ATOM      3  C   UNL     1       4.727   0.888  -6.089  0.00  0.00    +0.137 A 
ATOM      4  N   UNL     1       5.190   0.484  -4.869  0.00  0.00    -0.237 N 
ATOM      5  N   UNL     1       4.087   0.205  -4.063  0.00  0.00    -0.163 NA
ATOM      6  C   UNL     1       6.613   0.389  -4.529  0.00  0.00    +0.215 C 
ATOM      7  C   UNL     1       7.416   1.240  -5.519  0.00  0.00    +0.063 C 
ATOM      8  C   UNL     1       7.007   0.897  -6.956  0.00  0.00    +0.104 C 
ATOM      9  N   UNL     1       5.584   1.247  -7.135  0.00  0.00    -0.321 N 
ATOM     10 CL   UNL     1       2.314   1.292  -7.358  0.00  0.00    -0.078 Cl
ATOM     11  H   UNL     1       5.263   1.699  -7.931  0.00  0.00    +0.148 HD
ENDROOT
BRANCH   8  12
ATOM     12  C   UNL     1       7.204  -0.577  -7.200  0.00  0.00    -0.027 A 
ATOM     13  C   UNL     1       6.258  -1.482  -6.758  0.00  0.00    +0.009 A 
ATOM     14  C   UNL     1       6.436  -2.834  -6.980  0.00  0.00    +0.046 A 
ATOM     15  C   UNL     1       7.567  -3.283  -7.647  0.00  0.00    +0.120 A 
ATOM     16  C   UNL     1       8.515  -2.372  -8.091  0.00  0.00    +0.046 A 
ATOM     17  C   UNL     1       8.329  -1.021  -7.870  0.00  0.00    +0.009 A 
BRANCH  15  18
ATOM     18  O   UNL     1       7.745  -4.612  -7.867  0.00  0.00    -0.495 OA
ATOM     19  C   UNL     1       8.932  -5.001  -8.561  0.00  0.00    +0.277 C 
ENDBRANCH  15  18
ENDBRANCH   8  12
BRANCH   1  21
ATOM     20  N   UNL     1       1.370  -0.170  -3.036  0.00  0.00    -0.306 N 
ATOM     21  C   UNL     1       1.604   0.251  -4.295  0.00  0.00    +0.266 C 
ATOM     22  O   UNL     1       0.673   0.487  -5.040  0.00  0.00    -0.268 OA
ATOM     23  H   UNL     1       2.114  -0.358  -2.442  0.00  0.00    +0.149 HD
BRANCH  20  24
ATOM     24  C   UNL     1      -0.006  -0.343  -2.566  0.00  0.00    +0.143 C 
BRANCH  24  27
ATOM     25  C   UNL     1      -0.018   1.503   0.010  0.00  0.00    +0.068 C 
ATOM     26  C   UNL     1       0.002  -0.004   0.002  0.00  0.00    +0.065 A 
ATOM     27  C   UNL     1       0.008  -0.818  -1.135  0.00  0.00    +0.013 A 
ATOM     28  C   UNL     1       0.028  -2.107  -0.725  0.00  0.00    +0.041 A 
ATOM     29  N   UNL     1       0.034  -2.109   0.625  0.00  0.00    -0.271 N 
ATOM     30  N   UNL     1       0.023  -0.777   1.058  0.00  0.00    -0.176 NA
ATOM     31  C   UNL     1       0.055  -3.295   1.485  0.00  0.00    +0.172 C 
ATOM     32  C   UNL     1       0.040  -3.323  -1.615  0.00  0.00    +0.065 C 
ENDBRANCH  24  27
ENDBRANCH  20  24
ENDBRANCH   1  21
BRANCH   6  33
ATOM     33  C   UNL     1       6.835   0.905  -3.107  0.00  0.00    +0.412 C 
ATOM     34  F   UNL     1       6.091   0.133  -2.208  0.00  0.00    -0.168 F 
ATOM     35  F   UNL     1       8.194   0.814  -2.785  0.00  0.00    -0.168 F 
ATOM     36  F   UNL     1       6.426   2.240  -3.025  0.00  0.00    -0.168 F 
ENDBRANCH   6  33
TORSDOF 6
