REMARK  Name = ZINC39691549
REMARK  9 active torsions:
REMARK  status: ('A' for Active; 'I' for Inactive)
REMARK    1  A    between atoms: C_1  and  C_2
REMARK    2  A    between atoms: C_3  and  C_35
REMARK    3  A    between atoms: N_11  and  C_32
REMARK    4  A    between atoms: C_12  and  S_15
REMARK    5  A    between atoms: S_15  and  C_16
REMARK    6  A    between atoms: C_16  and  C_17
REMARK    7  A    between atoms: C_24  and  C_31
REMARK    8  A    between atoms: C_25  and  C_28
REMARK    9  A    between atoms: C_32  and  C_33
REMARK                            x       y       z     vdW  Elec       q    Type
REMARK                         _______ _______ _______ _____ _____    ______ ____
ROOT
ATOM      1  C   UNL     1      -0.314   1.745   0.667  0.00  0.00    +0.041 C 
ATOM      2  C   UNL     1      -0.225   0.246   0.529  0.00  0.00    -0.049 C 
ATOM      3  C   UNL     1      -0.187  -0.337  -0.673  0.00  0.00    -0.016 C 
ATOM      4  S   UNL     1      -0.157  -2.099  -0.357  0.00  0.00    -0.110 S 
ATOM      5  C   UNL     1      -0.724  -2.049   1.385  0.00  0.00    +0.134 C 
ATOM      6  C   UNL     1      -0.172  -0.622   1.708  0.00  0.00    +0.129 C 
ATOM      7  C   UNL     1      -0.792  -0.242   3.009  0.00  0.00    +0.227 C 
ATOM      8  O   UNL     1      -1.260   0.853   3.240  0.00  0.00    -0.275 OA
ATOM      9  N   UNL     1      -0.775  -1.271   3.913  0.00  0.00    -0.273 N 
ATOM     10  C   UNL     1      -0.037  -2.499   3.662  0.00  0.00    +0.206 C 
ATOM     11  N   UNL     1      -0.011  -2.964   2.263  0.00  0.00    -0.277 NA
ATOM     12  C   UNL     1      -0.172   0.347  -2.016  0.00  0.00    +0.051 C 
ATOM     13  H   UNL     1      -0.365  -3.904   2.169  0.00  0.00    +0.126 HD
ENDROOT
BRANCH  10  14
ATOM     14  S   UNL     1       1.667  -2.261   4.234  0.00  0.00    -0.118 S 
BRANCH  14  15
ATOM     15  C   UNL     1       2.358  -3.938   4.264  0.00  0.00    +0.108 C 
BRANCH  15  16
ATOM     16  C   UNL     1       3.747  -3.899   4.848  0.00  0.00    -0.023 C 
ATOM     17  C   UNL     1       3.955  -4.205   6.143  0.00  0.00    +0.074 C 
ATOM     18  C   UNL     1       5.301  -4.167   6.707  0.00  0.00    +0.261 C 
ATOM     19  O   UNL     1       5.470  -4.447   7.884  0.00  0.00    -0.269 OA
ATOM     20  N   UNL     1       6.352  -3.830   5.952  0.00  0.00    -0.170 NA
ATOM     21  C   UNL     1       6.224  -3.522   4.688  0.00  0.00    +0.098 C 
ATOM     22  C   UNL     1       4.915  -3.529   4.003  0.00  0.00    +0.009 C 
ATOM     23  C   UNL     1       4.895  -3.200   2.696  0.00  0.00    -0.039 C 
ATOM     24  C   UNL     1       6.209  -2.857   2.035  0.00  0.00    +0.192 C 
ATOM     25  S   UNL     1       7.388  -3.040   3.433  0.00  0.00    -0.088 S 
ATOM     26  C   UNL     1       3.604  -3.178   1.919  0.00  0.00    +0.041 C 
BRANCH  24  27
ATOM     27  C   UNL     1       6.522  -3.824   0.923  0.00  0.00    +0.373 C 
ATOM     28  O   UNL     1       6.927  -3.408  -0.150  0.00  0.00    -0.245 OA
ATOM     29  O   UNL     1       6.372  -5.021   1.095  0.00  0.00    -0.245 OA
ENDBRANCH  24  27
ENDBRANCH  15  16
ENDBRANCH  14  15
ENDBRANCH  10  14
BRANCH   9  30
ATOM     30  C   UNL     1      -1.519  -1.131   5.168  0.00  0.00    +0.137 C 
BRANCH  30  31
ATOM     31  C   UNL     1      -2.923  -1.646   4.979  0.00  0.00    -0.016 C 
ATOM     32  C   UNL     1      -3.393  -2.574   5.776  0.00  0.00    +0.005 C 
ENDBRANCH  30  31
ENDBRANCH   9  30
TORSDOF 6
