REMARK  Name = ZINC10220723
REMARK  10 active torsions:
REMARK  status: ('A' for Active; 'I' for Inactive)
REMARK    1  A    between atoms: C_1  and  C_2
REMARK    2  A    between atoms: C_3  and  C_29
REMARK    3  A    between atoms: C_5  and  N_9
REMARK    4  A    between atoms: C_6  and  C_7
REMARK    5  A    between atoms: C_10  and  C_12
REMARK    6  A    between atoms: C_15  and  S_18
REMARK    7  A    between atoms: S_18  and  N_21
REMARK    8  A    between atoms: N_21  and  C_22
REMARK    9  A    between atoms: N_21  and  C_23
REMARK   10  A    between atoms: C_23  and  C_24
REMARK                            x       y       z     vdW  Elec       q    Type
REMARK                         _______ _______ _______ _____ _____    ______ ____
ROOT
ATOM      1  C   UNL     1      -0.017   1.392   0.010  0.00  0.00    +0.037 A 
ATOM      2  C   UNL     1       1.186   2.100   0.002  0.00  0.00    +0.015 A 
ATOM      3  C   UNL     1       2.385   1.417  -0.014  0.00  0.00    +0.029 A 
ATOM      4  C   UNL     1       2.396   0.034  -0.021  0.00  0.00    +0.106 A 
ATOM      5  C   UNL     1       1.208  -0.674  -0.013  0.00  0.00    +0.029 A 
ATOM      6  C   UNL     1       0.002  -0.004   0.002  0.00  0.00    +0.015 A 
ENDROOT
BRANCH   1   8
ATOM      7  N   UNL     1      -1.320   3.464   0.027  0.00  0.00    -0.275 N 
ATOM      8  C   UNL     1      -1.305   2.117   0.020  0.00  0.00    +0.249 C 
ATOM      9  O   UNL     1      -2.351   1.497   0.021  0.00  0.00    -0.270 OA
ATOM     10  H   UNL     1      -0.485   3.958   0.026  0.00  0.00    +0.156 HD
BRANCH   7  15
ATOM     11  C   UNL     1      -4.478   7.420   0.063  0.00  0.00    +0.046 C 
ATOM     12  C   UNL     1      -4.121   5.956   0.054  0.00  0.00    -0.021 A 
ATOM     13  C   UNL     1      -5.070   5.002   0.053  0.00  0.00    -0.007 A 
ATOM     14  S   UNL     1      -4.131   3.489   0.033  0.00  0.00    -0.077 S 
ATOM     15  C   UNL     1      -2.528   4.144   0.037  0.00  0.00    +0.090 A 
ATOM     16  C   UNL     1      -2.746   5.516   0.045  0.00  0.00    +0.083 A 
ATOM     17  C   UNL     1      -6.568   5.173   0.061  0.00  0.00    +0.052 C 
BRANCH  16  18
ATOM     18  C   UNL     1      -1.660   6.449   0.045  0.00  0.00    +0.102 C 
ATOM     19  N   UNL     1      -0.798   7.189   0.046  0.00  0.00    -0.191 NA
ENDBRANCH  16  18
ENDBRANCH   7  15
ENDBRANCH   1   8
BRANCH   4  20
ATOM     20  S   UNL     1       3.932  -0.830  -0.040  0.00  0.00    +0.061 S 
ATOM     21  O   UNL     1       4.902   0.053   0.505  0.00  0.00    -0.153 OA
ATOM     22  O   UNL     1       3.680  -2.118   0.506  0.00  0.00    -0.153 OA
BRANCH  20  23
ATOM     23  N   UNL     1       4.343  -1.062  -1.628  0.00  0.00    -0.172 NA
ATOM     24  C   UNL     1       5.147  -0.059  -2.330  0.00  0.00    +0.132 C 
BRANCH  23  25
ATOM     25  C   UNL     1       3.903  -2.271  -2.329  0.00  0.00    +0.183 C 
BRANCH  25  26
ATOM     26  C   UNL     1       2.627  -1.981  -3.076  0.00  0.00    +0.120 A 
ATOM     27  C   UNL     1       2.540  -1.533  -4.342  0.00  0.00    +0.046 A 
ATOM     28  C   UNL     1       1.164  -1.401  -4.636  0.00  0.00    +0.041 A 
ATOM     29  C   UNL     1       0.491  -1.776  -3.533  0.00  0.00    +0.195 A 
ATOM     30  O   UNL     1       1.382  -2.132  -2.594  0.00  0.00    -0.466 OA
ENDBRANCH  25  26
ENDBRANCH  23  25
ENDBRANCH  20  23
ENDBRANCH   4  20
TORSDOF 7
