REMARK  Name = ZINC39530631
REMARK  8 active torsions:
REMARK  status: ('A' for Active; 'I' for Inactive)
REMARK    1  A    between atoms: C_1  and  C_2
REMARK    2  A    between atoms: C_2  and  C_3
REMARK    3  A    between atoms: C_2  and  S_4
REMARK    4  A    between atoms: S_4  and  C_7
REMARK    5  A    between atoms: C_10  and  N_23
REMARK    6  A    between atoms: C_11  and  S_13
REMARK    7  A    between atoms: S_13  and  O_16
REMARK    8  A    between atoms: O_16  and  C_17
REMARK                            x       y       z     vdW  Elec       q    Type
REMARK                         _______ _______ _______ _____ _____    ______ ____
ROOT
ATOM      1  C   UNL     1      -2.020  -2.571   0.346  0.00  0.00    +0.090 A 
ATOM      2  C   UNL     1      -1.929  -3.404  -0.755  0.00  0.00    +0.029 A 
ATOM      3  C   UNL     1      -1.864  -4.772  -0.583  0.00  0.00    +0.027 A 
ATOM      4  C   UNL     1      -1.889  -5.312   0.696  0.00  0.00    +0.058 A 
ATOM      5  C   UNL     1      -1.981  -4.473   1.799  0.00  0.00    +0.151 A 
ATOM      6  C   UNL     1      -2.040  -3.105   1.621  0.00  0.00    +0.059 A 
ENDROOT
BRANCH   4   7
ATOM      7  N   UNL     1      -1.824  -6.696   0.873  0.00  0.00    -0.329 N 
ATOM      8  C   UNL     1      -3.047  -7.513   0.910  0.00  0.00    +0.086 C 
ATOM      9  C   UNL     1      -2.879  -8.683  -0.065  0.00  0.00    -0.060 C 
ATOM     10  N   UNL     1      -1.650  -9.417   0.260  0.00  0.00    +0.400 N 
ATOM     11  C   UNL     1      -0.481  -8.555   0.048  0.00  0.00    +0.119 C 
ATOM     12  C   UNL     1      -0.530  -7.379   1.022  0.00  0.00    +0.120 C 
ATOM     13  O   UNL     1       0.713  -9.309   0.267  0.00  0.00    -0.250 OA
ATOM     14  H   UNL     1      -1.680  -9.709   1.226  0.00  0.00    -0.082 HD
ATOM     15  H   UNL     1      -1.579 -10.231  -0.333  0.00  0.00    -0.082 HD
ENDBRANCH   4   7
BRANCH   1  16
ATOM     16  S   UNL     1      -2.103  -0.825   0.122  0.00  0.00    -0.001 S 
ATOM     17  O   UNL     1      -2.610  -0.326   1.353  0.00  0.00    -0.169 OA
ATOM     18  O   UNL     1      -2.831  -0.648  -1.086  0.00  0.00    -0.169 OA
BRANCH  16  20
ATOM     19  C   UNL     1      -0.322   1.224  -0.213  0.00  0.00    +0.032 C 
ATOM     20  C   UNL     1      -0.381  -0.301  -0.103  0.00  0.00    +0.130 C 
ATOM     21  C   UNL     1       0.452  -0.759   1.096  0.00  0.00    +0.032 C 
ENDBRANCH  16  20
ENDBRANCH   1  16
BRANCH   5  22
ATOM     22  S   UNL     1      -2.014  -5.153   3.425  0.00  0.00    +0.153 S 
ATOM     23  O   UNL     1      -3.383  -5.272   3.787  0.00  0.00    -0.131 OA
ATOM     24  O   UNL     1      -1.129  -6.264   3.418  0.00  0.00    -0.131 OA
BRANCH  22  25
ATOM     25  O   UNL     1      -1.406  -4.117   4.358  0.00  0.00    -0.342 OA
BRANCH  25  26
ATOM     26  C   UNL     1      -0.051  -4.042   4.293  0.00  0.00    +0.157 A 
ATOM     27  C   UNL     1       0.730  -4.921   5.030  0.00  0.00    +0.048 A 
ATOM     28  C   UNL     1       2.107  -4.843   4.962  0.00  0.00    +0.004 A 
ATOM     29  C   UNL     1       2.708  -3.890   4.160  0.00  0.00    +0.000 A 
ATOM     30  C   UNL     1       1.933  -3.013   3.425  0.00  0.00    +0.004 A 
ATOM     31  C   UNL     1       0.555  -3.091   3.485  0.00  0.00    +0.048 A 
ENDBRANCH  25  26
ENDBRANCH  22  25
ENDBRANCH   5  22
TORSDOF 6
