REMARK  Name = ZINC44174262
REMARK  7 active torsions:
REMARK  status: ('A' for Active; 'I' for Inactive)
REMARK    1  A    between atoms: C_4  and  C_7
REMARK    2  A    between atoms: C_7  and  N_8
REMARK    3  A    between atoms: C_13  and  C_35
REMARK    4  A    between atoms: C_16  and  C_21
REMARK    5  A    between atoms: C_16  and  C_32
REMARK    6  A    between atoms: C_21  and  C_22
REMARK    7  A    between atoms: C_36  and  C_37
REMARK                            x       y       z     vdW  Elec       q    Type
REMARK                         _______ _______ _______ _____ _____    ______ ____
ROOT
ATOM      1  N   UNL     1       4.174  -0.954   1.333  0.00  0.00    -0.237 N 
ATOM      2  C   UNL     1       4.954  -0.083   2.053  0.00  0.00    +0.225 C 
ATOM      3  O   UNL     1       5.218   1.069   1.784  0.00  0.00    -0.275 OA
ATOM      4  C   UNL     1       5.390  -0.841   3.200  0.00  0.00    +0.076 C 
ATOM      5  C   UNL     1       5.912  -0.642   4.563  0.00  0.00    -0.034 C 
ATOM      6  N   UNL     1       5.848  -2.033   5.131  0.00  0.00    +0.395 N 
ATOM      7  C   UNL     1       4.825  -2.796   4.354  0.00  0.00    +0.052 C 
ATOM      8  C   UNL     1       4.124  -1.743   3.483  0.00  0.00    +0.086 C 
ATOM      9  C   UNL     1       3.837  -2.071   2.044  0.00  0.00    +0.225 C 
ATOM     10  O   UNL     1       3.399  -3.113   1.605  0.00  0.00    -0.275 OA
ATOM     11  H   UNL     1       6.748  -2.480   5.042  0.00  0.00    -0.083 HD
ATOM     12  H   UNL     1       5.579  -1.993   6.102  0.00  0.00    -0.083 HD
ENDROOT
BRANCH   7  13
ATOM     13  C   UNL     1       3.828  -3.431   5.289  0.00  0.00    +0.347 C 
ATOM     14  O   UNL     1       3.952  -3.299   6.494  0.00  0.00    -0.248 OA
ATOM     15  O   UNL     1       2.897  -4.077   4.839  0.00  0.00    -0.248 OA
ENDBRANCH   7  13
BRANCH   5  16
ATOM     16  C   UNL     1       5.032   0.300   5.343  0.00  0.00    -0.041 C 
ATOM     17  C   UNL     1       5.553   1.382   5.904  0.00  0.00    +0.002 C 
BRANCH  17  18
ATOM     18  C   UNL     1       4.716   2.242   6.768  0.00  0.00    -0.025 A 
ATOM     19  C   UNL     1       3.380   1.914   7.000  0.00  0.00    +0.008 A 
ATOM     20  C   UNL     1       2.605   2.721   7.807  0.00  0.00    +0.001 A 
ATOM     21  C   UNL     1       3.149   3.853   8.386  0.00  0.00    +0.000 A 
ATOM     22  C   UNL     1       4.473   4.184   8.160  0.00  0.00    +0.001 A 
ATOM     23  C   UNL     1       5.261   3.382   7.360  0.00  0.00    +0.008 A 
ENDBRANCH  17  18
ENDBRANCH   5  16
BRANCH   1  24
ATOM     24  C   UNL     1       3.743  -0.708  -0.045  0.00  0.00    +0.151 C 
BRANCH  24  28
ATOM     25  C   UNL     1       0.023   1.392  -0.025  0.00  0.00    +0.000 A 
ATOM     26  C   UNL     1       1.214   2.095  -0.026  0.00  0.00    +0.000 A 
ATOM     27  C   UNL     1       2.418   1.415  -0.032  0.00  0.00    +0.005 A 
ATOM     28  C   UNL     1       2.431   0.033  -0.037  0.00  0.00    -0.030 A 
ATOM     29  C   UNL     1       1.240  -0.670  -0.036  0.00  0.00    +0.005 A 
ATOM     30  C   UNL     1       0.037   0.009  -0.031  0.00  0.00    +0.000 A 
ENDBRANCH  24  28
ENDBRANCH   1  24
BRANCH   7  31
ATOM     31  C   UNL     1       5.503  -3.865   3.495  0.00  0.00    +0.037 C 
BRANCH  31  32
ATOM     32  C   UNL     1       6.231  -4.839   4.385  0.00  0.00    -0.023 A 
ATOM     33  C   UNL     1       7.528  -4.793   4.728  0.00  0.00    +0.087 A 
ATOM     34  N   UNL     1       7.832  -5.843   5.550  0.00  0.00    -0.360 N 
ATOM     35  H   UNL     1       8.707  -6.021   5.927  0.00  0.00    +0.165 HD
ATOM     36  C   UNL     1       6.709  -6.612   5.761  0.00  0.00    +0.047 A 
ATOM     37  C   UNL     1       5.655  -6.013   5.047  0.00  0.00    +0.003 A 
ATOM     38  C   UNL     1       4.380  -6.579   5.082  0.00  0.00    +0.010 A 
ATOM     39  C   UNL     1       4.160  -7.711   5.815  0.00  0.00    +0.001 A 
ATOM     40  C   UNL     1       5.194  -8.303   6.525  0.00  0.00    +0.002 A 
ATOM     41  C   UNL     1       6.463  -7.767   6.496  0.00  0.00    +0.026 A 
ENDBRANCH  31  32
ENDBRANCH   7  31
TORSDOF 7
