REMARK  Name = ZINC64788205
REMARK  8 active torsions:
REMARK  status: ('A' for Active; 'I' for Inactive)
REMARK    1  A    between atoms: C_1  and  C_2
REMARK    2  A    between atoms: C_6  and  C_8
REMARK    3  A    between atoms: C_16  and  C_18
REMARK    4  A    between atoms: C_21  and  O_26
REMARK    5  A    between atoms: C_22  and  O_24
REMARK    6  A    between atoms: O_24  and  C_25
REMARK    7  A    between atoms: N_27  and  C_34
REMARK    8  A    between atoms: N_30  and  C_33
REMARK                            x       y       z     vdW  Elec       q    Type
REMARK                         _______ _______ _______ _____ _____    ______ ____
ROOT
ATOM      1  C   UNL     1       0.169  -2.642   2.986  0.00  0.00    +0.064 A 
ATOM      2  C   UNL     1       0.588  -2.381   4.279  0.00  0.00    +0.089 A 
ATOM      3  C   UNL     1       0.318  -3.602   5.057  0.00  0.00    +0.083 A 
ATOM      4  C   UNL     1      -0.227  -4.482   4.207  0.00  0.00    +0.077 A 
ATOM      5  N   UNL     1      -0.325  -3.907   2.957  0.00  0.00    -0.337 N 
ATOM      6  C   UNL     1      -0.891  -4.612   1.798  0.00  0.00    +0.150 C 
ATOM      7  C   UNL     1      -1.685  -5.818   2.313  0.00  0.00    +0.182 C 
ATOM      8  O   UNL     1      -0.892  -6.556   3.247  0.00  0.00    -0.364 OA
ATOM      9  C   UNL     1      -0.688  -5.892   4.499  0.00  0.00    +0.197 C 
ATOM     10  N   UNL     1       0.658  -3.596   6.415  0.00  0.00    -0.294 N 
ATOM     11  C   UNL     1       1.210  -2.504   6.971  0.00  0.00    +0.332 A 
ATOM     12  O   UNL     1       1.490  -2.541   8.153  0.00  0.00    -0.246 OA
ATOM     13  N   UNL     1       1.469  -1.377   6.295  0.00  0.00    -0.263 N 
ATOM     14  C   UNL     1       1.192  -1.246   4.980  0.00  0.00    +0.266 A 
ATOM     15  O   UNL     1       1.439  -0.210   4.391  0.00  0.00    -0.267 OA
ATOM     16  C   UNL     1       2.073  -0.248   7.007  0.00  0.00    +0.157 C 
ATOM     17  C   UNL     1       0.410  -4.786   7.234  0.00  0.00    +0.154 C 
ENDROOT
BRANCH   1  23
ATOM     18  C   UNL     1      -0.499   1.927   1.096  0.00  0.00    +0.044 C 
ATOM     19  C   UNL     1      -0.081   0.489   0.928  0.00  0.00    -0.050 A 
ATOM     20  C   UNL     1       0.371   0.040  -0.300  0.00  0.00    +0.003 A 
ATOM     21  C   UNL     1       0.757  -1.279  -0.463  0.00  0.00    +0.001 A 
ATOM     22  C   UNL     1       0.694  -2.156   0.600  0.00  0.00    +0.010 A 
ATOM     23  C   UNL     1       0.239  -1.709   1.843  0.00  0.00    -0.000 A 
ATOM     24  C   UNL     1      -0.145  -0.375   2.001  0.00  0.00    +0.013 A 
ENDBRANCH   1  23
BRANCH   9  25
ATOM     25  C   UNL     1       0.359  -6.614   5.308  0.00  0.00    -0.009 A 
ATOM     26  C   UNL     1      -0.004  -7.297   6.454  0.00  0.00    +0.010 A 
ATOM     27  C   UNL     1       0.952  -7.960   7.199  0.00  0.00    +0.049 A 
ATOM     28  C   UNL     1       2.279  -7.942   6.799  0.00  0.00    +0.158 A 
ATOM     29  C   UNL     1       2.644  -7.255   5.645  0.00  0.00    +0.162 A 
ATOM     30  C   UNL     1       1.680  -6.596   4.900  0.00  0.00    +0.056 A 
BRANCH  29  31
ATOM     31  O   UNL     1       3.945  -7.234   5.248  0.00  0.00    -0.491 OA
ATOM     32  C   UNL     1       4.247  -6.509   4.054  0.00  0.00    +0.277 C 
ENDBRANCH  29  31
BRANCH  28  33
ATOM     33  O   UNL     1       3.221  -8.594   7.531  0.00  0.00    -0.503 OA
ATOM     34  H   UNL     1       3.359  -9.513   7.266  0.00  0.00    +0.292 HD
ENDBRANCH  28  33
ENDBRANCH   9  25
TORSDOF 4
