REMARK  Name = ZINC42074106
REMARK  4 active torsions:
REMARK  status: ('A' for Active; 'I' for Inactive)
REMARK    1  A    between atoms: C_1  and  C_2
REMARK    2  A    between atoms: C_4  and  C_22
REMARK    3  A    between atoms: C_8  and  N_13
REMARK    4  A    between atoms: N_13  and  C_14
REMARK                            x       y       z     vdW  Elec       q    Type
REMARK                         _______ _______ _______ _____ _____    ______ ____
ROOT
ATOM      1  C   UNL     1      -0.018   1.503   0.010  0.00  0.00    +0.044 C 
ATOM      2  C   UNL     1       0.002  -0.004   0.002  0.00  0.00    -0.050 A 
ATOM      3  C   UNL     1       0.006  -0.691  -1.198  0.00  0.00    +0.008 A 
ATOM      4  C   UNL     1       0.025  -2.070  -1.213  0.00  0.00    -0.029 A 
ATOM      5  C   UNL     1       0.040  -2.782  -0.015  0.00  0.00    +0.042 A 
ATOM      6  C   UNL     1       0.037  -2.081   1.184  0.00  0.00    +0.003 A 
ATOM      7  C   UNL     1       0.023  -0.704   1.196  0.00  0.00    +0.011 A 
ATOM      8  C   UNL     1       0.056  -3.118   2.283  0.00  0.00    +0.190 C 
ATOM      9  C   UNL     1       0.071  -4.439   1.543  0.00  0.00    +0.242 C 
ATOM     10  O   UNL     1       0.088  -5.544   2.042  0.00  0.00    -0.273 OA
ATOM     11  N   UNL     1       0.060  -4.156   0.229  0.00  0.00    -0.283 N 
ATOM     12  C   UNL     1       0.028  -2.808  -2.527  0.00  0.00    +0.045 C 
ATOM     13  H   UNL     1       0.066  -4.829  -0.469  0.00  0.00    +0.155 HD
ENDROOT
BRANCH   8  14
ATOM     14  N   UNL     1       1.261  -2.973   3.104  0.00  0.00    -0.328 N 
ATOM     15  H   UNL     1       2.057  -2.563   2.729  0.00  0.00    +0.147 HD
BRANCH  14  16
ATOM     16  C   UNL     1       1.265  -3.426   4.426  0.00  0.00    +0.042 A 
ATOM     17  C   UNL     1       0.128  -4.018   4.962  0.00  0.00    +0.025 A 
ATOM     18  C   UNL     1       0.134  -4.465   6.269  0.00  0.00    +0.017 A 
ATOM     19  C   UNL     1       1.271  -4.322   7.045  0.00  0.00    +0.019 A 
ATOM     20  C   UNL     1       2.405  -3.733   6.515  0.00  0.00    +0.032 A 
ATOM     21  C   UNL     1       2.407  -3.289   5.206  0.00  0.00    +0.040 A 
ATOM     22 BR   UNL     1       3.959  -2.491   4.479  0.00  0.00    -0.048 Br
ATOM     23 BR   UNL     1       1.275  -4.934   8.834  0.00  0.00    -0.050 Br
ENDBRANCH  14  16
ENDBRANCH   8  14
TORSDOF 2
