REMARK  Name = ZINC38573396
REMARK  11 active torsions:
REMARK  status: ('A' for Active; 'I' for Inactive)
REMARK    1  A    between atoms: C_1  and  C_2
REMARK    2  A    between atoms: C_4  and  C_10
REMARK    3  A    between atoms: C_5  and  O_9
REMARK    4  A    between atoms: C_7  and  C_8
REMARK    5  A    between atoms: C_13  and  C_15
REMARK    6  A    between atoms: N_17  and  C_18
REMARK    7  A    between atoms: C_20  and  C_31
REMARK    8  A    between atoms: N_33  and  C_34
REMARK    9  A    between atoms: C_34  and  C_35
REMARK   10  A    between atoms: C_35  and  O_36
REMARK   11  A    between atoms: O_36  and  C_37
REMARK                            x       y       z     vdW  Elec       q    Type
REMARK                         _______ _______ _______ _____ _____    ______ ____
ROOT
ATOM      1  C   UNL     1       0.025  -3.578  -6.193  0.00  0.00    +0.261 C 
ATOM      2  O   UNL     1       0.014  -2.562  -6.863  0.00  0.00    -0.269 OA
ATOM      3  N   UNL     1       0.034  -4.783  -6.796  0.00  0.00    -0.298 N 
ATOM      4  H   UNL     1       0.043  -5.593  -6.261  0.00  0.00    +0.150 HD
ENDROOT
BRANCH   3   5
ATOM      5  C   UNL     1       0.030  -4.871  -8.258  0.00  0.00    +0.144 C 
ATOM      6  C   UNL     1       1.012  -5.956  -8.743  0.00  0.00    +0.109 C 
ATOM      7  C   UNL     1       0.448  -6.844  -9.824  0.00  0.00    +0.016 C 
ATOM      8  C   UNL     1       1.411  -7.217 -10.905  0.00  0.00    +0.005 C 
ATOM      9  C   UNL     1       1.209  -6.494 -12.222  0.00  0.00    +0.000 C 
ATOM     10  C   UNL     1      -0.265  -6.488 -12.619  0.00  0.00    +0.001 C 
ATOM     11  C   UNL     1      -1.066  -5.773 -11.530  0.00  0.00    +0.014 C 
ATOM     12  C   UNL     1      -0.983  -6.563 -10.246  0.00  0.00    +0.052 C 
ATOM     13  S   UNL     1      -1.593  -5.482  -8.871  0.00  0.00    -0.134 S 
BRANCH   6  14
ATOM     14  C   UNL     1       1.396  -6.818  -7.568  0.00  0.00    +0.219 C 
ATOM     15  O   UNL     1       1.135  -8.003  -7.573  0.00  0.00    -0.275 OA
ATOM     16  N   UNL     1       2.029  -6.273  -6.510  0.00  0.00    -0.313 N 
ATOM     17  H   UNL     1       2.238  -5.326  -6.505  0.00  0.00    +0.149 HD
BRANCH  16  18
ATOM     18  C   UNL     1       2.402  -7.111  -5.368  0.00  0.00    +0.132 C 
BRANCH  18  19
ATOM     19  C   UNL     1       3.102  -6.252  -4.313  0.00  0.00    +0.178 C 
BRANCH  19  20
ATOM     20  O   UNL     1       2.181  -5.292  -3.792  0.00  0.00    -0.381 OA
ATOM     21  C   UNL     1       2.738  -4.434  -2.794  0.00  0.00    +0.194 C 
ENDBRANCH  19  20
ENDBRANCH  18  19
ENDBRANCH  16  18
ENDBRANCH   6  14
ENDBRANCH   3   5
BRANCH   1  25
ATOM     22  C   UNL     1       0.029  -2.813  -2.474  0.00  0.00    +0.080 C 
ATOM     23  N   UNL     1       0.040  -4.116  -2.651  0.00  0.00    -0.153 NA
ATOM     24  N   UNL     1       0.040  -4.478  -3.873  0.00  0.00    -0.148 NA
ATOM     25  C   UNL     1       0.028  -3.490  -4.730  0.00  0.00    +0.131 C 
ATOM     26  C   UNL     1       0.013  -2.231  -3.878  0.00  0.00    +0.120 C 
BRANCH  22  30
ATOM     27  C   UNL     1      -0.018   1.503   0.010  0.00  0.00    +0.044 C 
ATOM     28  C   UNL     1       0.002  -0.004   0.002  0.00  0.00    -0.047 A 
ATOM     29  C   UNL     1       0.006  -0.682  -1.196  0.00  0.00    +0.017 A 
ATOM     30  C   UNL     1       0.025  -2.084  -1.205  0.00  0.00    +0.040 A 
ATOM     31  C   UNL     1       0.041  -2.784   0.015  0.00  0.00    +0.126 A 
ATOM     32  C   UNL     1       0.037  -2.081   1.210  0.00  0.00    +0.049 A 
ATOM     33  C   UNL     1       0.023  -0.700   1.201  0.00  0.00    -0.044 A 
ATOM     34  C   UNL     1       0.025   0.056   2.505  0.00  0.00    +0.044 C 
BRANCH  31  35
ATOM     35  O   UNL     1       0.059  -4.140   0.023  0.00  0.00    -0.506 OA
ATOM     36  H   UNL     1       0.948  -4.522   0.020  0.00  0.00    +0.292 HD
ENDBRANCH  31  35
ENDBRANCH  22  30
ENDBRANCH   1  25
TORSDOF 8
