REMARK  Name = ZINC65197708
REMARK  7 active torsions:
REMARK  status: ('A' for Active; 'I' for Inactive)
REMARK    1  A    between atoms: C_1  and  C_2
REMARK    2  A    between atoms: C_4  and  C_15
REMARK    3  A    between atoms: C_5  and  C_14
REMARK    4  A    between atoms: N_6  and  C_7
REMARK    5  A    between atoms: N_17  and  N_18
REMARK    6  A    between atoms: N_21  and  C_22
REMARK    7  A    between atoms: C_22  and  C_23
REMARK                            x       y       z     vdW  Elec       q    Type
REMARK                         _______ _______ _______ _____ _____    ______ ____
ROOT
ATOM      1  C   UNL     1      -0.018   1.503   0.010  0.00  0.00    +0.064 C 
ATOM      2  C   UNL     1       0.002  -0.004   0.002  0.00  0.00    +0.022 A 
ATOM      3  C   UNL     1       0.008  -0.780  -1.096  0.00  0.00    +0.036 A 
ATOM      4  C   UNL     1       0.030  -2.168  -0.621  0.00  0.00    +0.059 A 
ATOM      5  C   UNL     1       0.035  -2.103   0.745  0.00  0.00    +0.033 A 
ATOM      6  N   UNL     1       0.024  -0.805   1.109  0.00  0.00    -0.317 N 
ATOM      7  C   UNL     1       0.055  -3.282   1.684  0.00  0.00    +0.064 C 
ENDROOT
BRANCH   6   8
ATOM      8  C   UNL     1       0.029  -0.343   2.433  0.00  0.00    +0.047 A 
ATOM      9  C   UNL     1       1.132  -0.573   3.244  0.00  0.00    +0.029 A 
ATOM     10  C   UNL     1       1.136  -0.117   4.548  0.00  0.00    +0.040 A 
ATOM     11  C   UNL     1       0.042   0.569   5.046  0.00  0.00    +0.124 A 
ATOM     12  C   UNL     1      -1.060   0.799   4.238  0.00  0.00    +0.040 A 
ATOM     13  C   UNL     1      -1.065   0.350   2.933  0.00  0.00    +0.029 A 
ATOM     14  F   UNL     1       0.048   1.015   6.322  0.00  0.00    -0.205 F 
ENDBRANCH   6   8
BRANCH   4  15
ATOM     15  C   UNL     1       0.043  -3.386  -1.449  0.00  0.00    +0.262 C 
ATOM     16  O   UNL     1       0.060  -4.481  -0.920  0.00  0.00    -0.269 OA
ATOM     17  N   UNL     1       0.035  -3.288  -2.793  0.00  0.00    -0.229 N 
ATOM     18  H   UNL     1       0.022  -2.414  -3.215  0.00  0.00    +0.173 HD
BRANCH  17  19
ATOM     19  N   UNL     1       0.048  -4.446  -3.581  0.00  0.00    -0.218 N 
ATOM     20  C   UNL     1       0.041  -4.348  -4.925  0.00  0.00    +0.316 C 
ATOM     21  O   UNL     1       0.051  -5.353  -5.608  0.00  0.00    -0.251 OA
ATOM     22  N   UNL     1       0.021  -3.134  -5.511  0.00  0.00    -0.298 N 
ATOM     23  H   UNL     1       0.062  -5.319  -3.159  0.00  0.00    +0.174 HD
ATOM     24  H   UNL     1       0.013  -2.332  -4.966  0.00  0.00    +0.150 HD
BRANCH  22  25
ATOM     25  C   UNL     1       0.013  -3.027  -6.972  0.00  0.00    +0.109 C 
BRANCH  25  26
ATOM     26  C   UNL     1      -0.009  -1.551  -7.375  0.00  0.00    +0.006 C 
ATOM     27  C   UNL     1      -1.235  -1.045  -8.138  0.00  0.00    +0.005 C 
ATOM     28  C   UNL     1       0.098  -1.224  -8.866  0.00  0.00    +0.005 C 
ENDBRANCH  25  26
ENDBRANCH  22  25
ENDBRANCH  17  19
ENDBRANCH   4  15
TORSDOF 5
