REMARK  Name = ZINC67297792
REMARK  6 active torsions:
REMARK  status: ('A' for Active; 'I' for Inactive)
REMARK    1  A    between atoms: C_1  and  S_2
REMARK    2  A    between atoms: S_2  and  C_5
REMARK    3  A    between atoms: C_7  and  C_14
REMARK    4  A    between atoms: C_9  and  N_11
REMARK    5  A    between atoms: N_16  and  C_17
REMARK    6  A    between atoms: C_18  and  C_25
REMARK                            x       y       z     vdW  Elec       q    Type
REMARK                         _______ _______ _______ _____ _____    ______ ____
ROOT
ATOM      1  C   UNL     1       0.049  -1.144  -5.084  0.00  0.00    +0.249 C 
ATOM      2  O   UNL     1      -1.158  -1.001  -5.095  0.00  0.00    -0.270 OA
ATOM      3  N   UNL     1       0.699  -1.476  -6.218  0.00  0.00    -0.275 N 
ATOM      4  H   UNL     1       1.662  -1.590  -6.209  0.00  0.00    +0.156 HD
ENDROOT
BRANCH   3   5
ATOM      5  C   UNL     1      -0.010  -1.653  -7.397  0.00  0.00    +0.090 A 
ATOM      6  C   UNL     1       0.483  -1.996  -8.641  0.00  0.00    +0.084 A 
ATOM      7  C   UNL     1      -0.480  -2.122  -9.733  0.00  0.00    -0.018 A 
ATOM      8  C   UNL     1      -1.754  -1.880  -9.371  0.00  0.00    -0.004 A 
ATOM      9  S   UNL     1      -1.663  -1.508  -7.638  0.00  0.00    -0.077 S 
ATOM     10  C   UNL     1      -2.702  -2.019 -10.531  0.00  0.00    +0.043 C 
ATOM     11  C   UNL     1      -1.799  -1.967 -11.783  0.00  0.00    +0.010 C 
ATOM     12  C   UNL     1      -0.452  -2.466 -11.220  0.00  0.00    +0.037 C 
BRANCH   6  13
ATOM     13  C   UNL     1       1.882  -2.219  -8.853  0.00  0.00    +0.102 C 
ATOM     14  N   UNL     1       2.991  -2.395  -9.021  0.00  0.00    -0.191 NA
ENDBRANCH   6  13
ENDBRANCH   3   5
BRANCH   1  17
ATOM     15  C   UNL     1       0.845  -0.437  -1.483  0.00  0.00    +0.091 A 
ATOM     16  C   UNL     1       0.134  -0.612  -2.653  0.00  0.00    +0.040 A 
ATOM     17  C   UNL     1       0.804  -0.955  -3.828  0.00  0.00    +0.041 A 
ATOM     18  C   UNL     1       2.191  -1.119  -3.812  0.00  0.00    +0.046 A 
ATOM     19  C   UNL     1       2.889  -0.942  -2.636  0.00  0.00    +0.129 A 
ATOM     20  C   UNL     1       2.220  -0.596  -1.475  0.00  0.00    +0.059 A 
BRANCH  15  22
ATOM     21  C   UNL     1      -0.022   1.810   0.012  0.00  0.00    +0.200 C 
ATOM     22  S   UNL     1       0.002  -0.004   0.002  0.00  0.00    -0.006 S 
ATOM     23  O   UNL     1       0.835  -0.488   1.046  0.00  0.00    -0.170 OA
ATOM     24  O   UNL     1      -1.315  -0.510  -0.168  0.00  0.00    -0.170 OA
ENDBRANCH  15  22
BRANCH  19  25
ATOM     25  N   UNL     1       4.359  -1.116  -2.617  0.00  0.00    +0.057 N 
ATOM     26  O   UNL     1       4.946  -1.413  -3.631  0.00  0.00    -0.126 OA
ATOM     27  O   UNL     1       4.973  -0.960  -1.587  0.00  0.00    -0.126 OA
ENDBRANCH  19  25
ENDBRANCH   1  17
TORSDOF 5
