REMARK  Name = ZINC59880588
REMARK  8 active torsions:
REMARK  status: ('A' for Active; 'I' for Inactive)
REMARK    1  A    between atoms: C_1  and  C_2
REMARK    2  A    between atoms: C_5  and  C_7
REMARK    3  A    between atoms: C_7  and  C_9
REMARK    4  A    between atoms: C_7  and  S_10
REMARK    5  A    between atoms: S_10  and  C_11
REMARK    6  A    between atoms: N_16  and  N_17
REMARK    7  A    between atoms: C_18  and  C_19
REMARK    8  A    between atoms: C_22  and  O_26
REMARK                            x       y       z     vdW  Elec       q    Type
REMARK                         _______ _______ _______ _____ _____    ______ ____
ROOT
ATOM      1  C   UNL     1       1.290  -5.811   1.918  0.00  0.00    +0.211 A 
ATOM      2  N   UNL     1       2.054  -6.906   1.830  0.00  0.00    -0.186 NA
ATOM      3  C   UNL     1       1.812  -7.698   2.853  0.00  0.00    +0.232 A 
ATOM      4  N   UNL     1       0.872  -7.109   3.623  0.00  0.00    -0.245 N 
ATOM      5  N   UNL     1       0.555  -5.890   3.002  0.00  0.00    -0.144 NA
ATOM      6  N   UNL     1       2.414  -8.918   3.097  0.00  0.00    -0.205 N 
ATOM      7  H   UNL     1       2.168  -9.433   3.882  0.00  0.00    +0.177 HD
ATOM      8  H   UNL     1       0.493  -7.457   4.445  0.00  0.00    +0.192 HD
ENDROOT
BRANCH   6   9
ATOM      9  N   UNL     1       3.379  -9.413   2.210  0.00  0.00    -0.188 NA
ATOM     10  C   UNL     1       3.945 -10.559   2.439  0.00  0.00    +0.138 C 
BRANCH  10  11
ATOM     11  C   UNL     1       4.961 -11.079   1.505  0.00  0.00    -0.003 A 
ATOM     12  C   UNL     1       5.321 -10.337   0.377  0.00  0.00    +0.028 A 
ATOM     13  C   UNL     1       6.271 -10.827  -0.493  0.00  0.00    +0.061 A 
ATOM     14  C   UNL     1       6.871 -12.057  -0.250  0.00  0.00    +0.145 A 
ATOM     15  C   UNL     1       6.516 -12.797   0.871  0.00  0.00    +0.061 A 
ATOM     16  C   UNL     1       5.570 -12.312   1.750  0.00  0.00    +0.028 A 
ATOM     17 BR   UNL     1       7.336 -14.470   1.195  0.00  0.00    -0.046 Br
ATOM     18 BR   UNL     1       6.760  -9.825  -2.020  0.00  0.00    -0.046 Br
BRANCH  14  19
ATOM     19  O   UNL     1       7.807 -12.536  -1.111  0.00  0.00    -0.505 OA
ATOM     20  H   UNL     1       8.712 -12.274  -0.894  0.00  0.00    +0.292 HD
ENDBRANCH  14  19
ENDBRANCH  10  11
ENDBRANCH   6   9
BRANCH   1  21
ATOM     21  S   UNL     1       1.278  -4.476   0.768  0.00  0.00    -0.072 S 
BRANCH  21  22
ATOM     22  C   UNL     1       0.055  -3.322   1.448  0.00  0.00    +0.139 C 
ATOM     23  C   UNL     1      -1.329  -3.974   1.423  0.00  0.00    +0.029 C 
BRANCH  22  28
ATOM     24  C   UNL     1      -0.018   1.503   0.010  0.00  0.00    +0.111 C 
ATOM     25  C   UNL     1       0.002  -0.004   0.002  0.00  0.00    +0.214 A 
ATOM     26  N   UNL     1       0.008  -0.769  -1.052  0.00  0.00    -0.113 NA
ATOM     27  N   UNL     1       0.027  -2.002  -0.685  0.00  0.00    -0.111 NA
ATOM     28  C   UNL     1       0.034  -2.066   0.616  0.00  0.00    +0.230 A 
ATOM     29  O   UNL     1       0.023  -0.805   1.081  0.00  0.00    -0.424 OA
ENDBRANCH  22  28
ENDBRANCH  21  22
ENDBRANCH   1  21
TORSDOF 6
