REMARK  Name = ZINC39708621
REMARK  4 active torsions:
REMARK  status: ('A' for Active; 'I' for Inactive)
REMARK    1  A    between atoms: C_1  and  C_2
REMARK    2  A    between atoms: N_4  and  C_21
REMARK    3  A    between atoms: C_8  and  C_9
REMARK    4  A    between atoms: C_25  and  C_27
REMARK                            x       y       z     vdW  Elec       q    Type
REMARK                         _______ _______ _______ _____ _____    ______ ____
ROOT
ATOM      1  C   UNL     1      -0.018   1.503   0.010  0.00  0.00    +0.068 C 
ATOM      2  C   UNL     1       0.002  -0.004   0.002  0.00  0.00    +0.069 C 
ATOM      3  N   UNL     1       0.008  -0.764  -1.047  0.00  0.00    -0.177 NA
ATOM      4  N   UNL     1       0.028  -2.115  -0.705  0.00  0.00    -0.156 N 
ATOM      5  C   UNL     1       0.035  -2.257   0.636  0.00  0.00    +0.272 C 
ATOM      6  O   UNL     1       0.052  -3.300   1.264  0.00  0.00    -0.268 OA
ATOM      7  C   UNL     1       0.025  -0.883   1.188  0.00  0.00    +0.058 C 
ATOM      8  C   UNL     1       0.033  -0.515   2.489  0.00  0.00    +0.005 C 
ENDROOT
BRANCH   8   9
ATOM      9  C   UNL     1       0.058  -1.566   3.569  0.00  0.00    +0.122 C 
ATOM     10  C   UNL     1      -1.231  -1.451   4.359  0.00  0.00    -0.001 C 
ATOM     11  C   UNL     1      -1.125  -1.222   5.699  0.00  0.00    -0.007 A 
ATOM     12  C   UNL     1      -2.318  -1.097   6.536  0.00  0.00    +0.009 A 
ATOM     13  C   UNL     1      -2.164  -0.870   7.866  0.00  0.00    +0.001 A 
ATOM     14  C   UNL     1      -0.899  -0.753   8.441  0.00  0.00    +0.002 A 
ATOM     15  C   UNL     1       0.247  -0.860   7.719  0.00  0.00    +0.024 A 
ATOM     16  C   UNL     1       0.199  -1.096   6.333  0.00  0.00    +0.040 A 
ATOM     17  N   UNL     1       1.329  -1.198   5.635  0.00  0.00    -0.284 N 
ATOM     18  C   UNL     1       1.355  -1.417   4.331  0.00  0.00    +0.228 C 
ATOM     19  O   UNL     1       2.419  -1.501   3.748  0.00  0.00    -0.274 OA
ATOM     20  H   UNL     1       2.173  -1.107   6.105  0.00  0.00    +0.155 HD
ENDBRANCH   8   9
BRANCH   4  21
ATOM     21  C   UNL     1       0.038  -3.174  -1.623  0.00  0.00    +0.061 A 
ATOM     22  C   UNL     1       0.051  -4.487  -1.168  0.00  0.00    +0.027 A 
ATOM     23  C   UNL     1       0.061  -5.536  -2.067  0.00  0.00    +0.023 A 
ATOM     24  C   UNL     1       0.058  -5.287  -3.426  0.00  0.00    +0.055 A 
ATOM     25  C   UNL     1       0.044  -3.969  -3.894  0.00  0.00    +0.083 A 
ATOM     26  C   UNL     1       0.028  -2.910  -2.982  0.00  0.00    +0.042 A 
ATOM     27 CL   UNL     1       0.072  -6.608  -4.552  0.00  0.00    -0.083 Cl
BRANCH  25  28
ATOM     28  C   UNL     1       0.041  -3.698  -5.343  0.00  0.00    +0.388 C 
ATOM     29  O   UNL     1       0.029  -2.544  -5.750  0.00  0.00    -0.241 OA
ATOM     30  O   UNL     1       0.050  -4.626  -6.139  0.00  0.00    -0.241 OA
ENDBRANCH  25  28
ENDBRANCH   4  21
TORSDOF 3
