REMARK  Name = ZINC67095353
REMARK  7 active torsions:
REMARK  status: ('A' for Active; 'I' for Inactive)
REMARK    1  A    between atoms: C_1  and  S_2
REMARK    2  A    between atoms: S_2  and  C_5
REMARK    3  A    between atoms: C_7  and  S_19
REMARK    4  A    between atoms: C_10  and  N_11
REMARK    5  A    between atoms: N_11  and  C_12
REMARK    6  A    between atoms: C_12  and  C_13
REMARK    7  A    between atoms: S_19  and  N_22
REMARK                            x       y       z     vdW  Elec       q    Type
REMARK                         _______ _______ _______ _____ _____    ______ ____
ROOT
ATOM      1  C   UNL     1       0.845  -0.437  -1.483  0.00  0.00    +0.110 A 
ATOM      2  C   UNL     1       2.060  -1.092  -1.423  0.00  0.00    +0.057 A 
ATOM      3  C   UNL     1       2.723  -1.432  -2.588  0.00  0.00    +0.107 A 
ATOM      4  C   UNL     1       2.172  -1.118  -3.817  0.00  0.00    +0.030 A 
ATOM      5  C   UNL     1       0.958  -0.464  -3.885  0.00  0.00    +0.027 A 
ATOM      6  C   UNL     1       0.287  -0.126  -2.716  0.00  0.00    +0.053 A 
ENDROOT
BRANCH   1   8
ATOM      7  C   UNL     1      -0.022   1.810   0.012  0.00  0.00    +0.200 C 
ATOM      8  S   UNL     1       0.002  -0.004   0.002  0.00  0.00    -0.004 S 
ATOM      9  O   UNL     1       0.835  -0.488   1.046  0.00  0.00    -0.170 OA
ATOM     10  O   UNL     1      -1.315  -0.510  -0.168  0.00  0.00    -0.170 OA
ENDBRANCH   1   8
BRANCH   3  11
ATOM     11  S   UNL     1       4.272  -2.267  -2.506  0.00  0.00    +0.056 S 
ATOM     12  O   UNL     1       4.949  -1.988  -3.724  0.00  0.00    -0.153 OA
ATOM     13  O   UNL     1       4.832  -1.960  -1.236  0.00  0.00    -0.153 OA
BRANCH  11  14
ATOM     14  N   UNL     1       3.954  -3.892  -2.503  0.00  0.00    -0.204 NA
ATOM     15  H   UNL     1       3.037  -4.206  -2.542  0.00  0.00    +0.144 HD
ATOM     16  H   UNL     1       4.684  -4.529  -2.462  0.00  0.00    +0.144 HD
ENDBRANCH  11  14
ENDBRANCH   3  11
BRANCH   6  17
ATOM     17  N   UNL     1      -0.944   0.531  -2.781  0.00  0.00    -0.338 N 
ATOM     18  H   UNL     1      -1.409   0.771  -1.964  0.00  0.00    +0.146 HD
BRANCH  17  19
ATOM     19  C   UNL     1      -1.531   0.860  -4.082  0.00  0.00    +0.144 C 
BRANCH  19  20
ATOM     20  C   UNL     1      -2.849   1.560  -3.876  0.00  0.00    +0.008 A 
ATOM     21  C   UNL     1      -3.101   2.886  -3.754  0.00  0.00    +0.014 A 
ATOM     22  C   UNL     1      -4.405   3.308  -3.569  0.00  0.00    +0.028 A 
ATOM     23  C   UNL     1      -5.393   2.380  -3.515  0.00  0.00    +0.078 A 
ATOM     24  S   UNL     1      -4.485   0.859  -3.736  0.00  0.00    -0.080 S 
ATOM     25 CL   UNL     1      -7.099   2.613  -3.294  0.00  0.00    -0.076 Cl
ENDBRANCH  19  20
ENDBRANCH  17  19
ENDBRANCH   6  17
TORSDOF 6
