REMARK  Name = ZINC09070989
REMARK  8 active torsions:
REMARK  status: ('A' for Active; 'I' for Inactive)
REMARK    1  A    between atoms: C_1  and  N_51
REMARK    2  A    between atoms: C_2  and  N_51
REMARK    3  A    between atoms: C_3  and  C_4
REMARK    4  A    between atoms: C_3  and  N_51
REMARK    5  A    between atoms: C_4  and  N_5
REMARK    6  A    between atoms: C_6  and  C_24
REMARK    7  A    between atoms: C_9  and  C_10
REMARK    8  A    between atoms: C_9  and  O_19
REMARK                            x       y       z     vdW  Elec       q    Type
REMARK                         _______ _______ _______ _____ _____    ______ ____
ROOT
ATOM      1  N   UNL     1       5.248  -3.136  -0.371  0.00  0.00    -0.285 N 
ATOM      2  C   UNL     1       3.805  -3.377  -0.277  0.00  0.00    +0.144 C 
ATOM      3  C   UNL     1       3.149  -2.022  -0.143  0.00  0.00    +0.074 C 
ATOM      4  C   UNL     1       1.793  -1.762  -0.024  0.00  0.00    +0.168 C 
ATOM      5  C   UNL     1       4.186  -1.081  -0.169  0.00  0.00    +0.249 C 
ATOM      6  O   UNL     1       4.057   0.128  -0.091  0.00  0.00    -0.282 OA
ATOM      7  C   UNL     1       5.474  -1.813  -0.306  0.00  0.00    +0.288 C 
ATOM      8  O   UNL     1       6.569  -1.291  -0.357  0.00  0.00    -0.266 OA
ENDROOT
BRANCH   4   9
ATOM      9  C   UNL     1       1.310  -0.382  -0.028  0.00  0.00    +0.171 A 
ATOM     10  C   UNL     1       0.280   0.090  -0.786  0.00  0.00    +0.061 A 
ATOM     11  C   UNL     1       0.146   1.468  -0.485  0.00  0.00    +0.021 A 
ATOM     12  C   UNL     1      -0.718   2.476  -0.928  0.00  0.00    +0.011 A 
ATOM     13  C   UNL     1      -0.589   3.744  -0.436  0.00  0.00    +0.001 A 
ATOM     14  C   UNL     1       0.387   4.038   0.507  0.00  0.00    +0.004 A 
ATOM     15  C   UNL     1       1.245   3.059   0.960  0.00  0.00    +0.047 A 
ATOM     16  C   UNL     1       1.136   1.763   0.471  0.00  0.00    +0.136 A 
ATOM     17  O   UNL     1       1.815   0.624   0.719  0.00  0.00    -0.452 OA
ENDBRANCH   4   9
BRANCH   2  18
ATOM     18  C   UNL     1       3.314  -4.067  -1.523  0.00  0.00    -0.022 A 
ATOM     19  C   UNL     1       3.822  -3.708  -2.757  0.00  0.00    +0.007 A 
ATOM     20  C   UNL     1       3.377  -4.345  -3.900  0.00  0.00    +0.020 A 
ATOM     21  C   UNL     1       2.413  -5.334  -3.810  0.00  0.00    +0.041 A 
ATOM     22  C   UNL     1       1.901  -5.689  -2.575  0.00  0.00    +0.020 A 
ATOM     23  C   UNL     1       2.352  -5.055  -1.432  0.00  0.00    +0.007 A 
ATOM     24 CL   UNL     1       1.848  -6.130  -5.245  0.00  0.00    -0.084 Cl
ENDBRANCH   2  18
BRANCH   4  25
ATOM     25  O   UNL     1       0.917  -2.784   0.096  0.00  0.00    -0.503 OA
ATOM     26  H   UNL     1      -0.011  -2.420   0.171  0.00  0.00    +0.292 HD
ENDBRANCH   4  25
BRANCH   1  27
ATOM     27  C   UNL     1       6.276  -4.170  -0.514  0.00  0.00    +0.090 C 
BRANCH  27  28
ATOM     28  C   UNL     1       6.525  -4.439  -1.999  0.00  0.00    -0.060 C 
BRANCH  28  31
ATOM     29  C   UNL     1       7.655  -5.931  -3.535  0.00  0.00    -0.097 C 
ATOM     30  C   UNL     1       8.855  -4.997  -1.652  0.00  0.00    -0.097 C 
ATOM     31  N   UNL     1       7.548  -5.498  -2.126  0.00  0.00    +0.377 N 
ATOM     32  H   UNL     1       7.270  -6.302  -1.551  0.00  0.00    -0.083 HD
ENDBRANCH  28  31
ENDBRANCH  27  28
ENDBRANCH   1  27
TORSDOF 6
