REMARK  Name = ZINC35363844
REMARK  9 active torsions:
REMARK  status: ('A' for Active; 'I' for Inactive)
REMARK    1  A    between atoms: C_1  and  C_2
REMARK    2  A    between atoms: C_4  and  C_37
REMARK    3  A    between atoms: C_13  and  C_16
REMARK    4  A    between atoms: C_16  and  C_18
REMARK    5  A    between atoms: C_16  and  O_19
REMARK    6  A    between atoms: N_22  and  C_25
REMARK    7  A    between atoms: C_25  and  C_26
REMARK    8  A    between atoms: C_31  and  O_32
REMARK    9  A    between atoms: O_32  and  C_33
REMARK                            x       y       z     vdW  Elec       q    Type
REMARK                         _______ _______ _______ _____ _____    ______ ____
ROOT
ATOM      1  C   UNL     1      -0.018   1.503   0.010  0.00  0.00    +0.044 C 
ATOM      2  C   UNL     1       0.002  -0.004   0.002  0.00  0.00    -0.050 A 
ATOM      3  C   UNL     1       0.006  -0.691  -1.199  0.00  0.00    +0.008 A 
ATOM      4  C   UNL     1       0.025  -2.070  -1.212  0.00  0.00    -0.029 A 
ATOM      5  C   UNL     1       0.041  -2.782  -0.015  0.00  0.00    +0.042 A 
ATOM      6  C   UNL     1       0.036  -2.081   1.187  0.00  0.00    +0.004 A 
ATOM      7  C   UNL     1       0.023  -0.704   1.195  0.00  0.00    +0.011 A 
ATOM      8  C   UNL     1       0.055  -3.122   2.269  0.00  0.00    +0.136 C 
ATOM      9  C   UNL     1      -1.169  -3.004   3.186  0.00  0.00    +0.123 C 
ATOM     10  C   UNL     1      -0.655  -2.220   4.426  0.00  0.00    +0.109 C 
ATOM     11  C   UNL     1       0.825  -1.915   4.116  0.00  0.00    +0.096 C 
ATOM     12  N   UNL     1       1.232  -2.974   3.145  0.00  0.00    -0.293 NA
ATOM     13  C   UNL     1      -0.749  -3.233   5.543  0.00  0.00    +0.228 C 
ATOM     14  O   UNL     1      -0.432  -3.035   6.697  0.00  0.00    -0.275 OA
ATOM     15  N   UNL     1      -1.236  -4.383   5.062  0.00  0.00    -0.237 N 
ATOM     16  C   UNL     1      -1.520  -4.367   3.739  0.00  0.00    +0.229 C 
ATOM     17  O   UNL     1      -1.979  -5.287   3.096  0.00  0.00    -0.275 OA
ATOM     18  C   UNL     1       0.072  -4.440   1.545  0.00  0.00    +0.243 C 
ATOM     19  O   UNL     1       0.091  -5.543   2.048  0.00  0.00    -0.273 OA
ATOM     20  N   UNL     1       0.061  -4.157   0.228  0.00  0.00    -0.283 N 
ATOM     21  C   UNL     1       0.028  -2.808  -2.526  0.00  0.00    +0.045 C 
ATOM     22  H   UNL     1       1.448  -3.842   3.611  0.00  0.00    +0.124 HD
ATOM     23  H   UNL     1       0.067  -4.830  -0.471  0.00  0.00    +0.155 HD
ENDROOT
BRANCH  11  24
ATOM     24  C   UNL     1       1.669  -2.025   5.388  0.00  0.00    +0.129 C 
ATOM     25  C   UNL     1       3.131  -1.719   5.059  0.00  0.00    +0.039 C 
BRANCH  24  26
ATOM     26  O   UNL     1       1.193  -1.089   6.358  0.00  0.00    -0.390 OA
ATOM     27  H   UNL     1       1.233  -0.168   6.068  0.00  0.00    +0.210 HD
ENDBRANCH  24  26
ENDBRANCH  11  24
BRANCH  15  28
ATOM     28  C   UNL     1      -1.452  -5.565   5.900  0.00  0.00    +0.155 C 
BRANCH  28  29
ATOM     29  C   UNL     1      -2.846  -5.529   6.470  0.00  0.00    +0.012 A 
ATOM     30  C   UNL     1      -3.053  -5.095   7.765  0.00  0.00    +0.009 A 
ATOM     31  C   UNL     1      -4.332  -5.063   8.289  0.00  0.00    +0.001 A 
ATOM     32  C   UNL     1      -5.407  -5.464   7.518  0.00  0.00    +0.004 A 
ATOM     33  C   UNL     1      -5.206  -5.899   6.222  0.00  0.00    +0.046 A 
ATOM     34  C   UNL     1      -3.924  -5.927   5.692  0.00  0.00    +0.125 A 
BRANCH  34  35
ATOM     35  O   UNL     1      -3.724  -6.349   4.416  0.00  0.00    -0.495 OA
ATOM     36  C   UNL     1      -4.880  -6.744   3.675  0.00  0.00    +0.277 C 
ENDBRANCH  34  35
ENDBRANCH  28  29
ENDBRANCH  15  28
TORSDOF 5
