REMARK  Name = ZINC39243325
REMARK  4 active torsions:
REMARK  status: ('A' for Active; 'I' for Inactive)
REMARK    1  A    between atoms: C_4  and  C_7
REMARK    2  A    between atoms: C_9  and  C_13
REMARK    3  A    between atoms: C_17  and  S_28
REMARK    4  A    between atoms: N_19  and  C_20
REMARK                            x       y       z     vdW  Elec       q    Type
REMARK                         _______ _______ _______ _____ _____    ______ ____
ROOT
ATOM      1  C   UNL     1       5.777  -3.010  -1.100  0.00  0.00    +0.188 C 
ATOM      2  N   UNL     1       5.144  -4.341  -1.239  0.00  0.00    -0.232 NA
ATOM      3  N   UNL     1       6.084  -5.108  -2.071  0.00  0.00    -0.226 NA
ATOM      4  C   UNL     1       7.411  -4.646  -1.588  0.00  0.00    +0.214 C 
ATOM      5  N   UNL     1       7.220  -3.204  -1.323  0.00  0.00    -0.286 N 
ATOM      6  H   UNL     1       5.019  -4.778  -0.338  0.00  0.00    +0.143 HD
ATOM      7  H   UNL     1       5.971  -6.100  -1.924  0.00  0.00    +0.143 HD
ENDROOT
BRANCH   5   8
ATOM      8  C   UNL     1       8.211  -2.220  -1.289  0.00  0.00    +0.036 A 
ATOM      9  C   UNL     1       9.184  -2.247  -0.299  0.00  0.00    +0.043 A 
ATOM     10  C   UNL     1      10.164  -1.272  -0.268  0.00  0.00    +0.044 A 
ATOM     11  C   UNL     1      10.177  -0.271  -1.224  0.00  0.00    +0.040 A 
ATOM     12  C   UNL     1       9.208  -0.243  -2.212  0.00  0.00    +0.044 A 
ATOM     13  C   UNL     1       8.229  -1.218  -2.250  0.00  0.00    +0.043 A 
ATOM     14 CL   UNL     1       9.227   1.015  -3.408  0.00  0.00    -0.083 Cl
ATOM     15 CL   UNL     1      11.381  -1.304   0.970  0.00  0.00    -0.083 Cl
ENDBRANCH   5   8
BRANCH   1  18
ATOM     16  C   UNL     1       3.841  -1.047   0.803  0.00  0.00    +0.091 C 
ATOM     17  C   UNL     1       4.045  -2.362   0.594  0.00  0.00    +0.034 C 
ATOM     18  C   UNL     1       5.533  -2.457   0.306  0.00  0.00    +0.189 C 
ATOM     19  N   UNL     1       5.984  -1.059   0.404  0.00  0.00    -0.176 NA
ATOM     20  N   UNL     1       5.005  -0.359   0.671  0.00  0.00    -0.154 NA
BRANCH  16  24
ATOM     21  C   UNL     1       0.079   0.706   1.728  0.00  0.00    +0.000 A 
ATOM     22  C   UNL     1       1.203   1.504   1.619  0.00  0.00    +0.001 A 
ATOM     23  C   UNL     1       2.426   0.941   1.319  0.00  0.00    +0.010 A 
ATOM     24  C   UNL     1       2.528  -0.436   1.127  0.00  0.00    +0.002 A 
ATOM     25  C   UNL     1       1.393  -1.236   1.238  0.00  0.00    +0.010 A 
ATOM     26  C   UNL     1       0.174  -0.661   1.539  0.00  0.00    +0.001 A 
ENDBRANCH  16  24
ENDBRANCH   1  18
BRANCH   4  27
ATOM     27  S   UNL     1       7.872  -5.519  -0.067  0.00  0.00    -0.139 S 
ATOM     28  H   UNL     1       7.930  -6.811  -0.438  0.00  0.00    +0.105 HD
ENDBRANCH   4  27
TORSDOF 4
