REMARK  Name = ZINC16751341
REMARK  11 active torsions:
REMARK  status: ('A' for Active; 'I' for Inactive)
REMARK    1  A    between atoms: C_1  and  C_2
REMARK    2  A    between atoms: C_2  and  O_3
REMARK    3  A    between atoms: O_3  and  C_4
REMARK    4  A    between atoms: C_7  and  C_12
REMARK    5  A    between atoms: C_9  and  O_10
REMARK    6  A    between atoms: O_10  and  C_11
REMARK    7  A    between atoms: C_19  and  C_32
REMARK    8  A    between atoms: C_21  and  C_31
REMARK    9  A    between atoms: N_27  and  C_28
REMARK   10  A    between atoms: C_28  and  C_29
REMARK   11  A    between atoms: C_29  and  O_30
REMARK                            x       y       z     vdW  Elec       q    Type
REMARK                         _______ _______ _______ _____ _____    ______ ____
ROOT
ATOM      1  C   UNL     1       4.460  -3.232  -0.005  0.00  0.00    +0.145 C 
ATOM      2  C   UNL     1       3.343  -2.222  -0.045  0.00  0.00    +0.072 A 
ATOM      3  C   UNL     1       3.328  -0.756  -0.051  0.00  0.00    +0.199 A 
ATOM      4  O   UNL     1       4.358  -0.106  -0.020  0.00  0.00    -0.287 OA
ATOM      5  C   UNL     1       2.003  -0.107  -0.096  0.00  0.00    +0.065 A 
ATOM      6  C   UNL     1       1.873   1.280  -0.106  0.00  0.00    +0.018 A 
ATOM      7  C   UNL     1       0.626   1.842  -0.149  0.00  0.00    -0.049 A 
ATOM      8  C   UNL     1      -0.504   1.038  -0.183  0.00  0.00    +0.010 A 
ATOM      9  C   UNL     1      -0.394  -0.336  -0.174  0.00  0.00    -0.007 A 
ATOM     10  C   UNL     1       0.864  -0.930  -0.130  0.00  0.00    +0.142 A 
ATOM     11  O   UNL     1       0.989  -2.269  -0.121  0.00  0.00    -0.449 OA
ATOM     12  C   UNL     1       2.175  -2.909  -0.081  0.00  0.00    +0.199 A 
ATOM     13  C   UNL     1       2.485  -4.360  -0.066  0.00  0.00    +0.283 C 
ATOM     14  O   UNL     1       1.657  -5.248  -0.090  0.00  0.00    -0.267 OA
ATOM     15  N   UNL     1       3.815  -4.550  -0.022  0.00  0.00    -0.281 N 
ATOM     16  C   UNL     1      -1.633  -1.193  -0.211  0.00  0.00    +0.047 C 
ATOM     17  C   UNL     1       0.480   3.342  -0.160  0.00  0.00    +0.044 C 
ENDROOT
BRANCH   1  21
ATOM     18  C   UNL     1       6.971  -2.781  -3.438  0.00  0.00    +0.162 A 
ATOM     19  C   UNL     1       5.692  -3.296  -3.575  0.00  0.00    +0.050 A 
ATOM     20  C   UNL     1       4.883  -3.441  -2.463  0.00  0.00    +0.009 A 
ATOM     21  C   UNL     1       5.347  -3.072  -1.214  0.00  0.00    -0.019 A 
ATOM     22  C   UNL     1       6.620  -2.553  -1.071  0.00  0.00    +0.055 A 
ATOM     23  C   UNL     1       7.438  -2.411  -2.181  0.00  0.00    +0.162 A 
BRANCH  23  24
ATOM     24  O   UNL     1       8.693  -1.905  -2.041  0.00  0.00    -0.491 OA
ATOM     25  C   UNL     1       9.105  -1.547  -0.721  0.00  0.00    +0.277 C 
ENDBRANCH  23  24
BRANCH  18  26
ATOM     26  O   UNL     1       7.768  -2.637  -4.530  0.00  0.00    -0.489 OA
BRANCH  26  28
ATOM     27  C   UNL     1       8.257  -2.803  -6.891  0.00  0.00    +0.048 C 
ATOM     28  C   UNL     1       7.222  -3.037  -5.789  0.00  0.00    +0.226 C 
ENDBRANCH  26  28
ENDBRANCH  18  26
ENDBRANCH   1  21
BRANCH  15  29
ATOM     29  C   UNL     1       4.500  -5.845   0.004  0.00  0.00    +0.137 C 
BRANCH  29  30
ATOM     30  C   UNL     1       4.811  -6.228   1.452  0.00  0.00    +0.175 C 
BRANCH  30  31
ATOM     31  O   UNL     1       3.589  -6.442   2.162  0.00  0.00    -0.393 OA
ATOM     32  H   UNL     1       3.710  -6.689   3.089  0.00  0.00    +0.209 HD
ENDBRANCH  30  31
ENDBRANCH  29  30
ENDBRANCH  15  29
TORSDOF 7
