REMARK  Name = ZINC02952249
REMARK  6 active torsions:
REMARK  status: ('A' for Active; 'I' for Inactive)
REMARK    1  A    between atoms: C_7  and  C_11
REMARK    2  A    between atoms: C_11  and  C_12
REMARK    3  A    between atoms: C_12  and  N_13
REMARK    4  A    between atoms: C_14  and  C_16
REMARK    5  A    between atoms: C_19  and  C_22
REMARK    6  A    between atoms: C_22  and  N_23
REMARK                            x       y       z     vdW  Elec       q    Type
REMARK                         _______ _______ _______ _____ _____    ______ ____
ROOT
ATOM      1  C   UNL     1      -2.536   2.700   4.060  0.00  0.00    +0.037 A 
ATOM      2  C   UNL     1      -1.756   3.651   3.401  0.00  0.00    +0.013 A 
ATOM      3  C   UNL     1      -1.361   3.432   2.097  0.00  0.00    +0.006 A 
ATOM      4  C   UNL     1      -1.737   2.272   1.443  0.00  0.00    -0.027 A 
ATOM      5  C   UNL     1      -2.514   1.327   2.089  0.00  0.00    +0.006 A 
ATOM      6  C   UNL     1      -2.912   1.532   3.395  0.00  0.00    +0.013 A 
ENDROOT
BRANCH   1   8
ATOM      7  N   UNL     1      -3.715   2.007   6.091  0.00  0.00    -0.311 N 
ATOM      8  C   UNL     1      -2.962   2.928   5.457  0.00  0.00    +0.244 C 
ATOM      9  O   UNL     1      -2.633   3.946   6.034  0.00  0.00    -0.270 OA
ATOM     10  H   UNL     1      -3.978   1.195   5.630  0.00  0.00    +0.149 HD
BRANCH   7  11
ATOM     11  C   UNL     1      -4.138   2.233   7.475  0.00  0.00    +0.109 C 
BRANCH  11  12
ATOM     12  C   UNL     1      -4.975   1.046   7.954  0.00  0.00    +0.056 C 
BRANCH  12  19
ATOM     13  C   UNL     1      -8.581   3.346   9.871  0.00  0.00    +0.001 A 
ATOM     14  C   UNL     1      -8.580   3.293  11.258  0.00  0.00    +0.002 A 
ATOM     15  C   UNL     1      -7.590   2.616  11.935  0.00  0.00    +0.026 A 
ATOM     16  C   UNL     1      -6.579   1.978  11.223  0.00  0.00    +0.047 A 
ATOM     17  C   UNL     1      -6.585   2.035   9.818  0.00  0.00    +0.003 A 
ATOM     18  C   UNL     1      -7.598   2.727   9.152  0.00  0.00    +0.010 A 
ATOM     19  C   UNL     1      -5.410   1.278   9.378  0.00  0.00    -0.021 A 
ATOM     20  C   UNL     1      -4.797   0.827  10.483  0.00  0.00    +0.087 A 
ATOM     21  N   UNL     1      -5.478   1.240  11.596  0.00  0.00    -0.360 N 
ATOM     22  H   UNL     1      -5.225   1.039  12.511  0.00  0.00    +0.165 HD
ENDBRANCH  12  19
ENDBRANCH  11  12
ENDBRANCH   7  11
ENDBRANCH   1   8
BRANCH   4  23
ATOM     23  C   UNL     1      -1.302   2.039   0.019  0.00  0.00    +0.165 C 
BRANCH  23  24
ATOM     24  N   UNL     1      -0.016   1.338   0.009  0.00  0.00    -0.256 N 
ATOM     25  C   UNL     1       1.129   2.055   0.002  0.00  0.00    +0.265 A 
ATOM     26  O   UNL     1       1.104   3.270   0.009  0.00  0.00    -0.267 OA
ATOM     27  C   UNL     1       2.409   1.325  -0.014  0.00  0.00    +0.063 A 
ATOM     28  C   UNL     1       3.632   1.992  -0.023  0.00  0.00    +0.015 A 
ATOM     29  C   UNL     1       4.803   1.263  -0.037  0.00  0.00    +0.001 A 
ATOM     30  C   UNL     1       4.767  -0.123  -0.044  0.00  0.00    +0.002 A 
ATOM     31  C   UNL     1       3.561  -0.796  -0.036  0.00  0.00    +0.026 A 
ATOM     32  C   UNL     1       2.374  -0.080  -0.021  0.00  0.00    +0.056 A 
ATOM     33  N   UNL     1       1.141  -0.717  -0.012  0.00  0.00    -0.307 N 
ATOM     34  H   UNL     1       1.100  -1.716  -0.017  0.00  0.00    +0.170 HD
ATOM     35  C   UNL     1       0.002  -0.004   0.002  0.00  0.00    +0.330 A 
ATOM     36  O   UNL     1      -1.057  -0.600   0.009  0.00  0.00    -0.246 OA
ENDBRANCH  23  24
ENDBRANCH   4  23
TORSDOF 6
