REMARK  Name = ZINC39932324
REMARK  10 active torsions:
REMARK  status: ('A' for Active; 'I' for Inactive)
REMARK    1  A    between atoms: C_1  and  C_2
REMARK    2  A    between atoms: C_2  and  N_3
REMARK    3  A    between atoms: C_4  and  C_28
REMARK    4  A    between atoms: C_8  and  S_9
REMARK    5  A    between atoms: S_9  and  C_10
REMARK    6  A    between atoms: C_10  and  C_12
REMARK    7  A    between atoms: C_10  and  C_13
REMARK    8  A    between atoms: C_18  and  C_23
REMARK    9  A    between atoms: C_28  and  C_29
REMARK   10  A    between atoms: C_29  and  C_30
REMARK                            x       y       z     vdW  Elec       q    Type
REMARK                         _______ _______ _______ _____ _____    ______ ____
ROOT
ATOM      1  C   UNL     1       4.797  -1.010  -0.804  0.00  0.00    +0.116 C 
ATOM      2  C   UNL     1       4.755  -2.495  -1.169  0.00  0.00    +0.027 C 
ENDROOT
BRANCH   1   3
ATOM      3  C   UNL     1       5.920  -0.763   0.171  0.00  0.00    +0.137 C 
ATOM      4  N   UNL     1       7.130  -0.557  -0.298  0.00  0.00    -0.160 NA
ATOM      5  C   UNL     1       8.171  -0.333   0.509  0.00  0.00    +0.272 C 
ATOM      6  O   UNL     1       9.288  -0.143   0.051  0.00  0.00    -0.268 OA
ATOM      7  C   UNL     1       7.938  -0.319   1.979  0.00  0.00    +0.076 C 
ATOM      8  C   UNL     1       8.879  -0.105   2.978  0.00  0.00    -0.009 C 
ATOM      9  C   UNL     1       8.372  -0.144   4.402  0.00  0.00    +0.113 C 
ATOM     10  S   UNL     1       6.585  -0.485   4.139  0.00  0.00    -0.100 S 
ATOM     11  C   UNL     1       6.591  -0.553   2.364  0.00  0.00    +0.112 C 
ATOM     12  N   UNL     1       5.651  -0.757   1.464  0.00  0.00    -0.226 NA
BRANCH   8  13
ATOM     13  C   UNL     1      10.225   0.133   2.682  0.00  0.00    +0.017 A 
ATOM     14  C   UNL     1      10.990   1.284   2.911  0.00  0.00    +0.016 A 
ATOM     15  C   UNL     1      12.295   1.215   2.507  0.00  0.00    +0.008 A 
ATOM     16  C   UNL     1      12.751   0.070   1.928  0.00  0.00    +0.046 A 
ATOM     17  S   UNL     1      11.418  -0.953   1.922  0.00  0.00    -0.097 S 
ENDBRANCH   8  13
ENDBRANCH   1   3
BRANCH   1  18
ATOM     18  S   UNL     1       3.221  -0.530  -0.044  0.00  0.00    -0.078 S 
BRANCH  18  23
ATOM     19  N   UNL     1       0.688  -0.476  -1.203  0.00  0.00    -0.289 N 
ATOM     20  C   UNL     1       0.073  -0.766  -2.510  0.00  0.00    +0.177 C 
ATOM     21  N   UNL     1       1.205  -1.201  -3.345  0.00  0.00    -0.246 N 
ATOM     22  N   UNL     1       2.339  -1.143  -2.526  0.00  0.00    -0.163 NA
ATOM     23  C   UNL     1       2.044  -0.733  -1.339  0.00  0.00    +0.176 C 
ATOM     24  H   UNL     1       1.172  -1.473  -4.276  0.00  0.00    +0.170 HD
BRANCH  19  26
ATOM     25  C   UNL     1      -0.019   1.526   0.010  0.00  0.00    +0.024 C 
ATOM     26  C   UNL     1       0.002  -0.004   0.002  0.00  0.00    +0.105 C 
ENDBRANCH  19  26
BRANCH  20  27
ATOM     27  C   UNL     1      -0.573   0.494  -3.090  0.00  0.00    +0.053 C 
BRANCH  27  28
ATOM     28  C   UNL     1      -1.310   0.141  -4.383  0.00  0.00    +0.099 C 
BRANCH  28  29
ATOM     29  C   UNL     1      -1.946   1.382  -4.955  0.00  0.00    +0.211 C 
ATOM     30  O   UNL     1      -1.822   2.445  -4.383  0.00  0.00    -0.276 OA
ATOM     31  N   UNL     1      -2.652   1.311  -6.100  0.00  0.00    -0.329 N 
ATOM     32  H   UNL     1      -2.751   0.461  -6.557  0.00  0.00    +0.145 HD
ATOM     33  H   UNL     1      -3.062   2.110  -6.468  0.00  0.00    +0.145 HD
ENDBRANCH  28  29
ENDBRANCH  27  28
ENDBRANCH  20  27
ENDBRANCH  18  23
ENDBRANCH   1  18
TORSDOF 8
