REMARK  Name = ZINC13280667
REMARK  8 active torsions:
REMARK  status: ('A' for Active; 'I' for Inactive)
REMARK    1  A    between atoms: C_1  and  C_2
REMARK    2  A    between atoms: C_2  and  C_4
REMARK    3  A    between atoms: C_2  and  S_18
REMARK    4  A    between atoms: N_6  and  C_7
REMARK    5  A    between atoms: S_18  and  C_19
REMARK    6  A    between atoms: C_22  and  C_27
REMARK    7  A    between atoms: N_23  and  C_24
REMARK    8  A    between atoms: C_24  and  C_25
REMARK                            x       y       z     vdW  Elec       q    Type
REMARK                         _______ _______ _______ _____ _____    ______ ____
ROOT
ATOM      1  S   UNL     1       2.988   3.420  -2.777  0.00  0.00    -0.074 S 
ENDROOT
BRANCH   1   2
ATOM      2  C   UNL     1       3.439   3.693  -1.096  0.00  0.00    +0.193 A 
ATOM      3  N   UNL     1       4.614   4.086  -0.657  0.00  0.00    -0.122 NA
ATOM      4  N   UNL     1       4.597   4.184   0.624  0.00  0.00    -0.128 NA
ATOM      5  C   UNL     1       3.408   3.866   1.082  0.00  0.00    +0.165 A 
ATOM      6  N   UNL     1       2.632   3.536  -0.005  0.00  0.00    -0.291 N 
BRANCH   5   7
ATOM      7  C   UNL     1       2.985   3.861   2.498  0.00  0.00    +0.019 A 
ATOM      8  C   UNL     1       3.700   4.595   3.446  0.00  0.00    +0.013 A 
ATOM      9  C   UNL     1       3.297   4.590   4.765  0.00  0.00    +0.021 A 
ATOM     10  C   UNL     1       2.193   3.849   5.152  0.00  0.00    +0.041 A 
ATOM     11  C   UNL     1       1.483   3.115   4.218  0.00  0.00    +0.021 A 
ATOM     12  C   UNL     1       1.873   3.116   2.894  0.00  0.00    +0.013 A 
ATOM     13 CL   UNL     1       1.696   3.843   6.816  0.00  0.00    -0.084 Cl
ENDBRANCH   5   7
BRANCH   6  14
ATOM     14  C   UNL     1       1.230   3.111   0.005  0.00  0.00    +0.250 C 
BRANCH  14  15
ATOM     15  C   UNL     1       1.162   1.606   0.061  0.00  0.00    +0.375 C 
ATOM     16  O   UNL     1       2.180   0.956   0.090  0.00  0.00    -0.244 OA
ATOM     17  O   UNL     1      -0.030   0.988   0.080  0.00  0.00    -0.244 OA
ENDBRANCH  14  15
ENDBRANCH   6  14
ENDBRANCH   1   2
BRANCH   1  19
ATOM     18  C   UNL     1       5.622   2.819  -3.178  0.00  0.00    +0.029 C 
ATOM     19  C   UNL     1       4.551   3.830  -3.592  0.00  0.00    +0.137 C 
BRANCH  19  20
ATOM     20  C   UNL     1       4.366   3.783  -5.087  0.00  0.00    +0.227 C 
ATOM     21  O   UNL     1       3.436   3.168  -5.563  0.00  0.00    -0.275 OA
ATOM     22  N   UNL     1       5.235   4.423  -5.894  0.00  0.00    -0.308 N 
ATOM     23  H   UNL     1       5.979   4.915  -5.513  0.00  0.00    +0.149 HD
BRANCH  22  24
ATOM     24  C   UNL     1       5.055   4.377  -7.347  0.00  0.00    +0.103 C 
ATOM     25  C   UNL     1       5.713   5.604  -7.975  0.00  0.00    +0.027 C 
ATOM     26  C   UNL     1       5.704   5.430  -9.499  0.00  0.00    +0.007 C 
ATOM     27  C   UNL     1       6.686   4.318  -9.863  0.00  0.00    +0.035 C 
ATOM     28  C   UNL     1       6.417   3.084  -9.041  0.00  0.00    -0.042 A 
ATOM     29  C   UNL     1       5.671   3.112  -7.884  0.00  0.00    -0.024 A 
ATOM     30  C   UNL     1       5.466   1.939  -7.170  0.00  0.00    +0.006 A 
ATOM     31  C   UNL     1       6.001   0.746  -7.612  0.00  0.00    +0.000 A 
ATOM     32  C   UNL     1       6.747   0.718  -8.775  0.00  0.00    +0.000 A 
ATOM     33  C   UNL     1       6.952   1.882  -9.486  0.00  0.00    +0.004 A 
ENDBRANCH  22  24
ENDBRANCH  19  20
ENDBRANCH   1  19
TORSDOF 7
