REMARK  Name = ZINC22684622
REMARK  13 active torsions:
REMARK  status: ('A' for Active; 'I' for Inactive)
REMARK    1  A    between atoms: C_1  and  C_2
REMARK    2  A    between atoms: C_2  and  C_3
REMARK    3  A    between atoms: C_6  and  C_9
REMARK    4  A    between atoms: C_9  and  C_11
REMARK    5  A    between atoms: C_9  and  N_28
REMARK    6  A    between atoms: C_11  and  N_12
REMARK    7  A    between atoms: C_13  and  C_15
REMARK    8  A    between atoms: C_15  and  C_16
REMARK    9  A    between atoms: C_16  and  N_17
REMARK   10  A    between atoms: N_20  and  C_21
REMARK   11  A    between atoms: C_21  and  C_22
REMARK   12  A    between atoms: N_28  and  C_29
REMARK   13  A    between atoms: N_28  and  C_30
REMARK                            x       y       z     vdW  Elec       q    Type
REMARK                         _______ _______ _______ _____ _____    ______ ____
ROOT
ATOM      1  N   UNL     1      -1.584   3.214  -0.736  0.00  0.00    -0.316 N 
ATOM      2  C   UNL     1      -2.547   3.679  -1.556  0.00  0.00    +0.214 C 
ATOM      3  O   UNL     1      -3.058   2.940  -2.371  0.00  0.00    -0.276 OA
ATOM      4  H   UNL     1      -1.121   3.885   0.003  0.00  0.00    +0.149 HD
ENDROOT
BRANCH   1   5
ATOM      5  C   UNL     1      -1.155   1.817  -0.828  0.00  0.00    +0.093 C 
BRANCH   5   6
ATOM      6  C   UNL     1       0.017   1.579   0.127  0.00  0.00    -0.021 C 
BRANCH   6  10
ATOM      7  C   UNL     1       1.193  -2.523  -0.053  0.00  0.00    -0.048 A 
ATOM      8  C   UNL     1       2.020  -1.544  -0.572  0.00  0.00    +0.004 A 
ATOM      9  C   UNL     1       1.639  -0.216  -0.514  0.00  0.00    +0.002 A 
ATOM     10  C   UNL     1       0.432   0.132   0.063  0.00  0.00    -0.059 A 
ATOM     11  C   UNL     1      -0.392  -0.847   0.586  0.00  0.00    +0.002 A 
ATOM     12  C   UNL     1      -0.014  -2.175   0.523  0.00  0.00    +0.004 A 
BRANCH   7  14
ATOM     13  C   UNL     1       2.398  -4.330   1.144  0.00  0.00    +0.009 C 
ATOM     14  C   UNL     1       1.609  -3.970  -0.117  0.00  0.00    +0.032 C 
ENDBRANCH   7  14
ENDBRANCH   6  10
BRANCH   6  15
ATOM     15  N   UNL     1      -0.393   1.911   1.498  0.00  0.00    +0.382 N 
ATOM     16  C   UNL     1      -1.838   1.715   1.677  0.00  0.00    -0.096 C 
ATOM     17  C   UNL     1       0.370   1.129   2.480  0.00  0.00    -0.096 C 
ATOM     18  H   UNL     1      -0.172   2.975   1.669  0.00  0.00    -0.082 HD
ENDBRANCH   6  15
ENDBRANCH   5   6
ENDBRANCH   1   5
BRANCH   2  19
ATOM     19  C   UNL     1      -2.989   5.117  -1.461  0.00  0.00    +0.114 C 
BRANCH  19  20
ATOM     20  C   UNL     1      -4.085   5.383  -2.496  0.00  0.00    +0.115 C 
BRANCH  20  21
ATOM     21  N   UNL     1      -4.514   6.780  -2.404  0.00  0.00    -0.299 N 
ATOM     22  C   UNL     1      -5.477   7.245  -3.224  0.00  0.00    +0.300 C 
ATOM     23  O   UNL     1      -5.989   6.504  -4.041  0.00  0.00    -0.253 OA
ATOM     24  N   UNL     1      -5.872   8.530  -3.139  0.00  0.00    -0.295 N 
ATOM     25  H   UNL     1      -4.051   7.450  -1.665  0.00  0.00    +0.150 HD
ATOM     26  H   UNL     1      -5.409   9.201  -2.401  0.00  0.00    +0.151 HD
BRANCH  24  27
ATOM     27  C   UNL     1      -6.919   9.035  -4.031  0.00  0.00    +0.141 C 
BRANCH  27  28
ATOM     28  C   UNL     1      -7.173  10.491  -3.735  0.00  0.00    -0.030 A 
ATOM     29  C   UNL     1      -8.126  10.850  -2.800  0.00  0.00    +0.005 A 
ATOM     30  C   UNL     1      -8.356  12.185  -2.524  0.00  0.00    +0.000 A 
ATOM     31  C   UNL     1      -7.639  13.161  -3.190  0.00  0.00    +0.000 A 
ATOM     32  C   UNL     1      -6.690  12.802  -4.129  0.00  0.00    +0.000 A 
ATOM     33  C   UNL     1      -6.457  11.467  -4.401  0.00  0.00    +0.005 A 
ENDBRANCH  27  28
ENDBRANCH  24  27
ENDBRANCH  20  21
ENDBRANCH  19  20
ENDBRANCH   2  19
TORSDOF 10
