REMARK  Name = ZINC35013094
REMARK  6 active torsions:
REMARK  status: ('A' for Active; 'I' for Inactive)
REMARK    1  A    between atoms: C_1  and  C_2
REMARK    2  A    between atoms: C_4  and  C_9
REMARK    3  A    between atoms: C_7  and  O_8
REMARK    4  A    between atoms: C_12  and  C_15
REMARK    5  A    between atoms: C_19  and  N_21
REMARK    6  A    between atoms: C_24  and  C_26
REMARK                            x       y       z     vdW  Elec       q    Type
REMARK                         _______ _______ _______ _____ _____    ______ ____
ROOT
ATOM      1  C   UNL     1      -0.024  -2.821  -2.481  0.00  0.00    +0.069 C 
ATOM      2  N   UNL     1      -0.014  -2.277  -3.649  0.00  0.00    -0.181 NA
ATOM      3  N   UNL     1       0.008  -3.189  -4.702  0.00  0.00    -0.181 N 
ATOM      4  C   UNL     1       0.014  -4.553  -4.150  0.00  0.00    +0.137 C 
ATOM      5  C   UNL     1      -0.002  -4.326  -2.625  0.00  0.00    +0.087 C 
ATOM      6  C   UNL     1       0.021  -2.873  -6.012  0.00  0.00    +0.266 C 
ATOM      7  O   UNL     1       0.136  -3.749  -6.847  0.00  0.00    -0.268 OA
ENDROOT
BRANCH   1  11
ATOM      8  C   UNL     1      -0.107   1.494   0.015  0.00  0.00    +0.047 C 
ATOM      9  C   UNL     1      -0.087  -0.013   0.005  0.00  0.00    -0.008 A 
ATOM     10  C   UNL     1      -0.065  -0.692  -1.194  0.00  0.00    +0.016 A 
ATOM     11  C   UNL     1      -0.046  -2.090  -1.202  0.00  0.00    -0.002 A 
ATOM     12  C   UNL     1      -0.049  -2.791   0.007  0.00  0.00    +0.013 A 
ATOM     13  C   UNL     1      -0.070  -2.103   1.201  0.00  0.00    +0.046 A 
ATOM     14  C   UNL     1      -0.083  -0.714   1.204  0.00  0.00    +0.120 A 
BRANCH  14  15
ATOM     15  O   UNL     1      -0.098  -0.040   2.383  0.00  0.00    -0.507 OA
ATOM     16  H   UNL     1      -0.986   0.144   2.720  0.00  0.00    +0.292 HD
ENDBRANCH  14  15
ENDBRANCH   1  11
BRANCH   4  17
ATOM     17  C   UNL     1      -1.211  -5.310  -4.594  0.00  0.00    -0.023 A 
ATOM     18  C   UNL     1      -2.430  -4.664  -4.680  0.00  0.00    +0.005 A 
ATOM     19  C   UNL     1      -3.554  -5.358  -5.087  0.00  0.00    +0.003 A 
ATOM     20  C   UNL     1      -3.458  -6.700  -5.409  0.00  0.00    +0.033 A 
ATOM     21  C   UNL     1      -2.239  -7.346  -5.324  0.00  0.00    +0.127 A 
ATOM     22  C   UNL     1      -1.115  -6.650  -4.921  0.00  0.00    +0.038 A 
BRANCH  21  23
ATOM     23  N   UNL     1      -2.137  -8.782  -5.668  0.00  0.00    +0.056 N 
ATOM     24  O   UNL     1      -3.120  -9.389  -6.024  0.00  0.00    -0.126 OA
ATOM     25  O   UNL     1      -1.071  -9.347  -5.594  0.00  0.00    -0.126 OA
ENDBRANCH  21  23
ENDBRANCH   4  17
BRANCH   6  26
ATOM     26  C   UNL     1      -0.105  -1.460  -6.435  0.00  0.00    +0.041 A 
ATOM     27  C   UNL     1      -0.109  -0.426  -5.493  0.00  0.00    +0.033 A 
ATOM     28  C   UNL     1      -0.229   0.879  -5.931  0.00  0.00    +0.111 A 
ATOM     29  N   UNL     1      -0.338   1.154  -7.216  0.00  0.00    -0.263 NA
ATOM     30  C   UNL     1      -0.339   0.210  -8.136  0.00  0.00    +0.111 A 
ATOM     31  C   UNL     1      -0.218  -1.121  -7.787  0.00  0.00    +0.033 A 
ENDBRANCH   6  26
TORSDOF 5
