REMARK  Name = ZINC37545891
REMARK  6 active torsions:
REMARK  status: ('A' for Active; 'I' for Inactive)
REMARK    1  A    between atoms: C_4  and  C_7
REMARK    2  A    between atoms: C_7  and  N_8
REMARK    3  A    between atoms: C_9  and  C_11
REMARK    4  A    between atoms: C_15  and  C_29
REMARK    5  A    between atoms: N_21  and  C_22
REMARK    6  A    between atoms: C_22  and  C_23
REMARK                            x       y       z     vdW  Elec       q    Type
REMARK                         _______ _______ _______ _____ _____    ______ ____
ROOT
ATOM      1  C   UNL     1       5.835  -1.043   3.298  0.00  0.00    +0.092 C 
ATOM      2  C   UNL     1       6.888  -2.069   2.876  0.00  0.00    +0.016 C 
ATOM      3  C   UNL     1       7.982  -1.375   2.062  0.00  0.00    +0.028 C 
ATOM      4  C   UNL     1       8.663  -0.312   2.930  0.00  0.00    +0.108 C 
ATOM      5  N   UNL     1       7.636   0.596   3.458  0.00  0.00    -0.278 N 
ATOM      6  C   UNL     1       6.490   0.024   4.181  0.00  0.00    +0.122 C 
ATOM      7  C   UNL     1       7.742   1.928   3.285  0.00  0.00    +0.303 C 
ATOM      8  O   UNL     1       8.634   2.382   2.595  0.00  0.00    -0.253 OA
ATOM      9  N   UNL     1       6.858   2.757   3.875  0.00  0.00    -0.295 N 
ATOM     10  H   UNL     1       6.189   2.401   4.480  0.00  0.00    +0.151 HD
ENDROOT
BRANCH   4  11
ATOM     11  C   UNL     1       9.649   0.466   2.097  0.00  0.00    -0.027 A 
ATOM     12  C   UNL     1       9.207   1.211   1.020  0.00  0.00    +0.005 A 
ATOM     13  C   UNL     1      10.111   1.925   0.256  0.00  0.00    +0.000 A 
ATOM     14  C   UNL     1      11.457   1.893   0.569  0.00  0.00    +0.000 A 
ATOM     15  C   UNL     1      11.899   1.148   1.647  0.00  0.00    +0.000 A 
ATOM     16  C   UNL     1      10.994   0.438   2.414  0.00  0.00    +0.005 A 
ENDBRANCH   4  11
BRANCH   1  18
ATOM     17  N   UNL     1       4.221   0.473   2.193  0.00  0.00    -0.311 N 
ATOM     18  C   UNL     1       5.249  -0.391   2.072  0.00  0.00    +0.218 C 
ATOM     19  O   UNL     1       5.703  -0.642   0.976  0.00  0.00    -0.275 OA
ATOM     20  H   UNL     1       3.897   0.719   3.073  0.00  0.00    +0.149 HD
BRANCH  17  21
ATOM     21  C   UNL     1       3.594   1.038   0.996  0.00  0.00    +0.139 C 
BRANCH  21  25
ATOM     22  C   UNL     1       0.601   3.858   2.151  0.00  0.00    +0.000 A 
ATOM     23  C   UNL     1       1.911   4.267   1.994  0.00  0.00    +0.000 A 
ATOM     24  C   UNL     1       2.880   3.355   1.621  0.00  0.00    +0.005 A 
ATOM     25  C   UNL     1       2.538   2.033   1.405  0.00  0.00    -0.030 A 
ATOM     26  C   UNL     1       1.227   1.623   1.562  0.00  0.00    +0.005 A 
ATOM     27  C   UNL     1       0.258   2.536   1.935  0.00  0.00    +0.000 A 
ENDBRANCH  21  25
ENDBRANCH  17  21
ENDBRANCH   1  18
BRANCH   9  28
ATOM     28  C   UNL     1       6.910   4.196   3.604  0.00  0.00    +0.141 C 
BRANCH  28  29
ATOM     29  C   UNL     1       5.917   4.909   4.485  0.00  0.00    -0.030 A 
ATOM     30  C   UNL     1       4.599   5.030   4.085  0.00  0.00    +0.005 A 
ATOM     31  C   UNL     1       3.688   5.684   4.893  0.00  0.00    +0.000 A 
ATOM     32  C   UNL     1       4.095   6.217   6.102  0.00  0.00    +0.000 A 
ATOM     33  C   UNL     1       5.412   6.095   6.503  0.00  0.00    +0.000 A 
ATOM     34  C   UNL     1       6.322   5.437   5.697  0.00  0.00    +0.005 A 
ENDBRANCH  28  29
ENDBRANCH   9  28
TORSDOF 6
