REMARK  Name = ZINC65406448
REMARK  6 active torsions:
REMARK  status: ('A' for Active; 'I' for Inactive)
REMARK    1  A    between atoms: C_1  and  C_2
REMARK    2  A    between atoms: C_3  and  C_22
REMARK    3  A    between atoms: C_7  and  N_8
REMARK    4  A    between atoms: N_8  and  C_9
REMARK    5  A    between atoms: C_9  and  C_10
REMARK    6  A    between atoms: C_10  and  N_11
REMARK                            x       y       z     vdW  Elec       q    Type
REMARK                         _______ _______ _______ _____ _____    ______ ____
ROOT
ATOM      1  C   UNL     1      -0.018   1.503   0.010  0.00  0.00    +0.049 C 
ATOM      2  C   UNL     1       0.002  -0.004   0.002  0.00  0.00    +0.008 A 
ATOM      3  C   UNL     1       0.006  -0.704  -1.189  0.00  0.00    +0.022 A 
ATOM      4  N   UNL     1       0.025  -2.028  -1.162  0.00  0.00    -0.331 N 
ATOM      5  C   UNL     1       0.039  -2.686  -0.012  0.00  0.00    +0.197 A 
ATOM      6  N   UNL     1       0.035  -2.053   1.151  0.00  0.00    -0.201 NA
ATOM      7  C   UNL     1       0.023  -0.725   1.198  0.00  0.00    +0.127 A 
ATOM      8  N   UNL     1       0.058  -4.070  -0.027  0.00  0.00    -0.301 N 
ATOM      9  C   UNL     1       0.070  -4.914  -1.231  0.00  0.00    +0.108 C 
ATOM     10  C   UNL     1       0.063  -6.384  -0.760  0.00  0.00    +0.020 C 
ATOM     11  C   UNL     1      -0.524  -6.287   0.673  0.00  0.00    +0.020 C 
ATOM     12  C   UNL     1       0.075  -4.942   1.162  0.00  0.00    +0.108 C 
ATOM     13  C   UNL     1      -0.011   0.031  -2.504  0.00  0.00    +0.064 C 
ATOM     14  H   UNL     1       0.028  -2.523  -1.996  0.00  0.00    +0.168 HD
ENDROOT
BRANCH   7  15
ATOM     15  N   UNL     1       0.025  -0.065   2.416  0.00  0.00    -0.327 N 
ATOM     16  H   UNL     1       0.012   0.905   2.442  0.00  0.00    +0.148 HD
BRANCH  15  17
ATOM     17  C   UNL     1       0.048  -0.831   3.664  0.00  0.00    +0.122 C 
BRANCH  17  18
ATOM     18  C   UNL     1       0.045   0.131   4.854  0.00  0.00    +0.130 C 
BRANCH  18  19
ATOM     19  N   UNL     1       0.067  -0.635   6.102  0.00  0.00    -0.263 N 
ATOM     20  C   UNL     1      -1.112  -1.112   6.852  0.00  0.00    +0.152 C 
ATOM     21  C   UNL     1      -0.488  -2.146   7.819  0.00  0.00    +0.253 C 
ATOM     22  O   UNL     1       0.877  -1.692   7.905  0.00  0.00    -0.449 OA
ATOM     23  C   UNL     1       1.167  -1.036   6.768  0.00  0.00    +0.403 C 
ATOM     24  O   UNL     1       2.300  -0.824   6.384  0.00  0.00    -0.226 OA
ENDBRANCH  18  19
ENDBRANCH  17  18
ENDBRANCH  15  17
ENDBRANCH   7  15
TORSDOF 4
