REMARK  Name = ZINC08946572
REMARK  10 active torsions:
REMARK  status: ('A' for Active; 'I' for Inactive)
REMARK    1  A    between atoms: C_1  and  C_2
REMARK    2  A    between atoms: C_2  and  N_9
REMARK    3  A    between atoms: C_10  and  C_12
REMARK    4  A    between atoms: C_12  and  N_13
REMARK    5  A    between atoms: C_16  and  C_20
REMARK    6  A    between atoms: C_16  and  C_21
REMARK    7  A    between atoms: C_24  and  C_27
REMARK    8  A    between atoms: C_27  and  C_28
REMARK    9  A    between atoms: C_27  and  C_29
REMARK   10  A    between atoms: C_27  and  C_30
REMARK                            x       y       z     vdW  Elec       q    Type
REMARK                         _______ _______ _______ _____ _____    ______ ____
ROOT
ATOM      1  N   UNL     1      -3.960   3.934  -1.753  0.00  0.00    -0.215 N 
ATOM      2  C   UNL     1      -3.597   3.111  -0.750  0.00  0.00    +0.251 C 
ATOM      3  O   UNL     1      -4.018   1.995  -0.529  0.00  0.00    -0.272 OA
ATOM      4  C   UNL     1      -2.553   3.869   0.045  0.00  0.00    +0.135 C 
ATOM      5  N   UNL     1      -2.438   5.152  -0.669  0.00  0.00    -0.281 N 
ATOM      6  C   UNL     1      -3.297   5.095  -1.702  0.00  0.00    +0.310 C 
ATOM      7  O   UNL     1      -3.453   5.998  -2.501  0.00  0.00    -0.252 OA
ATOM      8  C   UNL     1      -3.025   4.094   1.483  0.00  0.00    +0.047 C 
ATOM      9  H   UNL     1      -1.856   5.893  -0.439  0.00  0.00    +0.152 HD
ENDROOT
BRANCH   4  10
ATOM     10  C   UNL     1      -1.238   3.133   0.030  0.00  0.00    -0.015 A 
ATOM     11  C   UNL     1      -1.219   1.751   0.017  0.00  0.00    +0.006 A 
ATOM     12  C   UNL     1      -0.013   1.076   0.008  0.00  0.00    +0.004 A 
ATOM     13  C   UNL     1       1.175   1.783   0.000  0.00  0.00    -0.042 A 
ATOM     14  C   UNL     1       1.156   3.165   0.008  0.00  0.00    +0.004 A 
ATOM     15  C   UNL     1      -0.050   3.840   0.022  0.00  0.00    +0.006 A 
BRANCH  13  16
ATOM     16  C   UNL     1       2.490   1.048  -0.016  0.00  0.00    -0.013 C 
ATOM     17  C   UNL     1       2.571   0.176  -1.271  0.00  0.00    +0.015 C 
ATOM     18  C   UNL     1       3.639   2.058  -0.022  0.00  0.00    +0.015 C 
ATOM     19  C   UNL     1       2.595   0.162   1.227  0.00  0.00    +0.015 C 
ENDBRANCH  13  16
ENDBRANCH   4  10
BRANCH   1  20
ATOM     20  C   UNL     1      -4.957   3.599  -2.773  0.00  0.00    +0.213 C 
BRANCH  20  22
ATOM     21  N   UNL     1      -5.000   2.538  -5.007  0.00  0.00    -0.307 N 
ATOM     22  C   UNL     1      -4.276   2.936  -3.942  0.00  0.00    +0.231 C 
ATOM     23  O   UNL     1      -3.076   2.761  -3.925  0.00  0.00    -0.274 OA
ATOM     24  H   UNL     1      -5.960   2.679  -5.021  0.00  0.00    +0.149 HD
BRANCH  21  26
ATOM     25  C   UNL     1      -3.690   0.595  -5.660  0.00  0.00    +0.033 C 
ATOM     26  C   UNL     1      -4.338   1.894  -6.144  0.00  0.00    +0.053 C 
ATOM     27  C   UNL     1      -3.240   2.821  -6.661  0.00  0.00    +0.049 C 
ATOM     28  C   UNL     1      -3.002   2.581  -8.178  0.00  0.00    +0.168 C 
ATOM     29  S   UNL     1      -4.748   2.347  -8.730  0.00  0.00    -0.029 S 
ATOM     30  O   UNL     1      -4.779   1.409  -9.797  0.00  0.00    -0.174 OA
ATOM     31  O   UNL     1      -5.362   3.618  -8.893  0.00  0.00    -0.174 OA
ATOM     32  C   UNL     1      -5.402   1.550  -7.205  0.00  0.00    +0.191 C 
ENDBRANCH  21  26
ENDBRANCH  20  22
ENDBRANCH   1  20
TORSDOF 5
