REMARK  Name = ZINC39775121
REMARK  12 active torsions:
REMARK  status: ('A' for Active; 'I' for Inactive)
REMARK    1  A    between atoms: C_1  and  C_2
REMARK    2  A    between atoms: N_16  and  N_17
REMARK    3  A    between atoms: C_18  and  C_19
REMARK    4  A    between atoms: C_21  and  C_30
REMARK    5  A    between atoms: C_22  and  O_29
REMARK    6  A    between atoms: C_23  and  C_25
REMARK    7  A    between atoms: C_25  and  C_26
REMARK    8  A    between atoms: C_25  and  C_27
REMARK    9  A    between atoms: C_25  and  C_28
REMARK   10  A    between atoms: C_30  and  C_31
REMARK   11  A    between atoms: C_30  and  C_32
REMARK   12  A    between atoms: C_30  and  C_33
REMARK                            x       y       z     vdW  Elec       q    Type
REMARK                         _______ _______ _______ _____ _____    ______ ____
ROOT
ATOM      1  C   UNL     1      -0.018   1.503   0.010  0.00  0.00    +0.046 C 
ATOM      2  C   UNL     1       0.002  -0.004   0.002  0.00  0.00    -0.027 A 
ATOM      3  C   UNL     1       0.006  -0.681  -1.168  0.00  0.00    +0.005 A 
ATOM      4  C   UNL     1       0.027  -2.082  -1.210  0.00  0.00    +0.001 A 
ATOM      5  C   UNL     1       0.015  -2.841  -0.090  0.00  0.00    +0.012 A 
ATOM      6  C   UNL     1      -0.021  -2.237   1.187  0.00  0.00    +0.025 A 
ATOM      7  C   UNL     1      -0.158  -2.716   2.465  0.00  0.00    +0.115 C 
ATOM      8  C   UNL     1       0.145  -1.530   3.374  0.00  0.00    +0.229 C 
ATOM      9  N   UNL     1       0.051  -0.358   2.514  0.00  0.00    -0.359 N 
ATOM     10  C   UNL     1       0.024  -0.753   1.264  0.00  0.00    +0.049 A 
ATOM     11  N   UNL     1      -0.854  -1.575   4.444  0.00  0.00    -0.330 N 
ATOM     12  C   UNL     1      -1.363  -2.737   4.766  0.00  0.00    +0.230 C 
ATOM     13  N   UNL     1      -1.062  -3.894   4.130  0.00  0.00    -0.113 NA
ATOM     14  N   UNL     1      -0.489  -3.905   2.971  0.00  0.00    -0.146 NA
ATOM     15  N   UNL     1      -2.259  -2.786   5.816  0.00  0.00    -0.206 N 
ATOM     16  H   UNL     1      -2.494  -1.974   6.291  0.00  0.00    +0.177 HD
ATOM     17  H   UNL     1       0.018   0.563   2.817  0.00  0.00    +0.162 HD
ATOM     18  H   UNL     1      -1.131  -0.765   4.901  0.00  0.00    +0.165 HD
ENDROOT
BRANCH  15  19
ATOM     19  N   UNL     1      -2.828  -4.009   6.194  0.00  0.00    -0.188 NA
ATOM     20  C   UNL     1      -3.670  -4.056   7.181  0.00  0.00    +0.138 C 
BRANCH  20  21
ATOM     21  C   UNL     1      -4.269  -5.342   7.580  0.00  0.00    -0.005 A 
ATOM     22  C   UNL     1      -3.927  -6.514   6.900  0.00  0.00    +0.017 A 
ATOM     23  C   UNL     1      -4.489  -7.715   7.276  0.00  0.00    +0.000 A 
ATOM     24  C   UNL     1      -5.394  -7.761   8.329  0.00  0.00    +0.124 A 
ATOM     25  C   UNL     1      -5.737  -6.599   9.007  0.00  0.00    +0.000 A 
ATOM     26  C   UNL     1      -5.176  -5.394   8.642  0.00  0.00    +0.017 A 
BRANCH  25  27
ATOM     27  C   UNL     1      -6.719  -6.655  10.149  0.00  0.00    -0.009 C 
ATOM     28  C   UNL     1      -6.920  -5.250  10.719  0.00  0.00    +0.015 C 
ATOM     29  C   UNL     1      -8.058  -7.197   9.643  0.00  0.00    +0.015 C 
ATOM     30  C   UNL     1      -6.177  -7.577  11.243  0.00  0.00    +0.015 C 
ENDBRANCH  25  27
BRANCH  23  31
ATOM     31  C   UNL     1      -4.122  -8.980   6.544  0.00  0.00    -0.009 C 
ATOM     32  C   UNL     1      -3.116  -8.655   5.438  0.00  0.00    +0.015 C 
ATOM     33  C   UNL     1      -3.498  -9.974   7.525  0.00  0.00    +0.015 C 
ATOM     34  C   UNL     1      -5.379  -9.595   5.925  0.00  0.00    +0.015 C 
ENDBRANCH  23  31
BRANCH  24  35
ATOM     35  O   UNL     1      -5.947  -8.947   8.695  0.00  0.00    -0.506 OA
ATOM     36  H   UNL     1      -5.441  -9.425   9.367  0.00  0.00    +0.292 HD
ENDBRANCH  24  35
ENDBRANCH  20  21
ENDBRANCH  15  19
TORSDOF 5
