REMARK  Name = ZINC09325584
REMARK  8 active torsions:
REMARK  status: ('A' for Active; 'I' for Inactive)
REMARK    1  A    between atoms: C_1  and  C_2
REMARK    2  A    between atoms: C_2  and  O_3
REMARK    3  A    between atoms: O_3  and  C_4
REMARK    4  A    between atoms: C_7  and  C_9
REMARK    5  A    between atoms: C_13  and  N_14
REMARK    6  A    between atoms: C_15  and  C_17
REMARK    7  A    between atoms: C_27  and  O_29
REMARK    8  A    between atoms: O_29  and  C_30
REMARK                            x       y       z     vdW  Elec       q    Type
REMARK                         _______ _______ _______ _____ _____    ______ ____
ROOT
ATOM      1  C   UNL     1      -4.239  -4.284   0.019  0.00  0.00    +0.069 A 
ATOM      2  C   UNL     1      -4.945  -4.581  -1.216  0.00  0.00    -0.020 A 
ATOM      3  C   UNL     1      -6.173  -5.112  -1.034  0.00  0.00    +0.013 A 
ATOM      4  S   UNL     1      -6.371  -5.203   0.720  0.00  0.00    -0.076 S 
ATOM      5  C   UNL     1      -4.891  -4.576   1.208  0.00  0.00    +0.084 A 
ATOM      6  C   UNL     1      -7.136  -5.528  -2.105  0.00  0.00    +0.153 C 
ATOM      7  N   UNL     1      -6.599  -5.033  -3.388  0.00  0.00    -0.262 N 
ATOM      8  C   UNL     1      -5.154  -5.175  -3.622  0.00  0.00    +0.116 C 
ATOM      9  C   UNL     1      -4.384  -4.327  -2.607  0.00  0.00    +0.056 C 
ATOM     10  C   UNL     1      -7.404  -4.471  -4.311  0.00  0.00    +0.403 C 
ATOM     11  O   UNL     1      -6.938  -4.070  -5.360  0.00  0.00    -0.226 OA
ENDROOT
BRANCH   1  15
ATOM     12  C   UNL     1      -1.497  -1.835   0.006  0.00  0.00    +0.407 C 
ATOM     13  O   UNL     1      -0.524  -2.562  -0.007  0.00  0.00    -0.226 OA
ATOM     14  N   UNL     1      -2.735  -2.367   0.015  0.00  0.00    -0.217 N 
ATOM     15  C   UNL     1      -2.893  -3.706   0.010  0.00  0.00    +0.255 C 
ATOM     16  O   UNL     1      -1.919  -4.434  -0.003  0.00  0.00    -0.270 OA
ATOM     17  H   UNL     1      -3.512  -1.787   0.026  0.00  0.00    +0.161 HD
BRANCH  12  18
ATOM     18  O   UNL     1      -1.339  -0.499   0.012  0.00  0.00    -0.450 OA
BRANCH  18  20
ATOM     19  C   UNL     1      -0.019   1.526   0.010  0.00  0.00    +0.048 C 
ATOM     20  C   UNL     1       0.002  -0.004   0.002  0.00  0.00    +0.230 C 
ENDBRANCH  18  20
ENDBRANCH  12  18
ENDBRANCH   1  15
BRANCH   5  21
ATOM     21  N   UNL     1      -4.429  -4.391   2.502  0.00  0.00    -0.279 N 
ATOM     22  C   UNL     1      -5.203  -4.734   3.550  0.00  0.00    +0.221 C 
ATOM     23  O   UNL     1      -6.305  -5.205   3.361  0.00  0.00    -0.275 OA
ATOM     24  H   UNL     1      -3.547  -4.015   2.652  0.00  0.00    +0.155 HD
BRANCH  22  25
ATOM     25  C   UNL     1      -4.700  -4.533   4.956  0.00  0.00    +0.075 C 
ATOM     26  C   UNL     1      -3.420  -5.346   5.161  0.00  0.00    +0.013 C 
ATOM     27  C   UNL     1      -2.910  -5.142   6.589  0.00  0.00    +0.001 C 
ATOM     28  C   UNL     1      -3.975  -5.609   7.583  0.00  0.00    +0.000 C 
ATOM     29  C   UNL     1      -5.255  -4.796   7.378  0.00  0.00    +0.001 C 
ATOM     30  C   UNL     1      -5.766  -5.000   5.950  0.00  0.00    +0.013 C 
ENDBRANCH  22  25
ENDBRANCH   5  21
BRANCH  10  31
ATOM     31  O   UNL     1      -8.723  -4.353  -4.072  0.00  0.00    -0.454 OA
ATOM     32  C   UNL     1      -9.517  -3.748  -5.095  0.00  0.00    +0.282 C 
ENDBRANCH  10  31
TORSDOF 6
