REMARK  Name = ZINC45945782
REMARK  6 active torsions:
REMARK  status: ('A' for Active; 'I' for Inactive)
REMARK    1  A    between atoms: C_1  and  C_2
REMARK    2  A    between atoms: C_2  and  C_3
REMARK    3  A    between atoms: C_6  and  C_23
REMARK    4  A    between atoms: C_8  and  S_9
REMARK    5  A    between atoms: S_9  and  N_12
REMARK    6  A    between atoms: N_12  and  C_13
REMARK                            x       y       z     vdW  Elec       q    Type
REMARK                         _______ _______ _______ _____ _____    ______ ____
ROOT
ATOM      1  S   UNL     1      -1.150  -0.241  -2.489  0.00  0.00    +0.073 S 
ATOM      2  O   UNL     1       0.103  -0.892  -2.329  0.00  0.00    -0.150 OA
ATOM      3  O   UNL     1      -1.932  -0.373  -3.668  0.00  0.00    -0.150 OA
ENDROOT
BRANCH   1   9
ATOM      4  C   UNL     1      -3.443  -0.257  -1.008  0.00  0.00    -0.021 A 
ATOM      5  C   UNL     1      -4.250  -0.670   0.038  0.00  0.00    +0.006 A 
ATOM      6  C   UNL     1      -3.784  -1.592   0.951  0.00  0.00    +0.015 A 
ATOM      7  C   UNL     1      -2.493  -2.110   0.818  0.00  0.00    +0.065 A 
ATOM      8  C   UNL     1      -1.684  -1.689  -0.241  0.00  0.00    +0.044 A 
ATOM      9  C   UNL     1      -2.166  -0.769  -1.149  0.00  0.00    +0.112 A 
BRANCH   7  10
ATOM     10  C   UNL     1      -1.986  -3.097   1.790  0.00  0.00    +0.387 C 
ATOM     11  O   UNL     1      -2.696  -3.464   2.716  0.00  0.00    -0.241 OA
ATOM     12  O   UNL     1      -0.856  -3.549   1.671  0.00  0.00    -0.241 OA
ENDBRANCH   7  10
BRANCH   4  14
ATOM     13  C   UNL     1      -4.685   0.026  -3.135  0.00  0.00    +0.009 C 
ATOM     14  C   UNL     1      -3.960   0.752  -2.001  0.00  0.00    +0.034 C 
ENDBRANCH   4  14
ENDBRANCH   1   9
BRANCH   1  15
ATOM     15  N   UNL     1      -0.872   1.378  -2.283  0.00  0.00    -0.216 N 
ATOM     16  H   UNL     1      -1.241   2.017  -2.913  0.00  0.00    +0.174 HD
BRANCH  15  17
ATOM     17  C   UNL     1      -0.105   1.825  -1.202  0.00  0.00    +0.052 A 
ATOM     18  C   UNL     1      -0.324   1.305   0.067  0.00  0.00    +0.028 A 
ATOM     19  C   UNL     1       0.432   1.747   1.135  0.00  0.00    +0.051 A 
ATOM     20  C   UNL     1       1.413   2.708   0.944  0.00  0.00    +0.162 A 
ATOM     21  C   UNL     1       1.637   3.228  -0.325  0.00  0.00    +0.164 A 
ATOM     22  C   UNL     1       0.880   2.782  -1.398  0.00  0.00    +0.074 A 
ATOM     23  O   UNL     1       2.601   4.167  -0.533  0.00  0.00    -0.485 OA
ATOM     24  C   UNL     1       3.089   4.856   0.623  0.00  0.00    +0.270 C 
ATOM     25  C   UNL     1       3.370   3.819   1.718  0.00  0.00    +0.270 C 
ATOM     26  O   UNL     1       2.147   3.134   2.011  0.00  0.00    -0.485 OA
ENDBRANCH  15  17
ENDBRANCH   1  15
TORSDOF 5
