REMARK  Name = ZINC64031419
REMARK  9 active torsions:
REMARK  status: ('A' for Active; 'I' for Inactive)
REMARK    1  A    between atoms: C_1  and  C_2
REMARK    2  A    between atoms: C_2  and  C_3
REMARK    3  A    between atoms: C_2  and  C_4
REMARK    4  A    between atoms: C_2  and  O_5
REMARK    5  A    between atoms: O_5  and  C_6
REMARK    6  A    between atoms: N_8  and  C_9
REMARK    7  A    between atoms: C_9  and  C_16
REMARK    8  A    between atoms: C_16  and  N_17
REMARK    9  A    between atoms: C_18  and  C_20
REMARK                            x       y       z     vdW  Elec       q    Type
REMARK                         _______ _______ _______ _____ _____    ______ ____
ROOT
ATOM      1  C   UNL     1       4.066  -0.168  -2.650  0.00  0.00    +0.053 C 
ATOM      2  C   UNL     1       5.041  -0.721  -1.591  0.00  0.00    +0.027 C 
ATOM      3  C   UNL     1       4.563  -2.082  -1.165  0.00  0.00    +0.002 C 
ATOM      4  C   UNL     1       5.233  -3.219  -1.960  0.00  0.00    +0.000 C 
ATOM      5  C   UNL     1       5.358  -2.903  -3.463  0.00  0.00    +0.000 C 
ATOM      6  C   UNL     1       4.121  -2.250  -4.019  0.00  0.00    +0.002 C 
ATOM      7  C   UNL     1       4.313  -0.720  -3.974  0.00  0.00    +0.027 C 
ENDROOT
BRANCH   1  10
ATOM      8  C   UNL     1       1.661  -0.150  -3.041  0.00  0.00    +0.401 C 
ATOM      9  O   UNL     1       1.856   0.511  -4.042  0.00  0.00    -0.226 OA
ATOM     10  N   UNL     1       2.695  -0.495  -2.249  0.00  0.00    -0.274 N 
ATOM     11  H   UNL     1       2.532  -0.959  -1.413  0.00  0.00    +0.153 HD
BRANCH   8  12
ATOM     12  O   UNL     1       0.411  -0.539  -2.724  0.00  0.00    -0.445 OA
BRANCH  12  14
ATOM     13  C   UNL     1      -0.371  -0.707  -5.005  0.00  0.00    +0.055 C 
ATOM     14  C   UNL     1      -0.637  -0.139  -3.609  0.00  0.00    +0.107 C 
ATOM     15  C   UNL     1      -0.687   1.389  -3.681  0.00  0.00    +0.055 C 
ATOM     16  C   UNL     1      -1.974  -0.669  -3.088  0.00  0.00    +0.055 C 
ENDBRANCH  12  14
ENDBRANCH   8  12
ENDBRANCH   1  10
BRANCH   1  17
ATOM     17  C   UNL     1       4.214   1.353  -2.712  0.00  0.00    +0.130 C 
BRANCH  17  18
ATOM     18  N   UNL     1       3.888   1.929  -1.405  0.00  0.00    -0.308 N 
ATOM     19  C   UNL     1       4.058   3.248  -1.188  0.00  0.00    +0.259 C 
ATOM     20  O   UNL     1       4.481   3.961  -2.078  0.00  0.00    -0.269 OA
ATOM     21  H   UNL     1       3.551   1.360  -0.695  0.00  0.00    +0.149 HD
BRANCH  19  22
ATOM     22  C   UNL     1       3.730   3.826   0.124  0.00  0.00    +0.108 C 
ATOM     23  N   UNL     1       3.277   3.193   1.167  0.00  0.00    -0.254 NA
ATOM     24  C   UNL     1       3.071   3.982   2.225  0.00  0.00    +0.122 C 
ATOM     25  C   UNL     1       3.378   5.261   1.978  0.00  0.00    +0.019 C 
ATOM     26  C   UNL     1       3.859   5.280   0.538  0.00  0.00    +0.105 C 
ATOM     27 BR   UNL     1       3.248   6.726   3.166  0.00  0.00    -0.053 Br
ENDBRANCH  19  22
ENDBRANCH  17  18
ENDBRANCH   1  17
TORSDOF 6
