REMARK  Name = ZINC41585909
REMARK  4 active torsions:
REMARK  status: ('A' for Active; 'I' for Inactive)
REMARK    1  A    between atoms: N_10  and  C_13
REMARK    2  A    between atoms: C_13  and  C_14
REMARK    3  A    between atoms: C_15  and  O_33
REMARK    4  A    between atoms: C_22  and  C_23
REMARK                            x       y       z     vdW  Elec       q    Type
REMARK                         _______ _______ _______ _____ _____    ______ ____
ROOT
ATOM      1  C   UNL     1       0.351  -6.642   1.532  0.00  0.00    +0.051 A 
ATOM      2  C   UNL     1      -0.851  -6.483   2.204  0.00  0.00    +0.125 A 
ATOM      3  C   UNL     1      -1.878  -7.409   2.046  0.00  0.00    +0.046 A 
ATOM      4  C   UNL     1      -1.710  -8.487   1.223  0.00  0.00    +0.019 A 
ATOM      5  C   UNL     1      -0.506  -8.660   0.540  0.00  0.00    +0.068 A 
ATOM      6  C   UNL     1       0.536  -7.730   0.688  0.00  0.00    +0.147 A 
ATOM      7  O   UNL     1       1.590  -8.102  -0.071  0.00  0.00    -0.451 OA
ATOM      8  C   UNL     1       1.343  -9.246  -0.750  0.00  0.00    +0.176 C 
ATOM      9  C   UNL     1       2.196  -9.878  -1.594  0.00  0.00    +0.058 C 
ATOM     10  C   UNL     1      -0.016  -9.687  -0.397  0.00  0.00    +0.231 C 
ATOM     11  O   UNL     1      -0.609 -10.673  -0.800  0.00  0.00    -0.283 OA
ENDROOT
BRANCH   9  12
ATOM     12  C   UNL     1       3.581  -9.406  -1.727  0.00  0.00    -0.020 A 
ATOM     13  C   UNL     1       4.423  -9.959  -2.700  0.00  0.00    +0.009 A 
ATOM     14  C   UNL     1       5.720  -9.512  -2.819  0.00  0.00    +0.022 A 
ATOM     15  C   UNL     1       6.194  -8.516  -1.980  0.00  0.00    +0.059 A 
ATOM     16  C   UNL     1       5.367  -7.963  -1.014  0.00  0.00    +0.060 A 
ATOM     17  C   UNL     1       4.064  -8.396  -0.887  0.00  0.00    +0.029 A 
ATOM     18 CL   UNL     1       5.971  -6.716   0.032  0.00  0.00    -0.082 Cl
ATOM     19 CL   UNL     1       7.831  -7.960  -2.138  0.00  0.00    -0.082 Cl
ENDBRANCH   9  12
BRANCH   2  20
ATOM     20  O   UNL     1      -1.028  -5.415   3.023  0.00  0.00    -0.506 OA
ATOM     21  H   UNL     1      -1.396  -4.638   2.582  0.00  0.00    +0.292 HD
ENDBRANCH   2  20
BRANCH   1  22
ATOM     22  C   UNL     1       1.454  -5.632   1.713  0.00  0.00    +0.127 C 
BRANCH  22  32
ATOM     23  C   UNL     1       2.131   1.500  -0.517  0.00  0.00    +0.005 A 
ATOM     24  C   UNL     1       0.876   2.092  -0.544  0.00  0.00    +0.018 A 
ATOM     25  C   UNL     1      -0.249   1.293  -0.515  0.00  0.00    +0.084 A 
ATOM     26  N   UNL     1      -0.145  -0.022  -0.462  0.00  0.00    -0.350 N 
ATOM     27  C   UNL     1       1.034  -0.624  -0.435  0.00  0.00    +0.099 A 
ATOM     28  C   UNL     1       2.209   0.120  -0.462  0.00  0.00    +0.042 A 
ATOM     29  N   UNL     1       1.097  -2.011  -0.379  0.00  0.00    -0.314 N 
ATOM     30  C   UNL     1       2.387  -2.712  -0.472  0.00  0.00    +0.122 C 
ATOM     31  C   UNL     1       2.493  -3.694   0.700  0.00  0.00    +0.103 C 
ATOM     32  N   UNL     1       1.312  -4.566   0.712  0.00  0.00    -0.295 NA
ATOM     33  C   UNL     1       0.082  -3.795   0.936  0.00  0.00    +0.103 C 
ATOM     34  C   UNL     1      -0.122  -2.817  -0.220  0.00  0.00    +0.122 C 
ATOM     35  H   UNL     1      -0.952  -0.560  -0.443  0.00  0.00    +0.166 HD
ENDBRANCH  22  32
ENDBRANCH   1  22
TORSDOF 4
