REMARK  Name = ZINC39629980
REMARK  6 active torsions:
REMARK  status: ('A' for Active; 'I' for Inactive)
REMARK    1  A    between atoms: C_3  and  C_8
REMARK    2  A    between atoms: C_12  and  C_21
REMARK    3  A    between atoms: N_23  and  C_24
REMARK    4  A    between atoms: C_24  and  C_25
REMARK    5  A    between atoms: C_25  and  C_26
REMARK    6  A    between atoms: C_26  and  N_27
REMARK                            x       y       z     vdW  Elec       q    Type
REMARK                         _______ _______ _______ _____ _____    ______ ____
ROOT
ATOM      1  C   UNL     1       3.661   2.168  -0.024  0.00  0.00    +0.247 C 
ATOM      2  O   UNL     1       3.651   3.379  -0.128  0.00  0.00    -0.270 OA
ATOM      3  N   UNL     1       4.833   1.508   0.064  0.00  0.00    -0.296 N 
ATOM      4  C   UNL     1       5.053   0.043   0.066  0.00  0.00    +0.121 C 
ATOM      5  C   UNL     1       6.327  -0.162  -0.783  0.00  0.00    +0.100 C 
ATOM      6  C   UNL     1       7.073   1.181  -0.704  0.00  0.00    -0.004 C 
ATOM      7  C   UNL     1       6.195   2.086   0.173  0.00  0.00    +0.115 C 
ATOM      8  C   UNL     1       8.442   0.988  -0.060  0.00  0.00    -0.010 C 
ATOM      9  C   UNL     1       9.187   2.326  -0.045  0.00  0.00    -0.082 C 
ATOM     10  N   UNL     1       9.335   2.821  -1.418  0.00  0.00    +0.379 N 
ATOM     11  C   UNL     1       8.014   3.093  -1.998  0.00  0.00    -0.082 C 
ATOM     12  C   UNL     1       7.220   1.787  -2.096  0.00  0.00    -0.010 C 
ATOM     13  H   UNL     1       9.879   3.672  -1.411  0.00  0.00    -0.086 HD
ATOM     14  H   UNL     1       9.809   2.127  -1.976  0.00  0.00    -0.086 HD
ENDROOT
BRANCH   1  17
ATOM     15  C   UNL     1       0.055   1.256  -0.545  0.00  0.00    +0.002 A 
ATOM     16  C   UNL     1       1.241   1.961  -0.576  0.00  0.00    +0.013 A 
ATOM     17  C   UNL     1       2.387   1.418   0.005  0.00  0.00    +0.038 A 
ATOM     18  C   UNL     1       2.326   0.163   0.614  0.00  0.00    +0.028 A 
ATOM     19  C   UNL     1       1.134  -0.532   0.638  0.00  0.00    +0.019 A 
ATOM     20  C   UNL     1       0.001   0.013   0.059  0.00  0.00    +0.015 A 
ATOM     21 BR   UNL     1       1.049  -2.232   1.462  0.00  0.00    -0.050 Br
ENDBRANCH   1  17
BRANCH   5  22
ATOM     22  C   UNL     1       5.961  -0.477  -2.211  0.00  0.00    +0.218 C 
ATOM     23  O   UNL     1       4.985   0.037  -2.714  0.00  0.00    -0.275 OA
ATOM     24  N   UNL     1       6.719  -1.331  -2.928  0.00  0.00    -0.315 N 
ATOM     25  H   UNL     1       7.500  -1.742  -2.525  0.00  0.00    +0.149 HD
BRANCH  24  26
ATOM     26  C   UNL     1       6.362  -1.638  -4.316  0.00  0.00    +0.106 C 
BRANCH  26  27
ATOM     27  C   UNL     1       7.377  -2.625  -4.896  0.00  0.00    +0.040 C 
BRANCH  27  28
ATOM     28  C   UNL     1       7.005  -2.945  -6.345  0.00  0.00    +0.124 C 
BRANCH  28  29
ATOM     29  N   UNL     1       7.977  -3.890  -6.901  0.00  0.00    -0.338 N 
ATOM     30  C   UNL     1       9.139  -3.572  -7.550  0.00  0.00    +0.104 A 
ATOM     31  C   UNL     1       9.726  -4.736  -7.891  0.00  0.00    +0.101 A 
ATOM     32  N   UNL     1       8.942  -5.737  -7.463  0.00  0.00    -0.352 N 
ATOM     33  C   UNL     1       7.895  -5.238  -6.864  0.00  0.00    +0.173 A 
ATOM     34  H   UNL     1       9.126  -6.682  -7.577  0.00  0.00    +0.166 HD
ENDBRANCH  28  29
ENDBRANCH  27  28
ENDBRANCH  26  27
ENDBRANCH  24  26
ENDBRANCH   5  22
TORSDOF 6
