REMARK  Name = ZINC38828084
REMARK  6 active torsions:
REMARK  status: ('A' for Active; 'I' for Inactive)
REMARK    1  A    between atoms: C_4  and  C_7
REMARK    2  A    between atoms: C_7  and  S_8
REMARK    3  A    between atoms: S_8  and  C_9
REMARK    4  A    between atoms: C_14  and  C_22
REMARK    5  A    between atoms: CA_17  and  C_19
REMARK    6  A    between atoms: C_27  and  O_28
REMARK                            x       y       z     vdW  Elec       q    Type
REMARK                         _______ _______ _______ _____ _____    ______ ____
ROOT
ATOM      1  C   UNL     1       5.786  -1.866   1.477  0.00  0.00    +0.211 A 
ATOM      2  N   UNL     1       6.356  -2.180   0.313  0.00  0.00    -0.184 NA
ATOM      3  C   UNL     1       7.484  -2.814   0.529  0.00  0.00    +0.251 A 
ATOM      4  N   UNL     1       7.653  -2.908   1.885  0.00  0.00    -0.221 N 
ATOM      5  N   UNL     1       6.550  -2.293   2.468  0.00  0.00    -0.141 NA
ATOM      6  C   UNL     1       8.821  -3.546   2.493  0.00  0.00    +0.150 C 
ATOM      7  C   UNL     1       9.324  -4.626   1.528  0.00  0.00    +0.095 C 
ATOM      8  CA  UNL     1       9.304  -4.132   0.109  0.00  0.00    +0.135 C 
ATOM      9  N   UNL     1       8.399  -3.305  -0.335  0.00  0.00    -0.208 NA
ENDROOT
BRANCH   6  10
ATOM     10  C   UNL     1       8.433  -4.174   3.806  0.00  0.00    +0.019 A 
ATOM     11  C   UNL     1       7.468  -5.163   3.841  0.00  0.00    +0.009 A 
ATOM     12  C   UNL     1       7.111  -5.739   5.046  0.00  0.00    +0.001 A 
ATOM     13  C   UNL     1       7.718  -5.329   6.218  0.00  0.00    +0.004 A 
ATOM     14  C   UNL     1       8.683  -4.341   6.189  0.00  0.00    +0.046 A 
ATOM     15  C   UNL     1       9.047  -3.764   4.980  0.00  0.00    +0.122 A 
BRANCH  15  16
ATOM     16  O   UNL     1      10.000  -2.796   4.948  0.00  0.00    -0.506 OA
ATOM     17  H   UNL     1       9.654  -1.899   5.049  0.00  0.00    +0.292 HD
ENDBRANCH  15  16
ENDBRANCH   6  10
BRANCH   8  18
ATOM     18  C   UNL     1      10.347  -4.600  -0.817  0.00  0.00    +0.401 C 
ATOM     19  O   UNL     1      10.354  -4.213  -1.978  0.00  0.00    -0.239 OA
ATOM     20  OXT UNL     1      11.208  -5.377  -0.427  0.00  0.00    -0.239 OA
ENDBRANCH   8  18
BRANCH   1  21
ATOM     21  S   UNL     1       4.257  -1.011   1.666  0.00  0.00    -0.080 S 
BRANCH  21  22
ATOM     22  C   UNL     1       3.711  -0.707  -0.038  0.00  0.00    +0.112 C 
BRANCH  22  26
ATOM     23  C   UNL     1      -0.017   1.378   0.010  0.00  0.00    +0.000 A 
ATOM     24  C   UNL     1       1.171   2.086   0.002  0.00  0.00    +0.000 A 
ATOM     25  C   UNL     1       2.377   1.411  -0.013  0.00  0.00    +0.004 A 
ATOM     26  C   UNL     1       2.396   0.029  -0.020  0.00  0.00    -0.037 A 
ATOM     27  C   UNL     1       1.208  -0.679  -0.012  0.00  0.00    +0.004 A 
ATOM     28  C   UNL     1       0.002  -0.004   0.002  0.00  0.00    +0.000 A 
ENDBRANCH  22  26
ENDBRANCH  21  22
ENDBRANCH   1  21
TORSDOF 6
