REMARK  Name = ZINC63663826
REMARK  11 active torsions:
REMARK  status: ('A' for Active; 'I' for Inactive)
REMARK    1  A    between atoms: C_1  and  C_2
REMARK    2  A    between atoms: C_2  and  C_4
REMARK    3  A    between atoms: C_2  and  N_24
REMARK    4  A    between atoms: C_4  and  C_6
REMARK    5  A    between atoms: C_4  and  N_11
REMARK    6  A    between atoms: N_14  and  C_17
REMARK    7  A    between atoms: C_17  and  C_18
REMARK    8  A    between atoms: C_25  and  C_27
REMARK    9  A    between atoms: N_29  and  C_30
REMARK   10  A    between atoms: C_30  and  C_31
REMARK   11  A    between atoms: C_31  and  C_32
REMARK                            x       y       z     vdW  Elec       q    Type
REMARK                         _______ _______ _______ _____ _____    ______ ____
ROOT
ATOM      1  C   UNL     1      -0.019   1.526   0.010  0.00  0.00    +0.030 C 
ATOM      2  C   UNL     1       0.002  -0.004   0.002  0.00  0.00    +0.092 C 
ENDROOT
BRANCH   2   3
ATOM      3  N   UNL     1      -1.372  -0.511   0.012  0.00  0.00    -0.303 N 
ATOM      4  C   UNL     1      -2.029  -0.655   1.181  0.00  0.00    +0.299 C 
ATOM      5  O   UNL     1      -1.481  -0.365   2.224  0.00  0.00    -0.265 OA
ATOM      6  H   UNL     1      -1.810  -0.743  -0.822  0.00  0.00    +0.149 HD
BRANCH   4   7
ATOM      7  C   UNL     1      -3.431  -1.173   1.191  0.00  0.00    +0.299 C 
ATOM      8  O   UNL     1      -3.978  -1.463   0.148  0.00  0.00    -0.265 OA
ATOM      9  N   UNL     1      -4.087  -1.317   2.360  0.00  0.00    -0.307 N 
ATOM     10  H   UNL     1      -3.649  -1.085   3.194  0.00  0.00    +0.149 HD
BRANCH   9  11
ATOM     11  C   UNL     1      -5.461  -1.824   2.370  0.00  0.00    +0.109 C 
BRANCH  11  12
ATOM     12  C   UNL     1      -5.970  -1.890   3.812  0.00  0.00    +0.052 C 
BRANCH  12  13
ATOM     13  C   UNL     1      -7.383  -2.412   3.822  0.00  0.00    -0.040 C 
ATOM     14  C   UNL     1      -7.777  -3.692   4.012  0.00  0.00    -0.001 A 
ATOM     15  C   UNL     1      -7.034  -4.934   4.255  0.00  0.00    +0.010 A 
ATOM     16  C   UNL     1      -7.720  -6.089   4.409  0.00  0.00    +0.001 A 
ATOM     17  C   UNL     1      -9.120  -6.130   4.341  0.00  0.00    +0.002 A 
ATOM     18  C   UNL     1      -9.871  -5.030   4.121  0.00  0.00    +0.026 A 
ATOM     19  C   UNL     1      -9.254  -3.761   3.946  0.00  0.00    +0.043 A 
ATOM     20  N   UNL     1      -9.755  -2.570   3.723  0.00  0.00    -0.380 N 
ATOM     21  C   UNL     1      -8.650  -1.609   3.629  0.00  0.00    +0.144 C 
ATOM     22  H   UNL     1     -10.698  -2.359   3.639  0.00  0.00    +0.160 HD
ENDBRANCH  12  13
ENDBRANCH  11  12
ENDBRANCH   9  11
ENDBRANCH   4   7
ENDBRANCH   2   3
BRANCH   2  23
ATOM     23  C   UNL     1       0.718  -0.497  -1.257  0.00  0.00    +0.114 C 
BRANCH  23  24
ATOM     24  N   UNL     1       2.055   0.107  -1.328  0.00  0.00    -0.291 NA
ATOM     25  C   UNL     1       2.829  -0.182  -0.113  0.00  0.00    +0.100 C 
ATOM     26  C   UNL     1       4.182   0.529  -0.192  0.00  0.00    +0.100 C 
ATOM     27  N   UNL     1       4.901   0.077  -1.391  0.00  0.00    -0.296 NA
ATOM     28  C   UNL     1       4.127   0.366  -2.606  0.00  0.00    +0.100 C 
ATOM     29  C   UNL     1       2.774  -0.345  -2.527  0.00  0.00    +0.100 C 
BRANCH  27  30
ATOM     30  C   UNL     1       6.238   0.681  -1.463  0.00  0.00    +0.119 C 
BRANCH  30  31
ATOM     31  C   UNL     1       7.033   0.015  -2.557  0.00  0.00    -0.033 A 
ATOM     32  C   UNL     1       7.799  -1.100  -2.274  0.00  0.00    +0.005 A 
ATOM     33  C   UNL     1       8.528  -1.710  -3.278  0.00  0.00    +0.000 A 
ATOM     34  C   UNL     1       8.489  -1.206  -4.564  0.00  0.00    +0.000 A 
ATOM     35  C   UNL     1       7.722  -0.091  -4.847  0.00  0.00    +0.000 A 
ATOM     36  C   UNL     1       6.990   0.517  -3.845  0.00  0.00    +0.005 A 
ENDBRANCH  30  31
ENDBRANCH  27  30
ENDBRANCH  23  24
BRANCH  23  37
ATOM     37  C   UNL     1      -0.077  -0.103  -2.474  0.00  0.00    +0.009 A 
ATOM     38  C   UNL     1      -0.930  -0.851  -3.216  0.00  0.00    +0.013 A 
ATOM     39  C   UNL     1      -1.557  -0.272  -4.303  0.00  0.00    +0.008 A 
ATOM     40  C   UNL     1      -1.300   1.026  -4.596  0.00  0.00    +0.045 A 
ATOM     41  S   UNL     1      -0.146   1.473  -3.310  0.00  0.00    -0.100 S 
ENDBRANCH  23  37
ENDBRANCH   2  23
TORSDOF 10
