REMARK  Name = ZINC63686600
REMARK  10 active torsions:
REMARK  status: ('A' for Active; 'I' for Inactive)
REMARK    1  A    between atoms: C_1  and  C_2
REMARK    2  A    between atoms: C_2  and  N_3
REMARK    3  A    between atoms: C_4  and  C_25
REMARK    4  A    between atoms: C_8  and  S_10
REMARK    5  A    between atoms: S_10  and  C_11
REMARK    6  A    between atoms: C_11  and  C_12
REMARK    7  A    between atoms: C_16  and  C_24
REMARK    8  A    between atoms: C_18  and  C_23
REMARK    9  A    between atoms: C_25  and  O_26
REMARK   10  A    between atoms: O_26  and  C_27
REMARK                            x       y       z     vdW  Elec       q    Type
REMARK                         _______ _______ _______ _____ _____    ______ ____
ROOT
ATOM      1  N   UNL     1      -0.414   0.602  -1.546  0.00  0.00    -0.259 NA
ATOM      2  C   UNL     1      -0.318  -0.812  -1.127  0.00  0.00    +0.178 C 
ATOM      3  N   UNL     1      -0.759  -1.625  -2.284  0.00  0.00    -0.234 NA
ATOM      4  N   UNL     1      -0.536  -0.756  -3.450  0.00  0.00    -0.229 NA
ATOM      5  C   UNL     1      -0.908   0.591  -2.942  0.00  0.00    +0.200 C 
ATOM      6  H   UNL     1      -1.733  -1.874  -2.200  0.00  0.00    +0.142 HD
ATOM      7  H   UNL     1      -1.127  -1.027  -4.222  0.00  0.00    +0.143 HD
ENDROOT
BRANCH   1   9
ATOM      8  C   UNL     1      -1.250   2.840  -1.007  0.00  0.00    +0.020 C 
ATOM      9  C   UNL     1      -1.327   1.349  -0.670  0.00  0.00    +0.085 C 
ENDBRANCH   1   9
BRANCH   5  10
ATOM     10  S   UNL     1      -0.091   1.885  -3.915  0.00  0.00    -0.119 S 
BRANCH  10  11
ATOM     11  C   UNL     1       1.657   1.402  -3.908  0.00  0.00    +0.125 C 
BRANCH  11  12
ATOM     12  C   UNL     1       2.476   2.467  -4.590  0.00  0.00    +0.030 A 
ATOM     13  N   UNL     1       2.427   2.561  -5.941  0.00  0.00    -0.357 N 
ATOM     14  C   UNL     1       3.151   3.512  -6.625  0.00  0.00    +0.051 A 
ATOM     15  C   UNL     1       3.094   3.599  -8.013  0.00  0.00    +0.029 A 
ATOM     16  C   UNL     1       3.830   4.562  -8.667  0.00  0.00    -0.048 A 
ATOM     17  C   UNL     1       4.630   5.447  -7.957  0.00  0.00    +0.007 A 
ATOM     18  C   UNL     1       4.701   5.378  -6.593  0.00  0.00    -0.037 A 
ATOM     19  C   UNL     1       3.963   4.411  -5.912  0.00  0.00    +0.048 A 
ATOM     20  C   UNL     1       4.009   4.301  -4.443  0.00  0.00    +0.190 A 
ATOM     21  O   UNL     1       4.697   5.056  -3.776  0.00  0.00    -0.287 OA
ATOM     22  C   UNL     1       3.225   3.294  -3.832  0.00  0.00    +0.073 A 
ATOM     23  C   UNL     1       5.572   6.342  -5.831  0.00  0.00    +0.044 C 
ATOM     24  C   UNL     1       3.767   4.657 -10.170  0.00  0.00    +0.044 C 
ATOM     25  H   UNL     1       1.869   1.943  -6.438  0.00  0.00    +0.166 HD
ENDBRANCH  11  12
ENDBRANCH  10  11
ENDBRANCH   5  10
BRANCH   2  26
ATOM     26  C   UNL     1       1.128  -1.155  -0.765  0.00  0.00    +0.265 C 
BRANCH  26  27
ATOM     27  O   UNL     1       1.194  -2.499  -0.285  0.00  0.00    -0.488 OA
BRANCH  27  28
ATOM     28  C   UNL     1       2.427  -2.993   0.001  0.00  0.00    +0.139 A 
ATOM     29  C   UNL     1       3.540  -2.169  -0.073  0.00  0.00    +0.047 A 
ATOM     30  C   UNL     1       4.793  -2.673   0.218  0.00  0.00    +0.004 A 
ATOM     31  C   UNL     1       4.938  -3.999   0.583  0.00  0.00    +0.002 A 
ATOM     32  C   UNL     1       3.831  -4.824   0.657  0.00  0.00    +0.023 A 
ATOM     33  C   UNL     1       2.575  -4.322   0.373  0.00  0.00    +0.083 A 
ATOM     34 CL   UNL     1       1.184  -5.356   0.473  0.00  0.00    -0.080 Cl
ENDBRANCH  27  28
ENDBRANCH  26  27
ENDBRANCH   2  26
TORSDOF 7
