REMARK  Name = ZINC01331018
REMARK  9 active torsions:
REMARK  status: ('A' for Active; 'I' for Inactive)
REMARK    1  A    between atoms: C_1  and  C_2
REMARK    2  A    between atoms: C_2  and  C_3
REMARK    3  A    between atoms: C_3  and  C_4
REMARK    4  A    between atoms: C_3  and  C_5
REMARK    5  A    between atoms: C_3  and  N_6
REMARK    6  A    between atoms: C_7  and  C_11
REMARK    7  A    between atoms: C_11  and  C_13
REMARK    8  A    between atoms: C_11  and  N_55
REMARK    9  A    between atoms: C_16  and  O_19
REMARK                            x       y       z     vdW  Elec       q    Type
REMARK                         _______ _______ _______ _____ _____    ______ ____
ROOT
ATOM      1  C   UNL     1      -1.672  -1.665   0.976  0.00  0.00    +0.034 C 
ENDROOT
BRANCH   1  11
ATOM      2  C   UNL     1      -0.860  -3.671  -0.115  0.00  0.00    -0.072 C 
ATOM      3  C   UNL     1      -1.352  -4.879  -0.913  0.00  0.00    +0.017 C 
ATOM      4  C   UNL     1      -1.952  -4.423  -2.218  0.00  0.00    -0.048 A 
ATOM      5  C   UNL     1      -2.129  -5.358  -3.227  0.00  0.00    +0.004 A 
ATOM      6  C   UNL     1      -2.678  -4.983  -4.437  0.00  0.00    +0.000 A 
ATOM      7  C   UNL     1      -3.054  -3.668  -4.644  0.00  0.00    +0.000 A 
ATOM      8  C   UNL     1      -2.877  -2.737  -3.640  0.00  0.00    +0.002 A 
ATOM      9  C   UNL     1      -2.323  -3.112  -2.425  0.00  0.00    -0.061 A 
ATOM     10  C   UNL     1      -2.142  -2.058  -1.364  0.00  0.00    -0.041 C 
ATOM     11  N   UNL     1      -1.965  -2.694  -0.048  0.00  0.00    +0.392 N 
ATOM     12  H   UNL     1      -2.831  -3.183   0.208  0.00  0.00    -0.080 HD
ENDBRANCH   1  11
BRANCH   1  13
ATOM     13  C   UNL     1      -1.670  -2.315   2.336  0.00  0.00    -0.053 A 
ATOM     14  C   UNL     1      -2.685  -3.187   2.686  0.00  0.00    +0.006 A 
ATOM     15  C   UNL     1      -2.683  -3.788   3.929  0.00  0.00    +0.045 A 
ATOM     16  C   UNL     1      -1.667  -3.508   4.832  0.00  0.00    +0.117 A 
ATOM     17  C   UNL     1      -0.653  -2.629   4.481  0.00  0.00    +0.045 A 
ATOM     18  C   UNL     1      -0.657  -2.035   3.233  0.00  0.00    +0.006 A 
BRANCH  16  19
ATOM     19  O   UNL     1      -1.666  -4.093   6.059  0.00  0.00    -0.507 OA
ATOM     20  H   UNL     1      -2.138  -3.589   6.735  0.00  0.00    +0.292 HD
ENDBRANCH  16  19
ENDBRANCH   1  13
BRANCH   1  22
ATOM     21  N   UNL     1      -2.547   0.726   0.829  0.00  0.00    -0.225 N 
ATOM     22  C   UNL     1      -2.739  -0.603   0.929  0.00  0.00    +0.143 A 
ATOM     23  N   UNL     1      -4.035  -0.792   0.980  0.00  0.00    -0.115 NA
ATOM     24  N   UNL     1      -4.609   0.359   0.907  0.00  0.00    -0.023 NA
ATOM     25  N   UNL     1      -3.712   1.279   0.815  0.00  0.00    -0.043 NA
BRANCH  21  26
ATOM     26  C   UNL     1      -1.256   1.414   0.745  0.00  0.00    +0.061 C 
ATOM     27  C   UNL     1      -0.509   0.947  -0.506  0.00  0.00    +0.036 C 
ATOM     28  C   UNL     1      -0.423   1.089   1.987  0.00  0.00    +0.036 C 
BRANCH  26  30
ATOM     29  C   UNL     1      -0.140   3.643   0.579  0.00  0.00    +0.006 C 
ATOM     30  C   UNL     1      -1.488   2.924   0.667  0.00  0.00    +0.026 C 
ENDBRANCH  26  30
ENDBRANCH  21  26
ENDBRANCH   1  22
TORSDOF 6
