REMARK  Name = ZINC16742433
REMARK  11 active torsions:
REMARK  status: ('A' for Active; 'I' for Inactive)
REMARK    1  A    between atoms: C_1  and  C_2
REMARK    2  A    between atoms: C_7  and  C_8
REMARK    3  A    between atoms: C_14  and  C_23
REMARK    4  A    between atoms: N_16  and  C_19
REMARK    5  A    between atoms: C_19  and  C_20
REMARK    6  A    between atoms: C_20  and  N_60
REMARK    7  A    between atoms: C_21  and  N_60
REMARK    8  A    between atoms: C_22  and  N_60
REMARK    9  A    between atoms: C_26  and  O_29
REMARK   10  A    between atoms: O_29  and  C_30
REMARK   11  A    between atoms: C_30  and  C_31
REMARK                            x       y       z     vdW  Elec       q    Type
REMARK                         _______ _______ _______ _____ _____    ______ ____
ROOT
ATOM      1  C   UNL     1      -2.270  -6.499   7.585  0.00  0.00    +0.044 C 
ATOM      2  C   UNL     1      -1.034  -5.662   7.377  0.00  0.00    -0.047 A 
ATOM      3  C   UNL     1      -1.153  -4.317   7.106  0.00  0.00    +0.019 A 
ATOM      4  C   UNL     1      -0.005  -3.550   6.915  0.00  0.00    +0.065 A 
ATOM      5  C   UNL     1       1.268  -4.141   6.997  0.00  0.00    +0.140 A 
ATOM      6  C   UNL     1       1.363  -5.502   7.271  0.00  0.00    +0.050 A 
ATOM      7  C   UNL     1       0.221  -6.250   7.458  0.00  0.00    -0.044 A 
ATOM      8  C   UNL     1       0.336  -7.723   7.756  0.00  0.00    +0.044 C 
ATOM      9  O   UNL     1       2.377  -3.401   6.813  0.00  0.00    -0.450 OA
ATOM     10  C   UNL     1       2.357  -2.081   6.545  0.00  0.00    +0.199 A 
ATOM     11  C   UNL     1       1.189  -1.401   6.442  0.00  0.00    +0.072 A 
ATOM     12  C   UNL     1      -0.083  -2.106   6.622  0.00  0.00    +0.199 A 
ATOM     13  O   UNL     1      -1.152  -1.527   6.536  0.00  0.00    -0.287 OA
ATOM     14  C   UNL     1       1.527   0.036   6.140  0.00  0.00    +0.144 C 
ATOM     15  N   UNL     1       2.992   0.104   6.083  0.00  0.00    -0.285 N 
ATOM     16  C   UNL     1       3.474  -1.129   6.319  0.00  0.00    +0.283 C 
ATOM     17  O   UNL     1       4.652  -1.421   6.344  0.00  0.00    -0.267 OA
ENDROOT
BRANCH  14  18
ATOM     18  C   UNL     1       0.936   0.440   4.814  0.00  0.00    -0.022 A 
ATOM     19  C   UNL     1      -0.203   1.223   4.776  0.00  0.00    +0.009 A 
ATOM     20  C   UNL     1      -0.747   1.595   3.561  0.00  0.00    +0.046 A 
ATOM     21  C   UNL     1      -0.149   1.182   2.380  0.00  0.00    +0.121 A 
ATOM     22  C   UNL     1       0.991   0.392   2.421  0.00  0.00    +0.046 A 
ATOM     23  C   UNL     1       1.534   0.028   3.638  0.00  0.00    +0.009 A 
BRANCH  21  24
ATOM     24  O   UNL     1      -0.682   1.547   1.184  0.00  0.00    -0.483 OA
BRANCH  24  25
ATOM     25  C   UNL     1      -0.013   1.086   0.008  0.00  0.00    +0.324 C 
BRANCH  25  26
ATOM     26  C   UNL     1      -0.742   1.585  -1.213  0.00  0.00    +0.248 C 
ATOM     27  O   UNL     1      -1.736   2.268  -1.088  0.00  0.00    -0.272 OA
ATOM     28  N   UNL     1      -0.288   1.272  -2.443  0.00  0.00    -0.327 N 
ATOM     29  H   UNL     1       0.507   0.726  -2.543  0.00  0.00    +0.145 HD
ATOM     30  H   UNL     1      -0.758   1.594  -3.229  0.00  0.00    +0.145 HD
ENDBRANCH  25  26
ENDBRANCH  24  25
ENDBRANCH  21  24
ENDBRANCH  14  18
BRANCH  15  31
ATOM     31  C   UNL     1       3.789   1.304   5.814  0.00  0.00    +0.090 C 
BRANCH  31  32
ATOM     32  C   UNL     1       4.108   2.009   7.134  0.00  0.00    -0.060 C 
BRANCH  32  35
ATOM     33  C   UNL     1       5.033   4.041   8.072  0.00  0.00    -0.097 C 
ATOM     34  C   UNL     1       6.229   2.858   6.330  0.00  0.00    -0.097 C 
ATOM     35  N   UNL     1       4.894   3.228   6.845  0.00  0.00    +0.377 N 
ATOM     36  H   UNL     1       4.402   3.780   6.133  0.00  0.00    -0.083 HD
ENDBRANCH  32  35
ENDBRANCH  31  32
ENDBRANCH  15  31
TORSDOF 7
