REMARK  Name = ZINC20764297
REMARK  10 active torsions:
REMARK  status: ('A' for Active; 'I' for Inactive)
REMARK    1  A    between atoms: C_1  and  C_2
REMARK    2  A    between atoms: C_2  and  C_3
REMARK    3  A    between atoms: C_6  and  C_9
REMARK    4  A    between atoms: C_11  and  C_27
REMARK    5  A    between atoms: C_14  and  C_17
REMARK    6  A    between atoms: C_21  and  O_24
REMARK    7  A    between atoms: C_22  and  O_23
REMARK    8  A    between atoms: O_24  and  C_25
REMARK    9  A    between atoms: C_25  and  C_26
REMARK   10  A    between atoms: C_30  and  C_33
REMARK                            x       y       z     vdW  Elec       q    Type
REMARK                         _______ _______ _______ _____ _____    ______ ____
ROOT
ATOM      1  C   UNL     1       2.739  -0.463   1.858  0.00  0.00    +0.040 C 
ATOM      2  N   UNL     1       2.334  -0.231   0.667  0.00  0.00    -0.299 NA
ATOM      3  C   UNL     1       2.490   1.048  -0.016  0.00  0.00    +0.081 C 
ATOM      4  N   UNL     1       3.511   1.868   0.646  0.00  0.00    +0.401 N 
ATOM      5  C   UNL     1       3.236   1.954   2.091  0.00  0.00    -0.028 C 
ATOM      6  C   UNL     1       3.443   0.564   2.701  0.00  0.00    +0.044 C 
ATOM      7  H   UNL     1       4.502   1.413   0.495  0.00  0.00    -0.081 HD
ATOM      8  H   UNL     1       3.503   2.881   0.217  0.00  0.00    -0.081 HD
ENDROOT
BRANCH   1  12
ATOM      9  C   UNL     1       2.066  -4.316   3.508  0.00  0.00    -0.048 A 
ATOM     10  C   UNL     1       1.639  -4.034   2.223  0.00  0.00    +0.004 A 
ATOM     11  C   UNL     1       1.855  -2.784   1.680  0.00  0.00    +0.010 A 
ATOM     12  C   UNL     1       2.505  -1.803   2.432  0.00  0.00    -0.004 A 
ATOM     13  C   UNL     1       2.938  -2.097   3.726  0.00  0.00    +0.010 A 
ATOM     14  C   UNL     1       2.711  -3.349   4.258  0.00  0.00    +0.004 A 
BRANCH   9  16
ATOM     15  C   UNL     1       3.017  -6.591   3.772  0.00  0.00    +0.009 C 
ATOM     16  C   UNL     1       1.827  -5.684   4.094  0.00  0.00    +0.032 C 
ENDBRANCH   9  16
ENDBRANCH   1  12
BRANCH   5  17
ATOM     17  C   UNL     1       4.183   2.936   2.731  0.00  0.00    -0.016 A 
ATOM     18  C   UNL     1       5.352   3.293   2.083  0.00  0.00    +0.006 A 
ATOM     19  C   UNL     1       6.220   4.197   2.666  0.00  0.00    +0.004 A 
ATOM     20  C   UNL     1       5.929   4.741   3.903  0.00  0.00    +0.049 A 
ATOM     21  C   UNL     1       4.762   4.384   4.560  0.00  0.00    +0.162 A 
ATOM     22  C   UNL     1       3.885   3.478   3.971  0.00  0.00    +0.160 A 
BRANCH  22  23
ATOM     23  O   UNL     1       2.739   3.124   4.612  0.00  0.00    -0.503 OA
ATOM     24  H   UNL     1       2.504   3.554   5.596  0.00  0.00    +0.292 HD
ENDBRANCH  22  23
BRANCH  21  25
ATOM     25  O   UNL     1       4.474   4.919   5.777  0.00  0.00    -0.489 OA
BRANCH  25  26
ATOM     26  C   UNL     1       5.420   5.842   6.320  0.00  0.00    +0.226 C 
ATOM     27  C   UNL     1       4.928   6.333   7.683  0.00  0.00    +0.048 C 
ENDBRANCH  25  26
ENDBRANCH  21  25
ENDBRANCH   5  17
BRANCH   3  28
ATOM     28  C   UNL     1       1.175   1.783   0.000  0.00  0.00    -0.040 A 
ATOM     29  C   UNL     1      -0.013   1.076   0.008  0.00  0.00    +0.004 A 
ATOM     30  C   UNL     1      -1.219   1.751   0.017  0.00  0.00    +0.012 A 
ATOM     31  C   UNL     1      -1.238   3.133   0.030  0.00  0.00    +0.055 A 
ATOM     32  C   UNL     1      -0.050   3.840   0.022  0.00  0.00    +0.012 A 
ATOM     33  C   UNL     1       1.156   3.165   0.008  0.00  0.00    +0.004 A 
BRANCH  31  34
ATOM     34  C   UNL     1      -2.553   3.869   0.047  0.00  0.00    +0.417 C 
ATOM     35  F   UNL     1      -2.973   4.103  -1.267  0.00  0.00    -0.166 F 
ATOM     36  F   UNL     1      -3.511   3.096   0.712  0.00  0.00    -0.166 F 
ATOM     37  F   UNL     1      -2.396   5.090   0.711  0.00  0.00    -0.166 F 
ENDBRANCH  31  34
ENDBRANCH   3  28
TORSDOF 8
