REMARK  Name = ZINC67413052
REMARK  7 active torsions:
REMARK  status: ('A' for Active; 'I' for Inactive)
REMARK    1  A    between atoms: C_1  and  C_2
REMARK    2  A    between atoms: C_2  and  C_3
REMARK    3  A    between atoms: C_2  and  C_4
REMARK    4  A    between atoms: C_2  and  N_11
REMARK    5  A    between atoms: N_14  and  C_15
REMARK    6  A    between atoms: N_19  and  C_21
REMARK    7  A    between atoms: C_21  and  C_22
REMARK                            x       y       z     vdW  Elec       q    Type
REMARK                         _______ _______ _______ _____ _____    ______ ____
ROOT
ATOM      1  N   UNL     1       0.556  -0.272  -1.327  0.00  0.00    -0.290 N 
ATOM      2  C   UNL     1       1.849   0.006  -1.587  0.00  0.00    +0.301 C 
ATOM      3  O   UNL     1       2.556   0.479  -0.719  0.00  0.00    -0.253 OA
ATOM      4  N   UNL     1       2.358  -0.241  -2.811  0.00  0.00    -0.295 N 
ATOM      5  H   UNL     1      -0.008  -0.650  -2.021  0.00  0.00    +0.151 HD
ATOM      6  H   UNL     1       1.794  -0.618  -3.504  0.00  0.00    +0.151 HD
ENDROOT
BRANCH   4   7
ATOM      7  C   UNL     1       3.764   0.061  -3.093  0.00  0.00    +0.090 C 
ATOM      8  C   UNL     1       3.913   1.525  -3.568  0.00  0.00    +0.039 C 
ATOM      9  C   UNL     1       4.982   1.419  -4.685  0.00  0.00    +0.086 C 
ATOM     10  N   UNL     1       4.650   0.134  -5.352  0.00  0.00    -0.293 NA
ATOM     11  C   UNL     1       4.270  -0.799  -4.266  0.00  0.00    +0.107 C 
BRANCH  10  12
ATOM     12  C   UNL     1       5.801  -0.380  -6.107  0.00  0.00    +0.198 C 
BRANCH  12  13
ATOM     13  C   UNL     1       6.052   0.512  -7.324  0.00  0.00    +0.402 C 
ATOM     14  F   UNL     1       6.319   1.818  -6.899  0.00  0.00    -0.169 F 
ATOM     15  F   UNL     1       7.149   0.023  -8.043  0.00  0.00    -0.169 F 
ATOM     16  F   UNL     1       4.919   0.511  -8.145  0.00  0.00    -0.169 F 
ENDBRANCH  12  13
ENDBRANCH  10  12
ENDBRANCH   4   7
BRANCH   1  18
ATOM     17  C   UNL     1       0.155   1.483   0.328  0.00  0.00    +0.036 C 
ATOM     18  C   UNL     1       0.002  -0.004   0.002  0.00  0.00    +0.056 C 
ATOM     19  C   UNL     1       0.753  -0.835   1.044  0.00  0.00    +0.036 C 
BRANCH  18  20
ATOM     20  C   UNL     1      -1.458  -0.375   0.022  0.00  0.00    -0.025 A 
ATOM     21  C   UNL     1      -2.073  -0.700   1.217  0.00  0.00    +0.007 A 
ATOM     22  C   UNL     1      -3.412  -1.040   1.236  0.00  0.00    +0.020 A 
ATOM     23  C   UNL     1      -4.138  -1.055   0.058  0.00  0.00    +0.041 A 
ATOM     24  C   UNL     1      -3.523  -0.729  -1.138  0.00  0.00    +0.020 A 
ATOM     25  C   UNL     1      -2.185  -0.384  -1.154  0.00  0.00    +0.007 A 
ATOM     26 CL   UNL     1      -5.821  -1.482   0.081  0.00  0.00    -0.084 Cl
ENDBRANCH  18  20
ENDBRANCH   1  18
TORSDOF 5
