REMARK  Name = ZINC04729979
REMARK  11 active torsions:
REMARK  status: ('A' for Active; 'I' for Inactive)
REMARK    1  A    between atoms: C_1  and  C_2
REMARK    2  A    between atoms: C_2  and  C_3
REMARK    3  A    between atoms: C_6  and  C_9
REMARK    4  A    between atoms: C_11  and  C_26
REMARK    5  A    between atoms: C_13  and  C_16
REMARK    6  A    between atoms: C_20  and  O_23
REMARK    7  A    between atoms: C_21  and  O_22
REMARK    8  A    between atoms: O_23  and  C_24
REMARK    9  A    between atoms: C_24  and  C_25
REMARK   10  A    between atoms: C_29  and  C_33
REMARK   11  A    between atoms: C_31  and  C_32
REMARK                            x       y       z     vdW  Elec       q    Type
REMARK                         _______ _______ _______ _____ _____    ______ ____
ROOT
ATOM      1  C   UNL     1       2.709   5.308  -1.978  0.00  0.00    +0.040 C 
ATOM      2  N   UNL     1       2.279   5.155  -0.782  0.00  0.00    -0.299 NA
ATOM      3  C   UNL     1       2.451   3.937  -0.001  0.00  0.00    +0.081 C 
ATOM      4  C   UNL     1       3.274   2.895  -2.014  0.00  0.00    -0.028 C 
ATOM      5  C   UNL     1       3.460   4.240  -2.723  0.00  0.00    +0.044 C 
ATOM      6  N   UNL     1       3.514   3.096  -0.572  0.00  0.00    +0.401 N 
ATOM      7  H   UNL     1       3.519   2.185  -0.097  0.00  0.00    -0.081 HD
ATOM      8  H   UNL     1       4.421   3.557  -0.438  0.00  0.00    -0.081 HD
ENDROOT
BRANCH   3   9
ATOM      9  C   UNL     1       1.156   3.166   0.008  0.00  0.00    -0.038 A 
ATOM     10  C   UNL     1       1.175   1.783   0.000  0.00  0.00    +0.004 A 
ATOM     11  C   UNL     1      -0.013   1.076   0.008  0.00  0.00    +0.003 A 
ATOM     12  C   UNL     1      -1.219   1.751   0.017  0.00  0.00    -0.050 A 
ATOM     13  C   UNL     1      -1.238   3.133   0.030  0.00  0.00    +0.007 A 
ATOM     14  C   UNL     1      -0.050   3.840   0.023  0.00  0.00    -0.047 A 
ATOM     15  C   UNL     1      -0.070   5.347   0.031  0.00  0.00    +0.044 C 
ATOM     16  C   UNL     1      -2.514   0.980   0.019  0.00  0.00    +0.044 C 
ENDBRANCH   3   9
BRANCH   1  20
ATOM     17  C   UNL     1       1.978   9.005  -3.932  0.00  0.00    -0.048 A 
ATOM     18  C   UNL     1       1.526   8.809  -2.639  0.00  0.00    +0.004 A 
ATOM     19  C   UNL     1       1.760   7.610  -1.998  0.00  0.00    +0.010 A 
ATOM     20  C   UNL     1       2.455   6.593  -2.657  0.00  0.00    -0.004 A 
ATOM     21  C   UNL     1       2.913   6.801  -3.960  0.00  0.00    +0.010 A 
ATOM     22  C   UNL     1       2.667   8.002  -4.591  0.00  0.00    +0.004 A 
BRANCH  17  24
ATOM     23  C   UNL     1       2.876  11.280  -4.346  0.00  0.00    +0.009 C 
ATOM     24  C   UNL     1       1.719  10.318  -4.626  0.00  0.00    +0.032 C 
ENDBRANCH  17  24
ENDBRANCH   1  20
BRANCH   4  25
ATOM     25  C   UNL     1       4.263   1.894  -2.555  0.00  0.00    -0.016 A 
ATOM     26  C   UNL     1       5.423   1.620  -1.855  0.00  0.00    +0.006 A 
ATOM     27  C   UNL     1       6.329   0.699  -2.345  0.00  0.00    +0.004 A 
ATOM     28  C   UNL     1       6.084   0.055  -3.545  0.00  0.00    +0.049 A 
ATOM     29  C   UNL     1       4.926   0.329  -4.254  0.00  0.00    +0.162 A 
ATOM     30  C   UNL     1       4.011   1.252  -3.757  0.00  0.00    +0.160 A 
BRANCH  30  31
ATOM     31  O   UNL     1       2.873   1.525  -4.450  0.00  0.00    -0.503 OA
ATOM     32  H   UNL     1       2.962   2.250  -5.083  0.00  0.00    +0.292 HD
ENDBRANCH  30  31
BRANCH  29  33
ATOM     33  O   UNL     1       4.684  -0.304  -5.433  0.00  0.00    -0.489 OA
BRANCH  33  34
ATOM     34  C   UNL     1       5.667  -1.239  -5.882  0.00  0.00    +0.226 C 
ATOM     35  C   UNL     1       5.223  -1.845  -7.215  0.00  0.00    +0.048 C 
ENDBRANCH  33  34
ENDBRANCH  29  33
ENDBRANCH   4  25
TORSDOF 7
