REMARK  Name = ZINC39937567
REMARK  10 active torsions:
REMARK  status: ('A' for Active; 'I' for Inactive)
REMARK    1  A    between atoms: C_1  and  C_2
REMARK    2  A    between atoms: C_2  and  N_3
REMARK    3  A    between atoms: C_4  and  C_27
REMARK    4  A    between atoms: C_8  and  S_9
REMARK    5  A    between atoms: S_9  and  C_10
REMARK    6  A    between atoms: C_10  and  C_11
REMARK    7  A    between atoms: C_16  and  C_21
REMARK    8  A    between atoms: C_24  and  C_26
REMARK    9  A    between atoms: C_27  and  C_28
REMARK   10  A    between atoms: C_28  and  C_29
REMARK                            x       y       z     vdW  Elec       q    Type
REMARK                         _______ _______ _______ _____ _____    ______ ____
ROOT
ATOM      1  C   UNL     1      -1.681  -1.127   4.536  0.00  0.00    +0.150 C 
ENDROOT
BRANCH   1   2
ATOM      2  C   UNL     1      -3.114  -1.028   4.990  0.00  0.00    +0.134 C 
ATOM      3  N   UNL     1      -4.023  -0.617   4.134  0.00  0.00    -0.160 NA
ATOM      4  C   UNL     1      -5.311  -0.506   4.470  0.00  0.00    +0.272 C 
ATOM      5  O   UNL     1      -6.138  -0.122   3.657  0.00  0.00    -0.268 OA
ATOM      6  C   UNL     1      -5.715  -0.863   5.858  0.00  0.00    +0.076 C 
ATOM      7  C   UNL     1      -6.992  -0.817   6.400  0.00  0.00    -0.009 C 
ATOM      8  C   UNL     1      -7.127  -1.236   7.847  0.00  0.00    +0.113 C 
ATOM      9  S   UNL     1      -5.386  -1.651   8.264  0.00  0.00    -0.100 S 
ATOM     10  C   UNL     1      -4.647  -1.293   6.689  0.00  0.00    +0.112 C 
ATOM     11  N   UNL     1      -3.413  -1.363   6.233  0.00  0.00    -0.227 NA
BRANCH   7  12
ATOM     12  C   UNL     1      -8.097  -0.404   5.647  0.00  0.00    +0.017 A 
ATOM     13  C   UNL     1      -9.224  -1.139   5.257  0.00  0.00    +0.016 A 
ATOM     14  C   UNL     1     -10.147  -0.453   4.517  0.00  0.00    +0.011 A 
ATOM     15  C   UNL     1      -9.919   0.856   4.217  0.00  0.00    -0.013 A 
ATOM     16  S   UNL     1      -8.442   1.196   4.942  0.00  0.00    -0.094 S 
ATOM     17  C   UNL     1     -10.796   1.788   3.422  0.00  0.00    +0.051 C 
ENDBRANCH   7  12
ENDBRANCH   1   2
BRANCH   1  18
ATOM     18  S   UNL     1      -1.559  -0.610   2.802  0.00  0.00    -0.081 S 
BRANCH  18  23
ATOM     19  N   UNL     1       0.711  -0.489   1.189  0.00  0.00    -0.289 N 
ATOM     20  C   UNL     1       2.154  -0.758   1.304  0.00  0.00    +0.177 C 
ATOM     21  N   UNL     1       2.318  -1.219   2.693  0.00  0.00    -0.246 N 
ATOM     22  N   UNL     1       1.041  -1.192   3.267  0.00  0.00    -0.163 NA
ATOM     23  C   UNL     1       0.154  -0.780   2.426  0.00  0.00    +0.175 C 
ATOM     24  H   UNL     1       3.145  -1.487   3.124  0.00  0.00    +0.170 HD
BRANCH  19  26
ATOM     25  C   UNL     1      -0.019   1.526   0.010  0.00  0.00    +0.024 C 
ATOM     26  C   UNL     1       0.002  -0.004   0.002  0.00  0.00    +0.105 C 
ENDBRANCH  19  26
BRANCH  20  27
ATOM     27  C   UNL     1       2.959   0.519   1.060  0.00  0.00    +0.053 C 
BRANCH  27  28
ATOM     28  C   UNL     1       4.453   0.189   1.062  0.00  0.00    +0.099 C 
BRANCH  28  29
ATOM     29  C   UNL     1       5.246   1.448   0.821  0.00  0.00    +0.211 C 
ATOM     30  O   UNL     1       4.673   2.505   0.664  0.00  0.00    -0.276 OA
ATOM     31  N   UNL     1       6.593   1.398   0.781  0.00  0.00    -0.329 N 
ATOM     32  H   UNL     1       7.051   0.553   0.907  0.00  0.00    +0.145 HD
ATOM     33  H   UNL     1       7.103   2.208   0.626  0.00  0.00    +0.145 HD
ENDBRANCH  28  29
ENDBRANCH  27  28
ENDBRANCH  20  27
ENDBRANCH  18  23
ENDBRANCH   1  18
TORSDOF 8
