REMARK  Name = ZINC12663985
REMARK  3 active torsions:
REMARK  status: ('A' for Active; 'I' for Inactive)
REMARK    1  A    between atoms: C_8  and  C_10
REMARK    2  A    between atoms: C_10  and  C_11
REMARK    3  A    between atoms: N_22  and  C_25
REMARK                            x       y       z     vdW  Elec       q    Type
REMARK                         _______ _______ _______ _____ _____    ______ ____
ROOT
ATOM      1  C   UNL     1      -1.225   2.190   0.031  0.00  0.00    +0.112 C 
ATOM      2  C   UNL     1      -0.851   3.674   0.145  0.00  0.00    +0.103 C 
ATOM      3  S   UNL     1       0.977   3.581   0.097  0.00  0.00    -0.085 S 
ATOM      4  C   UNL     1       1.173   1.817  -0.046  0.00  0.00    +0.174 A 
ATOM      5  N   UNL     1      -0.083   1.282  -0.060  0.00  0.00    -0.283 N 
ATOM      6  C   UNL     1      -0.184  -0.083  -0.165  0.00  0.00    +0.266 A 
ATOM      7  O   UNL     1      -1.281  -0.614  -0.182  0.00  0.00    -0.267 OA
ATOM      8  C   UNL     1       0.984  -0.870  -0.254  0.00  0.00    +0.103 A 
ATOM      9  C   UNL     1       1.231  -2.255  -0.368  0.00  0.00    +0.150 A 
ATOM     10  N   UNL     1       2.521  -2.443  -0.412  0.00  0.00    -0.172 NA
ATOM     11  N   UNL     1       3.178  -1.208  -0.330  0.00  0.00    -0.214 N 
ATOM     12  C   UNL     1       2.235  -0.231  -0.232  0.00  0.00    +0.171 A 
ATOM     13  N   UNL     1       2.272   1.101  -0.128  0.00  0.00    -0.203 NA
ENDROOT
BRANCH  11  14
ATOM     14  C   UNL     1       4.565  -1.013  -0.346  0.00  0.00    +0.068 A 
ATOM     15  C   UNL     1       5.102   0.106  -0.968  0.00  0.00    +0.029 A 
ATOM     16  C   UNL     1       6.470   0.299  -0.978  0.00  0.00    +0.022 A 
ATOM     17  C   UNL     1       7.305  -0.628  -0.380  0.00  0.00    +0.041 A 
ATOM     18  C   UNL     1       6.772  -1.748   0.235  0.00  0.00    +0.022 A 
ATOM     19  C   UNL     1       5.405  -1.942   0.253  0.00  0.00    +0.029 A 
ATOM     20 CL   UNL     1       9.024  -0.386  -0.400  0.00  0.00    -0.084 Cl
ENDBRANCH  11  14
BRANCH   1  21
ATOM     21  C   UNL     1      -2.053   1.807   1.260  0.00  0.00    +0.122 C 
BRANCH  21  29
ATOM     22  C   UNL     1      -7.459   3.745   3.361  0.00  0.00    +0.005 A 
ATOM     23  C   UNL     1      -7.727   4.575   2.280  0.00  0.00    +0.020 A 
ATOM     24  C   UNL     1      -6.791   4.695   1.272  0.00  0.00    +0.113 A 
ATOM     25  N   UNL     1      -5.648   4.038   1.328  0.00  0.00    -0.240 NA
ATOM     26  C   UNL     1      -5.359   3.234   2.338  0.00  0.00    +0.125 A 
ATOM     27  C   UNL     1      -6.255   3.065   3.388  0.00  0.00    +0.044 A 
ATOM     28  N   UNL     1      -4.141   2.555   2.353  0.00  0.00    -0.270 N 
ATOM     29  C   UNL     1      -3.315   2.630   1.292  0.00  0.00    +0.220 C 
ATOM     30  O   UNL     1      -3.586   3.360   0.362  0.00  0.00    -0.275 OA
ATOM     31  H   UNL     1      -3.890   2.028   3.128  0.00  0.00    +0.156 HD
ENDBRANCH  21  29
ENDBRANCH   1  21
TORSDOF 3
