REMARK  Name = ZINC43492342
REMARK  10 active torsions:
REMARK  status: ('A' for Active; 'I' for Inactive)
REMARK    1  A    between atoms: C_1  and  N_2
REMARK    2  A    between atoms: N_2  and  C_3
REMARK    3  A    between atoms: N_2  and  C_4
REMARK    4  A    between atoms: C_4  and  C_5
REMARK    5  A    between atoms: C_5  and  C_7
REMARK    6  A    between atoms: C_5  and  C_23
REMARK    7  A    between atoms: C_7  and  N_8
REMARK    8  A    between atoms: N_11  and  C_12
REMARK    9  A    between atoms: C_23  and  C_25
REMARK   10  A    between atoms: C_23  and  O_31
REMARK                            x       y       z     vdW  Elec       q    Type
REMARK                         _______ _______ _______ _____ _____    ______ ____
ROOT
ATOM      1  N   UNL     1      -3.183  -1.491  -1.935  0.00  0.00    -0.299 N 
ATOM      2  C   UNL     1      -4.399  -1.712  -2.472  0.00  0.00    +0.304 C 
ATOM      3  O   UNL     1      -5.234  -2.338  -1.848  0.00  0.00    -0.253 OA
ATOM      4  N   UNL     1      -4.690  -1.239  -3.700  0.00  0.00    -0.269 N 
ATOM      5  H   UNL     1      -2.516  -0.992  -2.433  0.00  0.00    +0.150 HD
ATOM      6  H   UNL     1      -4.005  -0.794  -4.223  0.00  0.00    +0.156 HD
ENDROOT
BRANCH   4   7
ATOM      7  C   UNL     1      -5.982  -1.391  -4.221  0.00  0.00    +0.038 A 
ATOM      8  C   UNL     1      -6.532  -0.392  -5.012  0.00  0.00    +0.027 A 
ATOM      9  C   UNL     1      -7.807  -0.538  -5.529  0.00  0.00    +0.051 A 
ATOM     10  C   UNL     1      -8.533  -1.685  -5.255  0.00  0.00    +0.162 A 
ATOM     11  C   UNL     1      -7.985  -2.685  -4.465  0.00  0.00    +0.164 A 
ATOM     12  C   UNL     1      -6.708  -2.543  -3.951  0.00  0.00    +0.072 A 
ATOM     13  O   UNL     1      -8.711  -3.811  -4.205  0.00  0.00    -0.488 OA
ATOM     14  C   UNL     1      -9.858  -3.636  -3.371  0.00  0.00    +0.232 C 
ATOM     15  C   UNL     1     -11.058  -3.189  -4.191  0.00  0.00    +0.082 C 
ATOM     16  C   UNL     1     -10.856  -1.814  -4.809  0.00  0.00    +0.232 C 
ATOM     17  O   UNL     1      -9.792  -1.839  -5.762  0.00  0.00    -0.488 OA
ENDBRANCH   4   7
BRANCH   1  18
ATOM     18  C   UNL     1      -2.866  -2.005  -0.600  0.00  0.00    +0.110 C 
BRANCH  18  19
ATOM     19  C   UNL     1      -1.506  -1.464  -0.155  0.00  0.00    +0.023 C 
BRANCH  19  20
ATOM     20  C   UNL     1      -1.623   0.034   0.135  0.00  0.00    -0.072 C 
BRANCH  20  22
ATOM     21  C   UNL     1      -2.087   2.183  -0.825  0.00  0.00    -0.097 C 
ATOM     22  N   UNL     1      -1.910   0.754  -1.113  0.00  0.00    +0.376 N 
ATOM     23  C   UNL     1      -0.790   0.578  -2.047  0.00  0.00    -0.097 C 
ATOM     24  H   UNL     1      -2.753   0.387  -1.527  0.00  0.00    -0.083 HD
ENDBRANCH  20  22
ENDBRANCH  19  20
BRANCH  19  25
ATOM     25  C   UNL     1      -1.057  -2.195   1.112  0.00  0.00    +0.147 C 
BRANCH  25  26
ATOM     26  C   UNL     1       0.253  -1.619   1.587  0.00  0.00    -0.019 A 
ATOM     27  C   UNL     1       1.432  -1.977   0.961  0.00  0.00    +0.006 A 
ATOM     28  C   UNL     1       2.633  -1.449   1.396  0.00  0.00    +0.000 A 
ATOM     29  C   UNL     1       2.655  -0.562   2.457  0.00  0.00    +0.000 A 
ATOM     30  C   UNL     1       1.475  -0.204   3.082  0.00  0.00    +0.000 A 
ATOM     31  C   UNL     1       0.273  -0.729   2.644  0.00  0.00    +0.006 A 
ENDBRANCH  25  26
BRANCH  25  32
ATOM     32  O   UNL     1      -0.890  -3.585   0.826  0.00  0.00    -0.387 OA
ATOM     33  H   UNL     1      -0.233  -3.769   0.141  0.00  0.00    +0.210 HD
ENDBRANCH  25  32
ENDBRANCH  19  25
ENDBRANCH  18  19
ENDBRANCH   1  18
TORSDOF 8
