REMARK  Name = ZINC09831809
REMARK  10 active torsions:
REMARK  status: ('A' for Active; 'I' for Inactive)
REMARK    1  A    between atoms: C_1  and  C_2
REMARK    2  A    between atoms: C_2  and  O_3
REMARK    3  A    between atoms: O_3  and  C_4
REMARK    4  A    between atoms: C_6  and  C_19
REMARK    5  A    between atoms: C_9  and  O_10
REMARK    6  A    between atoms: O_10  and  C_11
REMARK    7  A    between atoms: C_11  and  C_12
REMARK    8  A    between atoms: C_24  and  O_33
REMARK    9  A    between atoms: C_28  and  N_32
REMARK   10  A    between atoms: C_29  and  C_30
REMARK                            x       y       z     vdW  Elec       q    Type
REMARK                         _______ _______ _______ _____ _____    ______ ____
ROOT
ATOM      1  C   UNL     1       1.943  -3.175   2.826  0.00  0.00    +0.162 A 
ATOM      2  C   UNL     1       1.685  -2.675   1.560  0.00  0.00    +0.054 A 
ATOM      3  C   UNL     1       1.571  -1.311   1.366  0.00  0.00    -0.031 A 
ATOM      4  C   UNL     1       1.704  -0.444   2.434  0.00  0.00    +0.008 A 
ATOM      5  C   UNL     1       1.956  -0.937   3.701  0.00  0.00    +0.050 A 
ATOM      6  C   UNL     1       2.076  -2.303   3.902  0.00  0.00    +0.162 A 
ENDROOT
BRANCH   3   7
ATOM      7  C   UNL     1       1.296  -0.768  -0.013  0.00  0.00    +0.098 C 
ATOM      8  C   UNL     1       2.428   0.134  -0.429  0.00  0.00    +0.008 A 
ATOM      9  C   UNL     1       3.625  -0.424  -0.843  0.00  0.00    +0.012 A 
ATOM     10  C   UNL     1       4.674   0.387  -1.228  0.00  0.00    +0.046 A 
ATOM     11  C   UNL     1       4.530   1.767  -1.201  0.00  0.00    +0.120 A 
ATOM     12  C   UNL     1       3.333   2.329  -0.787  0.00  0.00    +0.092 A 
ATOM     13  C   UNL     1       2.279   1.511  -0.400  0.00  0.00    +0.138 A 
ATOM     14  O   UNL     1       1.114   2.076   0.003  0.00  0.00    -0.441 OA
ATOM     15  C   UNL     1      -0.016   1.350   0.009  0.00  0.00    +0.199 C 
ATOM     16  C   UNL     1       0.002  -0.004   0.002  0.00  0.00    +0.098 C 
BRANCH  15  17
ATOM     17  N   UNL     1      -1.226   1.999   0.019  0.00  0.00    -0.328 N 
ATOM     18  H   UNL     1      -2.050   1.489   0.020  0.00  0.00    +0.145 HD
ATOM     19  H   UNL     1      -1.255   2.969   0.024  0.00  0.00    +0.145 HD
ENDBRANCH  15  17
BRANCH  16  20
ATOM     20  C   UNL     1      -1.237  -0.723   0.009  0.00  0.00    +0.101 C 
ATOM     21  N   UNL     1      -2.219  -1.292   0.015  0.00  0.00    -0.191 NA
ENDBRANCH  16  20
BRANCH  11  22
ATOM     22  O   UNL     1       5.562   2.567  -1.580  0.00  0.00    -0.507 OA
ATOM     23  H   UNL     1       6.155   2.813  -0.857  0.00  0.00    +0.292 HD
ENDBRANCH  11  22
ENDBRANCH   3   7
BRANCH   1  24
ATOM     24  O   UNL     1       2.059  -4.517   3.018  0.00  0.00    -0.489 OA
BRANCH  24  26
ATOM     25  C   UNL     1       2.074  -6.817   2.277  0.00  0.00    +0.048 C 
ATOM     26  C   UNL     1       1.911  -5.352   1.868  0.00  0.00    +0.226 C 
ENDBRANCH  24  26
ENDBRANCH   1  24
BRANCH   6  27
ATOM     27  O   UNL     1       2.324  -2.790   5.147  0.00  0.00    -0.484 OA
BRANCH  27  28
ATOM     28  C   UNL     1       2.449  -1.835   6.203  0.00  0.00    +0.264 C 
BRANCH  28  29
ATOM     29  C   UNL     1       2.721  -2.554   7.500  0.00  0.00    -0.009 A 
ATOM     30  C   UNL     1       4.022  -2.811   7.889  0.00  0.00    +0.007 A 
ATOM     31  C   UNL     1       4.272  -3.469   9.078  0.00  0.00    +0.002 A 
ATOM     32  C   UNL     1       3.220  -3.872   9.880  0.00  0.00    +0.020 A 
ATOM     33  C   UNL     1       1.917  -3.616   9.491  0.00  0.00    +0.041 A 
ATOM     34  C   UNL     1       1.668  -2.952   8.303  0.00  0.00    +0.027 A 
ATOM     35 CL   UNL     1       0.596  -4.121  10.497  0.00  0.00    -0.084 Cl
ENDBRANCH  28  29
ENDBRANCH  27  28
ENDBRANCH   6  27
TORSDOF 9
