REMARK  Name = ZINC49682354
REMARK  4 active torsions:
REMARK  status: ('A' for Active; 'I' for Inactive)
REMARK    1  A    between atoms: C_6  and  C_7
REMARK    2  A    between atoms: C_7  and  C_8
REMARK    3  A    between atoms: C_8  and  C_9
REMARK    4  A    between atoms: N_11  and  C_12
REMARK                            x       y       z     vdW  Elec       q    Type
REMARK                         _______ _______ _______ _____ _____    ______ ____
ROOT
ATOM      1  C   UNL     1      -1.750  -1.020  -1.429  0.00  0.00    +0.101 C 
ENDROOT
BRANCH   1   2
ATOM      2  C   UNL     1      -3.041  -1.796  -1.421  0.00  0.00    +0.218 C 
ATOM      3  O   UNL     1      -3.548  -2.119  -0.368  0.00  0.00    -0.275 OA
ATOM      4  N   UNL     1      -3.633  -2.132  -2.584  0.00  0.00    -0.285 N 
ATOM      5  H   UNL     1      -3.264  -1.818  -3.425  0.00  0.00    +0.155 HD
BRANCH   4   6
ATOM      6  C   UNL     1      -4.779  -2.935  -2.580  0.00  0.00    +0.036 A 
ATOM      7  C   UNL     1      -4.983  -3.861  -3.595  0.00  0.00    +0.043 A 
ATOM      8  C   UNL     1      -6.116  -4.653  -3.588  0.00  0.00    +0.044 A 
ATOM      9  C   UNL     1      -7.046  -4.524  -2.571  0.00  0.00    +0.040 A 
ATOM     10  C   UNL     1      -6.845  -3.603  -1.559  0.00  0.00    +0.044 A 
ATOM     11  C   UNL     1      -5.711  -2.812  -1.558  0.00  0.00    +0.043 A 
ATOM     12 CL   UNL     1      -8.014  -3.444  -0.285  0.00  0.00    -0.083 Cl
ATOM     13 CL   UNL     1      -6.373  -5.810  -4.856  0.00  0.00    -0.083 Cl
ENDBRANCH   4   6
ENDBRANCH   1   2
BRANCH   1  14
ATOM     14  C   UNL     1      -1.295  -0.771   0.010  0.00  0.00    +0.044 C 
BRANCH  14  20
ATOM     15  C   UNL     1      -0.030   1.389   0.015  0.00  0.00    +0.007 A 
ATOM     16  C   UNL     1       1.149   2.109   0.008  0.00  0.00    +0.049 A 
ATOM     17  C   UNL     1       2.365   1.445  -0.013  0.00  0.00    +0.157 A 
ATOM     18  C   UNL     1       2.390   0.050  -0.027  0.00  0.00    +0.088 A 
ATOM     19  C   UNL     1       1.204  -0.666  -0.020  0.00  0.00    +0.033 A 
ATOM     20  C   UNL     1      -0.004   0.006   0.002  0.00  0.00    -0.045 A 
ATOM     21  N   UNL     1       3.734  -0.323  -0.047  0.00  0.00    -0.288 N 
ATOM     22  H   UNL     1       4.077  -1.231  -0.060  0.00  0.00    +0.172 HD
ATOM     23  C   UNL     1       4.469   0.806  -0.045  0.00  0.00    +0.419 A 
ATOM     24  O   UNL     1       5.684   0.854  -0.059  0.00  0.00    -0.223 OA
ATOM     25  O   UNL     1       3.651   1.871  -0.025  0.00  0.00    -0.408 OA
ENDBRANCH  14  20
ENDBRANCH   1  14
TORSDOF 4
