REMARK  Name = ZINC41333915
REMARK  4 active torsions:
REMARK  status: ('A' for Active; 'I' for Inactive)
REMARK    1  A    between atoms: C_9  and  N_11
REMARK    2  A    between atoms: C_13  and  N_26
REMARK    3  A    between atoms: C_14  and  N_25
REMARK    4  A    between atoms: N_18  and  C_19
REMARK                            x       y       z     vdW  Elec       q    Type
REMARK                         _______ _______ _______ _____ _____    ______ ____
ROOT
ATOM      1  N   UNL     1       1.200  -2.089  -0.021  0.00  0.00    -0.296 N 
ATOM      2  C   UNL     1       0.007  -2.788   0.091  0.00  0.00    +0.160 A 
ATOM      3  C   UNL     1       0.009  -4.176   0.194  0.00  0.00    +0.205 A 
ATOM      4  C   UNL     1      -1.212  -4.834   0.305  0.00  0.00    +0.154 A 
ATOM      5  N   UNL     1      -2.335  -4.119   0.308  0.00  0.00    -0.197 NA
ATOM      6  C   UNL     1      -2.300  -2.799   0.208  0.00  0.00    +0.219 A 
ATOM      7  N   UNL     1      -1.156  -2.139   0.106  0.00  0.00    -0.197 NA
ATOM      8  N   UNL     1      -3.488  -2.090   0.215  0.00  0.00    -0.311 N 
ATOM      9  H   UNL     1       2.037  -2.571  -0.115  0.00  0.00    +0.154 HD
ATOM     10  H   UNL     1      -3.476  -1.123   0.143  0.00  0.00    +0.149 HD
ENDROOT
BRANCH   1  19
ATOM     11  C   UNL     1       0.155   1.379   0.649  0.00  0.00    +0.003 A 
ATOM     12  C   UNL     1       1.152   2.103   0.068  0.00  0.00    +0.010 A 
ATOM     13  C   UNL     1       2.215   1.445  -0.571  0.00  0.00    +0.002 A 
ATOM     14  C   UNL     1       3.260   2.165  -1.180  0.00  0.00    +0.011 A 
ATOM     15  C   UNL     1       4.262   1.460  -1.784  0.00  0.00    +0.020 A 
ATOM     16  C   UNL     1       4.229   0.067  -1.785  0.00  0.00    +0.111 A 
ATOM     17  N   UNL     1       3.253  -0.599  -1.217  0.00  0.00    -0.253 NA
ATOM     18  C   UNL     1       2.244   0.030  -0.609  0.00  0.00    +0.092 A 
ATOM     19  C   UNL     1       1.196  -0.694   0.001  0.00  0.00    +0.059 A 
ATOM     20  C   UNL     1       0.171  -0.012   0.619  0.00  0.00    +0.025 A 
ENDBRANCH   1  19
BRANCH   8  21
ATOM     21  C   UNL     1      -4.764  -2.801   0.333  0.00  0.00    +0.073 C 
ATOM     22  C   UNL     1      -5.219  -3.264  -1.052  0.00  0.00    +0.022 C 
ATOM     23  C   UNL     1      -6.551  -4.006  -0.930  0.00  0.00    +0.002 C 
ATOM     24  C   UNL     1      -7.604  -3.069  -0.334  0.00  0.00    +0.000 C 
ATOM     25  C   UNL     1      -7.149  -2.606   1.051  0.00  0.00    +0.002 C 
ATOM     26  C   UNL     1      -5.816  -1.864   0.928  0.00  0.00    +0.022 C 
ENDBRANCH   8  21
BRANCH   4  27
ATOM     27  N   UNL     1      -1.259  -6.215   0.410  0.00  0.00    -0.341 N 
ATOM     28  H   UNL     1      -0.436  -6.730   0.406  0.00  0.00    +0.144 HD
ATOM     29  H   UNL     1      -2.114  -6.668   0.487  0.00  0.00    +0.144 HD
ENDBRANCH   4  27
BRANCH   3  30
ATOM     30  N   UNL     1       1.280  -4.934   0.186  0.00  0.00    +0.063 N 
ATOM     31  O   UNL     1       1.853  -5.166   1.225  0.00  0.00    -0.126 OA
ATOM     32  O   UNL     1       1.746  -5.322  -0.861  0.00  0.00    -0.126 OA
ENDBRANCH   3  30
TORSDOF 4
