REMARK  Name = ZINC14458844
REMARK  4 active torsions:
REMARK  status: ('A' for Active; 'I' for Inactive)
REMARK    1  A    between atoms: C_1  and  O_2
REMARK    2  A    between atoms: O_2  and  C_3
REMARK    3  A    between atoms: C_5  and  C_10
REMARK    4  A    between atoms: C_8  and  O_9
REMARK                            x       y       z     vdW  Elec       q    Type
REMARK                         _______ _______ _______ _____ _____    ______ ____
ROOT
ATOM      1  C   UNL     1       5.107   3.325  -0.034  0.00  0.00    +0.105 C 
ATOM      2  C   UNL     1       4.986   4.816  -0.273  0.00  0.00    +0.029 C 
ATOM      3  C   UNL     1       4.284   5.660   0.797  0.00  0.00    +0.033 C 
ATOM      4  C   UNL     1       4.993   7.008   0.634  0.00  0.00    -0.030 C 
ATOM      5  C   UNL     1       6.209   6.822   0.132  0.00  0.00    -0.023 C 
ATOM      6  C   UNL     1       6.428   5.365  -0.045  0.00  0.00    +0.049 C 
ATOM      7  C   UNL     1       7.273   4.811  -1.126  0.00  0.00    -0.019 A 
ATOM      8  C   UNL     1       8.333   5.537  -1.661  0.00  0.00    +0.006 A 
ATOM      9  C   UNL     1       9.120   5.028  -2.646  0.00  0.00    +0.009 A 
ATOM     10  C   UNL     1       8.867   3.736  -3.138  0.00  0.00    -0.016 A 
ATOM     11  C   UNL     1       9.666   3.176  -4.150  0.00  0.00    +0.008 A 
ATOM     12  C   UNL     1       9.399   1.920  -4.601  0.00  0.00    +0.001 A 
ATOM     13  C   UNL     1       8.343   1.179  -4.074  0.00  0.00    +0.001 A 
ATOM     14  C   UNL     1       7.548   1.691  -3.094  0.00  0.00    +0.010 A 
ATOM     15  C   UNL     1       7.794   2.985  -2.606  0.00  0.00    +0.003 A 
ATOM     16  C   UNL     1       6.972   3.538  -1.590  0.00  0.00    +0.039 A 
ATOM     17  N   UNL     1       5.903   2.774  -1.142  0.00  0.00    -0.336 N 
ATOM     18  H   UNL     1       6.193   1.828  -0.943  0.00  0.00    +0.147 HD
ENDROOT
BRANCH   1  21
ATOM     19  C   UNL     1       1.866   1.824   1.198  0.00  0.00    +0.162 A 
ATOM     20  C   UNL     1       3.126   2.399   1.184  0.00  0.00    +0.054 A 
ATOM     21  C   UNL     1       3.738   2.693  -0.020  0.00  0.00    -0.023 A 
ATOM     22  C   UNL     1       3.098   2.410  -1.212  0.00  0.00    +0.009 A 
ATOM     23  C   UNL     1       1.843   1.830  -1.205  0.00  0.00    +0.049 A 
ATOM     24  C   UNL     1       1.224   1.533  -0.001  0.00  0.00    +0.158 A 
BRANCH  19  26
ATOM     25  C   UNL     1       1.978   1.865   3.574  0.00  0.00    +0.277 C 
ATOM     26  O   UNL     1       1.260   1.539   2.382  0.00  0.00    -0.491 OA
ENDBRANCH  19  26
BRANCH  24  27
ATOM     27  O   UNL     1      -0.011   0.963   0.007  0.00  0.00    -0.503 OA
ATOM     28  H   UNL     1       0.002  -0.004   0.002  0.00  0.00    +0.292 HD
ENDBRANCH  24  27
ENDBRANCH   1  21
TORSDOF 3
