REMARK  Name = ZINC58789665
REMARK  6 active torsions:
REMARK  status: ('A' for Active; 'I' for Inactive)
REMARK    1  A    between atoms: C_3  and  S_11
REMARK    2  A    between atoms: C_6  and  S_7
REMARK    3  A    between atoms: S_7  and  N_10
REMARK    4  A    between atoms: S_11  and  N_14
REMARK    5  A    between atoms: N_17  and  C_20
REMARK    6  A    between atoms: C_23  and  N_27
REMARK                            x       y       z     vdW  Elec       q    Type
REMARK                         _______ _______ _______ _____ _____    ______ ____
ROOT
ATOM      1  N   UNL     1       4.327   2.556   1.555  0.00  0.00    -0.174 NA
ATOM      2  C   UNL     1       3.872   3.749   2.282  0.00  0.00    +0.128 C 
ATOM      3  C   UNL     1       3.152   3.300   3.559  0.00  0.00    +0.122 C 
ATOM      4  N   UNL     1       4.001   2.326   4.259  0.00  0.00    -0.325 N 
ATOM      5  C   UNL     1       4.456   1.133   3.533  0.00  0.00    +0.122 C 
ATOM      6  C   UNL     1       5.172   1.579   2.257  0.00  0.00    +0.128 C 
ENDROOT
BRANCH   4   7
ATOM      7  C   UNL     1       4.370   2.531   5.593  0.00  0.00    +0.066 A 
ATOM      8  C   UNL     1       3.576   2.035   6.618  0.00  0.00    +0.028 A 
ATOM      9  C   UNL     1       3.943   2.239   7.934  0.00  0.00    +0.035 A 
ATOM     10  C   UNL     1       5.099   2.937   8.232  0.00  0.00    +0.129 A 
ATOM     11  C   UNL     1       5.892   3.434   7.214  0.00  0.00    +0.073 A 
ATOM     12  C   UNL     1       5.535   3.228   5.894  0.00  0.00    +0.146 A 
ATOM     13  F   UNL     1       6.312   3.709   4.900  0.00  0.00    -0.203 F 
BRANCH  10  14
ATOM     14  N   UNL     1       5.488   3.153   9.644  0.00  0.00    +0.057 N 
ATOM     15  O   UNL     1       4.795   2.720  10.535  0.00  0.00    -0.126 OA
ATOM     16  O   UNL     1       6.498   3.763   9.906  0.00  0.00    -0.126 OA
ENDBRANCH  10  14
ENDBRANCH   4   7
BRANCH   1  17
ATOM     17  S   UNL     1       3.891   2.312  -0.024  0.00  0.00    +0.061 S 
ATOM     18  O   UNL     1       4.872   1.453  -0.588  0.00  0.00    -0.153 OA
ATOM     19  O   UNL     1       3.597   3.593  -0.566  0.00  0.00    -0.153 OA
BRANCH  17  22
ATOM     20  C   UNL     1      -0.017   1.378   0.010  0.00  0.00    +0.030 A 
ATOM     21  C   UNL     1       1.171   2.086   0.002  0.00  0.00    +0.030 A 
ATOM     22  C   UNL     1       2.377   1.411  -0.013  0.00  0.00    +0.106 A 
ATOM     23  C   UNL     1       2.396   0.029  -0.020  0.00  0.00    +0.030 A 
ATOM     24  C   UNL     1       1.208  -0.679  -0.012  0.00  0.00    +0.030 A 
ATOM     25  C   UNL     1       0.002  -0.004   0.002  0.00  0.00    +0.105 A 
BRANCH  25  26
ATOM     26  S   UNL     1      -1.512  -0.906   0.012  0.00  0.00    +0.056 S 
ATOM     27  O   UNL     1      -1.218  -2.186   0.553  0.00  0.00    -0.153 OA
ATOM     28  O   UNL     1      -2.492  -0.047   0.577  0.00  0.00    -0.153 OA
BRANCH  26  29
ATOM     29  N   UNL     1      -1.948  -1.148  -1.567  0.00  0.00    -0.204 NA
ATOM     30  H   UNL     1      -2.456  -1.936  -1.814  0.00  0.00    +0.144 HD
ATOM     31  H   UNL     1      -1.696  -0.501  -2.244  0.00  0.00    +0.144 HD
ENDBRANCH  26  29
ENDBRANCH  25  26
ENDBRANCH  17  22
ENDBRANCH   1  17
TORSDOF 6
