REMARK  Name = ZINC39452223
REMARK  8 active torsions:
REMARK  status: ('A' for Active; 'I' for Inactive)
REMARK    1  A    between atoms: C_1  and  C_2
REMARK    2  A    between atoms: C_2  and  C_3
REMARK    3  A    between atoms: C_2  and  S_4
REMARK    4  A    between atoms: S_4  and  C_7
REMARK    5  A    between atoms: C_17  and  C_20
REMARK    6  A    between atoms: C_25  and  O_26
REMARK    7  A    between atoms: N_29  and  S_30
REMARK    8  A    between atoms: S_30  and  C_31
REMARK                            x       y       z     vdW  Elec       q    Type
REMARK                         _______ _______ _______ _____ _____    ______ ____
ROOT
ATOM      1  C   UNL     1       2.506   0.133  -1.319  0.00  0.00    +0.222 C 
ATOM      2  C   UNL     1       3.368  -0.256  -2.526  0.00  0.00    +0.127 C 
ATOM      3  C   UNL     1       2.842   0.432  -3.758  0.00  0.00    +0.186 C 
ATOM      4  O   UNL     1       2.974  -0.095  -4.844  0.00  0.00    -0.290 OA
ATOM      5  C   UNL     1       2.195   1.685  -3.662  0.00  0.00    +0.122 A 
ATOM      6  C   UNL     1       1.989   2.259  -2.420  0.00  0.00    +0.083 A 
ATOM      7  C   UNL     1       1.324   3.564  -2.321  0.00  0.00    +0.099 A 
ATOM      8  C   UNL     1       0.902   4.190  -3.515  0.00  0.00    +0.068 A 
ATOM      9  C   UNL     1       0.267   5.428  -3.450  0.00  0.00    +0.025 A 
ATOM     10  C   UNL     1       0.076   5.999  -2.190  0.00  0.00    +0.004 A 
ATOM     11  C   UNL     1       0.523   5.316  -1.053  0.00  0.00    +0.120 A 
ATOM     12  N   UNL     1       1.118   4.149  -1.146  0.00  0.00    -0.252 NA
ATOM     13  C   UNL     1       1.147   3.514  -4.797  0.00  0.00    +0.271 A 
ATOM     14  O   UNL     1       0.790   4.035  -5.838  0.00  0.00    -0.266 OA
ATOM     15  N   UNL     1       1.766   2.320  -4.821  0.00  0.00    -0.245 N 
ATOM     16  N   UNL     1       2.406   1.600  -1.278  0.00  0.00    -0.319 N 
ATOM     17  H   UNL     1       2.627   2.092  -0.472  0.00  0.00    +0.148 HD
ENDROOT
BRANCH  10  18
ATOM     18  C   UNL     1      -0.592   7.315  -2.058  0.00  0.00    +0.025 A 
ATOM     19  C   UNL     1      -0.176   8.393  -2.837  0.00  0.00    +0.012 A 
ATOM     20  C   UNL     1      -0.802   9.616  -2.711  0.00  0.00    +0.001 A 
ATOM     21  C   UNL     1      -1.843   9.777  -1.813  0.00  0.00    +0.004 A 
ATOM     22  C   UNL     1      -2.265   8.715  -1.036  0.00  0.00    +0.046 A 
ATOM     23  C   UNL     1      -1.648   7.479  -1.156  0.00  0.00    +0.125 A 
BRANCH  23  24
ATOM     24  O   UNL     1      -2.065   6.433  -0.396  0.00  0.00    -0.506 OA
ATOM     25  H   UNL     1      -1.611   6.359   0.454  0.00  0.00    +0.292 HD
ENDBRANCH  23  24
ENDBRANCH  10  18
BRANCH   1  26
ATOM     26  S   UNL     1       0.851  -0.589  -1.490  0.00  0.00    -0.010 S 
ATOM     27  O   UNL     1       0.968  -2.003  -1.416  0.00  0.00    -0.172 OA
ATOM     28  O   UNL     1       0.222  -0.006  -2.623  0.00  0.00    -0.172 OA
BRANCH  26  30
ATOM     29  C   UNL     1      -0.019   1.526   0.010  0.00  0.00    +0.031 C 
ATOM     30  C   UNL     1       0.002  -0.004   0.002  0.00  0.00    +0.126 C 
ATOM     31  C   UNL     1      -1.433  -0.534   0.013  0.00  0.00    +0.031 C 
ENDBRANCH  26  30
ENDBRANCH   1  26
BRANCH  15  32
ATOM     32  S   UNL     1       2.027   1.582  -6.281  0.00  0.00    -0.044 S 
ATOM     33  C   UNL     1       0.539   0.576  -6.535  0.00  0.00    +0.110 C 
ENDBRANCH  15  32
TORSDOF 5
