REMARK  Name = ZINC13770985
REMARK  10 active torsions:
REMARK  status: ('A' for Active; 'I' for Inactive)
REMARK    1  A    between atoms: C_1  and  C_2
REMARK    2  A    between atoms: N_5  and  C_7
REMARK    3  A    between atoms: N_17  and  C_20
REMARK    4  A    between atoms: C_20  and  C_21
REMARK    5  A    between atoms: C_21  and  C_22
REMARK    6  A    between atoms: C_25  and  O_30
REMARK    7  A    between atoms: C_26  and  O_28
REMARK    8  A    between atoms: O_28  and  C_29
REMARK    9  A    between atoms: O_30  and  C_31
REMARK   10  A    between atoms: C_32  and  C_34
REMARK                            x       y       z     vdW  Elec       q    Type
REMARK                         _______ _______ _______ _____ _____    ______ ____
ROOT
ATOM      1  C   UNL     1       5.130   1.464  -0.100  0.00  0.00    +0.068 C 
ATOM      2  C   UNL     1       3.699   1.007   0.033  0.00  0.00    +0.068 A 
ATOM      3  C   UNL     1       2.584   1.833   0.096  0.00  0.00    +0.049 A 
ATOM      4  C   UNL     1       1.476   1.041   0.213  0.00  0.00    +0.230 A 
ATOM      5  N   UNL     1       1.894  -0.243   0.223  0.00  0.00    -0.200 N 
ATOM      6  N   UNL     1       3.293  -0.238   0.108  0.00  0.00    -0.168 NA
ATOM      7  O   UNL     1       0.223   1.547   0.292  0.00  0.00    -0.419 OA
ATOM      8  C   UNL     1       0.035   2.849  -0.041  0.00  0.00    +0.231 A 
ATOM      9  C   UNL     1       1.064   3.731  -0.172  0.00  0.00    +0.066 A 
ATOM     10  C   UNL     1       0.775   5.069  -0.532  0.00  0.00    +0.115 A 
ATOM     11  N   UNL     1      -0.543   5.426  -0.734  0.00  0.00    -0.318 N 
ATOM     12  C   UNL     1      -1.514   4.491  -0.581  0.00  0.00    +0.204 A 
ATOM     13  N   UNL     1      -1.230   3.265  -0.251  0.00  0.00    -0.202 NA
ATOM     14  C   UNL     1       2.503   3.335   0.051  0.00  0.00    +0.095 C 
ATOM     15  H   UNL     1       1.632   6.891  -0.915  0.00  0.00    +0.157 HD
ATOM     16  N   UNL     1       1.802   5.919  -0.657  0.00  0.00    -0.384 N 
ATOM     17  H   UNL     1       2.762   5.592  -0.493  0.00  0.00    +0.157 HD
ENDROOT
BRANCH   5  18
ATOM     18  C   UNL     1       1.078  -1.378   0.328  0.00  0.00    +0.069 A 
ATOM     19  C   UNL     1      -0.065  -1.342   1.117  0.00  0.00    +0.028 A 
ATOM     20  C   UNL     1      -0.870  -2.460   1.214  0.00  0.00    +0.002 A 
ATOM     21  C   UNL     1      -0.534  -3.617   0.536  0.00  0.00    +0.000 A 
ATOM     22  C   UNL     1       0.606  -3.658  -0.245  0.00  0.00    +0.002 A 
ATOM     23  C   UNL     1       1.413  -2.542  -0.351  0.00  0.00    +0.028 A 
ENDBRANCH   5  18
BRANCH  14  24
ATOM     24  C   UNL     1       2.989   3.908   1.357  0.00  0.00    -0.035 A 
ATOM     25  C   UNL     1       2.346   3.581   2.537  0.00  0.00    +0.004 A 
ATOM     26  C   UNL     1       2.795   4.103   3.736  0.00  0.00    +0.000 A 
ATOM     27  C   UNL     1       3.880   4.959   3.754  0.00  0.00    +0.000 A 
ATOM     28  C   UNL     1       4.519   5.290   2.574  0.00  0.00    +0.000 A 
ATOM     29  C   UNL     1       4.073   4.765   1.375  0.00  0.00    +0.004 A 
ENDBRANCH  14  24
BRANCH  11  30
ATOM     30  C   UNL     1      -0.890   6.800  -1.107  0.00  0.00    +0.129 C 
BRANCH  30  31
ATOM     31  C   UNL     1      -0.770   6.961  -2.624  0.00  0.00    +0.057 C 
BRANCH  31  32
ATOM     32  C   UNL     1      -1.127   8.374  -3.009  0.00  0.00    -0.042 A 
ATOM     33  C   UNL     1      -2.436   8.696  -3.315  0.00  0.00    +0.007 A 
ATOM     34  C   UNL     1      -2.770   9.992  -3.663  0.00  0.00    +0.049 A 
ATOM     35  C   UNL     1      -1.789  10.969  -3.716  0.00  0.00    +0.161 A 
ATOM     36  C   UNL     1      -0.470  10.643  -3.413  0.00  0.00    +0.162 A 
ATOM     37  C   UNL     1      -0.143   9.344  -3.060  0.00  0.00    +0.053 A 
BRANCH  36  38
ATOM     38  O   UNL     1       0.496  11.599  -3.464  0.00  0.00    -0.491 OA
ATOM     39  C   UNL     1       1.828  11.193  -3.140  0.00  0.00    +0.277 C 
ENDBRANCH  36  38
BRANCH  35  40
ATOM     40  O   UNL     1      -2.114  12.243  -4.063  0.00  0.00    -0.491 OA
ATOM     41  C   UNL     1      -3.487  12.504  -4.361  0.00  0.00    +0.277 C 
ENDBRANCH  35  40
ENDBRANCH  31  32
ENDBRANCH  30  31
ENDBRANCH  11  30
TORSDOF 7
