REMARK  Name = ZINC33763573
REMARK  6 active torsions:
REMARK  status: ('A' for Active; 'I' for Inactive)
REMARK    1  A    between atoms: C_5  and  C_7
REMARK    2  A    between atoms: N_9  and  N_10
REMARK    3  A    between atoms: N_10  and  C_11
REMARK    4  A    between atoms: C_11  and  C_20
REMARK    5  A    between atoms: C_12  and  C_13
REMARK    6  A    between atoms: C_13  and  C_15
REMARK                            x       y       z     vdW  Elec       q    Type
REMARK                         _______ _______ _______ _____ _____    ______ ____
ROOT
ATOM      1  N   UNL     1       0.014  -4.304  -0.932  0.00  0.00    -0.260 N 
ATOM      2  H   UNL     1      -0.059  -3.376  -1.203  0.00  0.00    +0.170 HD
ENDROOT
BRANCH   1   5
ATOM      3  C   UNL     1       2.340  -4.302  -1.440  0.00  0.00    +0.263 C 
ATOM      4  O   UNL     1       2.289  -3.099  -1.612  0.00  0.00    -0.269 OA
ATOM      5  N   UNL     1       1.240  -4.973  -1.045  0.00  0.00    -0.232 N 
ATOM      6  H   UNL     1       1.298  -5.919  -0.839  0.00  0.00    +0.173 HD
BRANCH   3  11
ATOM      7  C   UNL     1       4.881  -7.061  -1.587  0.00  0.00    +0.001 A 
ATOM      8  C   UNL     1       5.985  -6.387  -2.082  0.00  0.00    +0.003 A 
ATOM      9  C   UNL     1       5.908  -5.038  -2.369  0.00  0.00    +0.039 A 
ATOM     10  C   UNL     1       4.725  -4.351  -2.163  0.00  0.00    +0.136 A 
ATOM     11  C   UNL     1       3.607  -5.027  -1.663  0.00  0.00    +0.073 A 
ATOM     12  C   UNL     1       3.696  -6.391  -1.376  0.00  0.00    +0.016 A 
ATOM     13  F   UNL     1       4.649  -3.031  -2.444  0.00  0.00    -0.205 F 
ENDBRANCH   3  11
ENDBRANCH   1   5
BRANCH   1  14
ATOM     14  C   UNL     1      -1.079  -4.960  -0.439  0.00  0.00    +0.129 C 
ATOM     15  C   UNL     1      -2.224  -4.284  -0.207  0.00  0.00    +0.081 C 
BRANCH  14  16
ATOM     16  C   UNL     1      -1.006  -6.438  -0.154  0.00  0.00    +0.432 C 
ATOM     17  F   UNL     1      -2.239  -6.880   0.339  0.00  0.00    -0.165 F 
ATOM     18  F   UNL     1      -0.703  -7.126  -1.334  0.00  0.00    -0.165 F 
ATOM     19  F   UNL     1      -0.009  -6.681   0.797  0.00  0.00    -0.165 F 
ENDBRANCH  14  16
BRANCH  15  20
ATOM     20  C   UNL     1      -2.245  -2.872  -0.306  0.00  0.00    +0.194 C 
ATOM     21  O   UNL     1      -1.208  -2.259  -0.496  0.00  0.00    -0.287 OA
BRANCH  20  22
ATOM     22  C   UNL     1      -3.514  -2.145  -0.179  0.00  0.00    +0.059 A 
ATOM     23  C   UNL     1      -3.751  -0.781  -0.249  0.00  0.00    +0.019 A 
ATOM     24  C   UNL     1      -5.061  -0.393  -0.091  0.00  0.00    +0.008 A 
ATOM     25  C   UNL     1      -6.008  -1.341   0.117  0.00  0.00    +0.046 A 
ATOM     26  S   UNL     1      -5.154  -2.788   0.098  0.00  0.00    -0.093 S 
ENDBRANCH  20  22
ENDBRANCH  15  20
ENDBRANCH   1  14
TORSDOF 6
