REMARK  Name = ZINC15319714
REMARK  4 active torsions:
REMARK  status: ('A' for Active; 'I' for Inactive)
REMARK    1  A    between atoms: C_6  and  C_7
REMARK    2  A    between atoms: C_10  and  C_36
REMARK    3  A    between atoms: C_15  and  C_17
REMARK    4  A    between atoms: N_22  and  C_25
REMARK                            x       y       z     vdW  Elec       q    Type
REMARK                         _______ _______ _______ _____ _____    ______ ____
ROOT
ATOM      1  C   UNL     1       0.799  -8.040  -6.092  0.00  0.00    +0.104 C 
ATOM      2  C   UNL     1       2.183  -8.632  -5.800  0.00  0.00    +0.063 C 
ATOM      3  C   UNL     1       2.252  -9.105  -4.344  0.00  0.00    +0.215 C 
ATOM      4  N   UNL     1       1.778  -8.027  -3.472  0.00  0.00    -0.238 N 
ATOM      5  C   UNL     1       1.014  -6.981  -3.906  0.00  0.00    +0.119 A 
ATOM      6  C   UNL     1       0.762  -6.180  -2.852  0.00  0.00    +0.078 A 
ATOM      7  C   UNL     1       1.392  -6.749  -1.722  0.00  0.00    +0.149 A 
ATOM      8  N   UNL     1       1.999  -7.858  -2.105  0.00  0.00    -0.164 NA
ATOM      9  N   UNL     1       0.604  -6.850  -5.240  0.00  0.00    -0.322 N 
ATOM     10  H   UNL     1       0.219  -6.029  -5.585  0.00  0.00    +0.148 HD
ENDROOT
BRANCH   7  11
ATOM     11  C   UNL     1       1.374  -6.200  -0.351  0.00  0.00    +0.267 C 
ATOM     12  O   UNL     1       0.882  -5.108  -0.140  0.00  0.00    -0.268 OA
ATOM     13  N   UNL     1       1.902  -6.909   0.666  0.00  0.00    -0.300 N 
ATOM     14  C   UNL     1       1.816  -6.423   2.052  0.00  0.00    +0.089 C 
ATOM     15  C   UNL     1       1.270  -7.554   2.930  0.00  0.00    -0.059 C 
ATOM     16  N   UNL     1       2.103  -8.751   2.758  0.00  0.00    +0.385 N 
ATOM     17  C   UNL     1       1.999  -9.238   1.377  0.00  0.00    -0.059 C 
ATOM     18  C   UNL     1       2.576  -8.193   0.422  0.00  0.00    +0.089 C 
ATOM     19  H   UNL     1       3.065  -8.522   2.961  0.00  0.00    -0.081 HD
BRANCH  16  20
ATOM     20  C   UNL     1       1.647  -9.799   3.680  0.00  0.00    -0.065 C 
ATOM     21  C   UNL     1       0.187 -10.145   3.379  0.00  0.00    -0.009 C 
ATOM     22  C   UNL     1      -0.288 -11.236   4.340  0.00  0.00    -0.012 C 
ATOM     23  C   UNL     1       0.579 -12.485   4.162  0.00  0.00    +0.007 C 
ATOM     24  C   UNL     1       2.039 -12.139   4.464  0.00  0.00    -0.012 C 
ATOM     25  C   UNL     1       2.514 -11.047   3.503  0.00  0.00    -0.009 C 
ATOM     26  C   UNL     1       2.156 -11.637   5.904  0.00  0.00    +0.007 C 
ATOM     27  C   UNL     1       1.290 -10.389   6.082  0.00  0.00    -0.012 C 
ATOM     28  C   UNL     1      -0.170 -10.734   5.780  0.00  0.00    +0.007 C 
ATOM     29  C   UNL     1       1.765  -9.297   5.121  0.00  0.00    -0.009 C 
ENDBRANCH  16  20
ENDBRANCH   7  11
BRANCH   1  35
ATOM     30  C   UNL     1      -0.841  -9.789  -6.809  0.00  0.00    +0.008 A 
ATOM     31  C   UNL     1      -1.816 -10.728  -6.527  0.00  0.00    +0.038 A 
ATOM     32  C   UNL     1      -2.215 -10.940  -5.218  0.00  0.00    +0.123 A 
ATOM     33  C   UNL     1      -1.636 -10.211  -4.193  0.00  0.00    +0.038 A 
ATOM     34  C   UNL     1      -0.661  -9.274  -4.476  0.00  0.00    +0.008 A 
ATOM     35  C   UNL     1      -0.264  -9.063  -5.784  0.00  0.00    -0.027 A 
ATOM     36  F   UNL     1      -3.168 -11.856  -4.942  0.00  0.00    -0.205 F 
ENDBRANCH   1  35
BRANCH   3  37
ATOM     37  C   UNL     1       3.697  -9.458  -3.988  0.00  0.00    +0.412 C 
ATOM     38  F   UNL     1       4.506  -8.329  -4.149  0.00  0.00    -0.168 F 
ATOM     39  F   UNL     1       3.758  -9.890  -2.659  0.00  0.00    -0.168 F 
ATOM     40  F   UNL     1       4.149 -10.479  -4.831  0.00  0.00    -0.168 F 
ENDBRANCH   3  37
TORSDOF 4
