REMARK  Name = ZINC24578366
REMARK  5 active torsions:
REMARK  status: ('A' for Active; 'I' for Inactive)
REMARK    1  A    between atoms: C_1  and  C_2
REMARK    2  A    between atoms: C_6  and  N_9
REMARK    3  A    between atoms: C_7  and  C_8
REMARK    4  A    between atoms: C_11  and  C_16
REMARK    5  A    between atoms: N_18  and  N_19
REMARK                            x       y       z     vdW  Elec       q    Type
REMARK                         _______ _______ _______ _____ _____    ______ ____
ROOT
ATOM      1  C   UNL     1       1.392   4.582  -0.313  0.00  0.00    +0.235 C 
ATOM      2  O   UNL     1       0.762   5.329  -1.031  0.00  0.00    -0.274 OA
ATOM      3  N   UNL     1       2.724   4.737  -0.183  0.00  0.00    -0.223 N 
ATOM      4  H   UNL     1       3.296   4.059   0.468  0.00  0.00    +0.174 HD
ENDROOT
BRANCH   3   5
ATOM      5  N   UNL     1       3.381   5.762  -0.877  0.00  0.00    -0.137 N 
ATOM      6  C   UNL     1       4.152   5.566  -1.967  0.00  0.00    +0.263 C 
ATOM      7  O   UNL     1       4.397   4.512  -2.513  0.00  0.00    -0.271 OA
ATOM      8  C   UNL     1       4.641   6.939  -2.367  0.00  0.00    +0.114 C 
ATOM      9  C   UNL     1       6.163   6.998  -2.299  0.00  0.00    +0.035 C 
ATOM     10  C   UNL     1       6.638   8.405  -2.671  0.00  0.00    +0.003 C 
ATOM     11  C   UNL     1       6.159   8.747  -4.083  0.00  0.00    +0.000 C 
ATOM     12  C   UNL     1       4.631   8.705  -4.130  0.00  0.00    +0.003 C 
ATOM     13  C   UNL     1       4.149   7.299  -3.764  0.00  0.00    +0.035 C 
ATOM     14  N   UNL     1       4.047   7.835  -1.366  0.00  0.00    -0.284 N 
ATOM     15  C   UNL     1       3.327   7.055  -0.537  0.00  0.00    +0.326 C 
ATOM     16  O   UNL     1       2.699   7.479   0.413  0.00  0.00    -0.251 OA
ATOM     17  H   UNL     1       4.242   8.917  -1.412  0.00  0.00    +0.151 HD
ENDBRANCH   3   5
BRANCH   1  20
ATOM     18  N   UNL     1      -1.127   1.964   0.018  0.00  0.00    -0.270 N 
ATOM     19  C   UNL     1      -0.800   3.394   0.017  0.00  0.00    +0.127 C 
ATOM     20  C   UNL     1       0.685   3.480   0.433  0.00  0.00    +0.103 C 
ATOM     21  C   UNL     1       1.214   2.092   0.002  0.00  0.00    +0.110 C 
ATOM     22  C   UNL     1      -0.014   1.209   0.009  0.00  0.00    +0.221 C 
ATOM     23  O   UNL     1       0.002  -0.004   0.002  0.00  0.00    -0.275 OA
BRANCH  18  29
ATOM     24  C   UNL     1      -5.085   0.411  -2.450  0.00  0.00    +0.044 C 
ATOM     25  C   UNL     1      -4.371   0.689  -1.153  0.00  0.00    -0.046 A 
ATOM     26  C   UNL     1      -5.003   0.437   0.051  0.00  0.00    +0.004 A 
ATOM     27  C   UNL     1      -4.351   0.691   1.244  0.00  0.00    +0.002 A 
ATOM     28  C   UNL     1      -3.066   1.198   1.236  0.00  0.00    +0.024 A 
ATOM     29  C   UNL     1      -2.429   1.451   0.029  0.00  0.00    +0.039 A 
ATOM     30  C   UNL     1      -3.088   1.200  -1.167  0.00  0.00    -0.026 A 
ATOM     31  C   UNL     1      -2.402   1.480  -2.480  0.00  0.00    +0.046 C 
ENDBRANCH  18  29
ENDBRANCH   1  20
TORSDOF 3
