REMARK  Name = ZINC08566760
REMARK  10 active torsions:
REMARK  status: ('A' for Active; 'I' for Inactive)
REMARK    1  A    between atoms: C_1  and  O_2
REMARK    2  A    between atoms: O_2  and  C_3
REMARK    3  A    between atoms: C_6  and  C_13
REMARK    4  A    between atoms: C_7  and  O_11
REMARK    5  A    between atoms: C_8  and  O_9
REMARK    6  A    between atoms: O_9  and  C_10
REMARK    7  A    between atoms: O_11  and  C_12
REMARK    8  A    between atoms: C_16  and  C_27
REMARK    9  A    between atoms: C_22  and  N_26
REMARK   10  A    between atoms: C_23  and  C_24
REMARK                            x       y       z     vdW  Elec       q    Type
REMARK                         _______ _______ _______ _____ _____    ______ ____
ROOT
ATOM      1  C   UNL     1       2.595  -2.541   4.320  0.00  0.00    +0.105 C 
ATOM      2  C   UNL     1       4.035  -2.099   4.376  0.00  0.00    +0.055 A 
ATOM      3  C   UNL     1       5.097  -2.435   3.529  0.00  0.00    +0.107 A 
ATOM      4  N   UNL     1       6.176  -1.810   3.965  0.00  0.00    -0.170 NA
ATOM      5  N   UNL     1       5.825  -1.062   5.100  0.00  0.00    -0.246 N 
ATOM      6  H   UNL     1       6.423  -0.505   5.623  0.00  0.00    +0.192 HD
ATOM      7  C   UNL     1       4.510  -1.254   5.335  0.00  0.00    +0.223 A 
ATOM      8  O   UNL     1       3.725  -0.744   6.317  0.00  0.00    -0.423 OA
ATOM      9  C   UNL     1       2.511  -1.302   6.498  0.00  0.00    +0.200 C 
ATOM     10  C   UNL     1       1.930  -2.145   5.615  0.00  0.00    +0.098 C 
ENDROOT
BRANCH   1  14
ATOM     11  C   UNL     1       0.626  -0.619   1.042  0.00  0.00    +0.165 A 
ATOM     12  C   UNL     1       1.202   0.138   2.051  0.00  0.00    +0.050 A 
ATOM     13  C   UNL     1       1.837  -0.486   3.109  0.00  0.00    +0.012 A 
ATOM     14  C   UNL     1       1.901  -1.866   3.165  0.00  0.00    +0.011 A 
ATOM     15  C   UNL     1       1.327  -2.630   2.160  0.00  0.00    +0.169 A 
ATOM     16  C   UNL     1       0.683  -2.006   1.098  0.00  0.00    +0.204 A 
BRANCH  11  18
ATOM     17  C   UNL     1      -0.017   1.425   0.010  0.00  0.00    +0.277 C 
ATOM     18  O   UNL     1       0.002  -0.004   0.002  0.00  0.00    -0.491 OA
ENDBRANCH  11  18
BRANCH  16  19
ATOM     19  O   UNL     1       0.114  -2.752   0.113  0.00  0.00    -0.488 OA
ATOM     20  C   UNL     1       0.939  -3.090  -1.004  0.00  0.00    +0.277 C 
ENDBRANCH  16  19
BRANCH  15  21
ATOM     21  O   UNL     1       1.391  -3.987   2.216  0.00  0.00    -0.491 OA
ATOM     22  C   UNL     1       0.325  -4.659   2.888  0.00  0.00    +0.277 C 
ENDBRANCH  15  21
ENDBRANCH   1  14
BRANCH   3  23
ATOM     23  C   UNL     1       5.025  -3.331   2.354  0.00  0.00    +0.040 A 
ATOM     24  C   UNL     1       5.703  -3.254   1.168  0.00  0.00    +0.018 A 
ATOM     25  C   UNL     1       5.469  -4.215   0.208  0.00  0.00    +0.008 A 
ATOM     26  C   UNL     1       4.578  -5.205   0.466  0.00  0.00    +0.046 A 
ATOM     27  S   UNL     1       4.037  -4.799   2.119  0.00  0.00    -0.095 S 
ENDBRANCH   3  23
BRANCH   9  28
ATOM     28  N   UNL     1       1.825  -0.998   7.648  0.00  0.00    -0.328 N 
ATOM     29  H   UNL     1       2.215  -0.397   8.301  0.00  0.00    +0.145 HD
ATOM     30  H   UNL     1       0.949  -1.384   7.806  0.00  0.00    +0.145 HD
ENDBRANCH   9  28
BRANCH  10  31
ATOM     31  C   UNL     1       0.637  -2.681   5.918  0.00  0.00    +0.101 C 
ATOM     32  N   UNL     1      -0.389  -3.107   6.158  0.00  0.00    -0.191 NA
ENDBRANCH  10  31
TORSDOF 7
