REMARK  Name = ZINC39710902
REMARK  9 active torsions:
REMARK  status: ('A' for Active; 'I' for Inactive)
REMARK    1  A    between atoms: C_1  and  C_2
REMARK    2  A    between atoms: C_8  and  C_14
REMARK    3  A    between atoms: C_14  and  C_16
REMARK    4  A    between atoms: C_14  and  N_27
REMARK    5  A    between atoms: N_21  and  C_22
REMARK    6  A    between atoms: N_27  and  C_28
REMARK    7  A    between atoms: N_27  and  C_35
REMARK    8  A    between atoms: C_28  and  C_29
REMARK    9  A    between atoms: C_35  and  C_36
REMARK                            x       y       z     vdW  Elec       q    Type
REMARK                         _______ _______ _______ _____ _____    ______ ____
ROOT
ATOM      1  C   UNL     1       0.639  -1.071   5.002  0.00  0.00    -0.009 C 
ENDROOT
BRANCH   1   9
ATOM      2  C   UNL     1       5.436  -3.264   8.141  0.00  0.00    +0.045 C 
ATOM      3  C   UNL     1       4.800  -1.899   8.117  0.00  0.00    -0.029 A 
ATOM      4  C   UNL     1       5.083  -1.006   9.102  0.00  0.00    +0.005 A 
ATOM      5  C   UNL     1       4.529   0.274   9.139  0.00  0.00    +0.001 A 
ATOM      6  C   UNL     1       3.666   0.700   8.181  0.00  0.00    +0.009 A 
ATOM      7  C   UNL     1       3.317  -0.212   7.090  0.00  0.00    -0.007 A 
ATOM      8  C   UNL     1       2.456   0.172   6.106  0.00  0.00    -0.006 C 
ATOM      9  C   UNL     1       2.151  -0.837   5.016  0.00  0.00    +0.088 C 
ATOM     10  C   UNL     1       2.828  -2.186   5.109  0.00  0.00    +0.223 C 
ATOM     11  O   UNL     1       2.620  -3.033   4.261  0.00  0.00    -0.275 OA
ATOM     12  N   UNL     1       3.647  -2.441   6.116  0.00  0.00    -0.284 N 
ATOM     13  C   UNL     1       3.921  -1.556   7.073  0.00  0.00    +0.043 A 
ATOM     14  H   UNL     1       4.071  -3.313   6.157  0.00  0.00    +0.155 HD
ENDBRANCH   1   9
BRANCH   1  15
ATOM     15  C   UNL     1      -0.034  -0.002   4.138  0.00  0.00    +0.205 C 
ATOM     16  N   UNL     1      -1.494  -0.072   4.282  0.00  0.00    -0.152 NA
ATOM     17  N   UNL     1      -1.992  -0.322   3.182  0.00  0.00    -0.070 NA
ATOM     18  N   UNL     1      -1.038  -0.457   2.173  0.00  0.00    -0.179 N 
ATOM     19  N   UNL     1       0.213  -0.266   2.705  0.00  0.00    -0.185 NA
ATOM     20  H   UNL     1      -1.229  -0.653   1.243  0.00  0.00    +0.191 HD
BRANCH  19  21
ATOM     21  C   UNL     1       1.050  -1.461   2.526  0.00  0.00    +0.080 C 
ATOM     22  C   UNL     1       1.594  -1.514   1.084  0.00  0.00    +0.021 C 
ATOM     23  C   UNL     1       1.571  -3.020   0.724  0.00  0.00    +0.002 C 
ATOM     24  C   UNL     1       0.264  -3.511   1.394  0.00  0.00    +0.002 C 
ATOM     25  C   UNL     1       0.203  -2.731   2.724  0.00  0.00    +0.021 C 
ENDBRANCH  19  21
ENDBRANCH   1  15
BRANCH   1  26
ATOM     26  N   UNL     1       0.119  -0.992   6.373  0.00  0.00    +0.390 N 
ATOM     27  H   UNL     1       0.126  -0.030   6.681  0.00  0.00    -0.080 HD
BRANCH  26  28
ATOM     28  C   UNL     1      -1.257  -1.506   6.405  0.00  0.00    -0.042 C 
BRANCH  28  29
ATOM     29  C   UNL     1      -1.242  -2.996   6.185  0.00  0.00    -0.064 A 
ATOM     30  C   UNL     1      -1.601  -3.517   4.956  0.00  0.00    +0.002 A 
ATOM     31  C   UNL     1      -1.587  -4.885   4.755  0.00  0.00    +0.000 A 
ATOM     32  C   UNL     1      -1.213  -5.731   5.782  0.00  0.00    +0.000 A 
ATOM     33  C   UNL     1      -0.852  -5.210   7.010  0.00  0.00    +0.000 A 
ATOM     34  C   UNL     1      -0.862  -3.842   7.210  0.00  0.00    +0.002 A 
ENDBRANCH  28  29
ENDBRANCH  26  28
BRANCH  26  35
ATOM     35  C   UNL     1       0.963  -1.797   7.265  0.00  0.00    -0.040 C 
BRANCH  35  36
ATOM     36  C   UNL     1       0.758  -1.352   8.690  0.00  0.00    -0.046 A 
ATOM     37  C   UNL     1       0.999  -0.036   9.056  0.00  0.00    +0.005 A 
ATOM     38  C   UNL     1       0.796   0.329  10.378  0.00  0.00    +0.020 A 
ATOM     39  C   UNL     1       0.364  -0.624  11.281  0.00  0.00    +0.111 A 
ATOM     40  N   UNL     1       0.145  -1.866  10.897  0.00  0.00    -0.263 NA
ATOM     41  C   UNL     1       0.321  -2.247   9.647  0.00  0.00    +0.112 A 
ENDBRANCH  35  36
ENDBRANCH  26  35
ENDBRANCH   1  26
TORSDOF 8
