REMARK  Name = ZINC02121894
REMARK  8 active torsions:
REMARK  status: ('A' for Active; 'I' for Inactive)
REMARK    1  A    between atoms: C_1  and  C_2
REMARK    2  A    between atoms: C_2  and  C_4
REMARK    3  A    between atoms: C_2  and  N_15
REMARK    4  A    between atoms: N_6  and  N_7
REMARK    5  A    between atoms: C_8  and  C_9
REMARK    6  A    between atoms: C_16  and  C_18
REMARK    7  A    between atoms: C_18  and  O_19
REMARK    8  A    between atoms: O_19  and  C_20
REMARK                            x       y       z     vdW  Elec       q    Type
REMARK                         _______ _______ _______ _____ _____    ______ ____
ROOT
ATOM      1  N   UNL     1       3.156  10.292   0.023  0.00  0.00    -0.301 N 
ATOM      2  C   UNL     1       2.098   9.457   0.029  0.00  0.00    +0.251 C 
ATOM      3  O   UNL     1       0.972   9.906   0.042  0.00  0.00    -0.272 OA
ATOM      4  H   UNL     1       4.057   9.933   0.012  0.00  0.00    +0.150 HD
ENDROOT
BRANCH   1   6
ATOM      5  C   UNL     1       2.734  12.236  -1.401  0.00  0.00    +0.038 C 
ATOM      6  C   UNL     1       2.946  11.742   0.032  0.00  0.00    +0.158 C 
BRANCH   6   7
ATOM      7  C   UNL     1       4.154  12.421   0.624  0.00  0.00    +0.252 C 
ATOM      8  O   UNL     1       5.098  11.759   1.002  0.00  0.00    -0.272 OA
ATOM      9  N   UNL     1       4.185  13.764   0.735  0.00  0.00    -0.205 N 
ATOM     10  H   UNL     1       3.430  14.293   0.433  0.00  0.00    +0.177 HD
BRANCH   9  11
ATOM     11  N   UNL     1       5.308  14.395   1.285  0.00  0.00    -0.185 NA
ATOM     12  C   UNL     1       5.339  15.691   1.392  0.00  0.00    +0.176 C 
BRANCH  12  13
ATOM     13  C   UNL     1       6.513  16.352   1.968  0.00  0.00    +0.149 A 
ATOM     14  C   UNL     1       6.677  17.697   2.132  0.00  0.00    +0.052 A 
ATOM     15  C   UNL     1       7.941  17.882   2.720  0.00  0.00    +0.056 A 
ATOM     16  C   UNL     1       8.489  16.659   2.878  0.00  0.00    +0.165 A 
ATOM     17  O   UNL     1       7.624  15.738   2.423  0.00  0.00    -0.448 OA
ATOM     18  I   UNL     1      10.375  16.262   3.698  0.00  0.00    -0.001 I 
ENDBRANCH  12  13
ENDBRANCH   9  11
ENDBRANCH   6   7
ENDBRANCH   1   6
BRANCH   2  19
ATOM     19  C   UNL     1       2.315   7.966   0.019  0.00  0.00    +0.324 C 
BRANCH  19  20
ATOM     20  O   UNL     1       1.050   7.301   0.028  0.00  0.00    -0.483 OA
BRANCH  20  21
ATOM     21  C   UNL     1       1.067   5.942   0.021  0.00  0.00    +0.122 A 
ATOM     22  C   UNL     1       2.292   5.268   0.006  0.00  0.00    +0.046 A 
ATOM     23  C   UNL     1       2.342   3.909  -0.000  0.00  0.00    +0.012 A 
ATOM     24  C   UNL     1       1.148   3.167   0.008  0.00  0.00    -0.018 A 
ATOM     25  C   UNL     1       1.163   1.762   0.000  0.00  0.00    +0.008 A 
ATOM     26  C   UNL     1      -0.013   1.076   0.008  0.00  0.00    +0.001 A 
ATOM     27  C   UNL     1      -1.235   1.746   0.017  0.00  0.00    +0.001 A 
ATOM     28  C   UNL     1      -1.288   3.105   0.030  0.00  0.00    +0.008 A 
ATOM     29  C   UNL     1      -0.095   3.849   0.023  0.00  0.00    -0.014 A 
ATOM     30  C   UNL     1      -0.112   5.253   0.029  0.00  0.00    +0.054 A 
ENDBRANCH  20  21
ENDBRANCH  19  20
ENDBRANCH   2  19
TORSDOF 7
