REMARK  Name = ZINC32529120
REMARK  9 active torsions:
REMARK  status: ('A' for Active; 'I' for Inactive)
REMARK    1  A    between atoms: C_1  and  C_2
REMARK    2  A    between atoms: C_2  and  C_3
REMARK    3  A    between atoms: C_3  and  C_5
REMARK    4  A    between atoms: C_3  and  S_20
REMARK    5  A    between atoms: N_7  and  C_8
REMARK    6  A    between atoms: C_9  and  C_17
REMARK    7  A    between atoms: S_20  and  C_21
REMARK    8  A    between atoms: C_23  and  C_32
REMARK    9  A    between atoms: C_28  and  C_31
REMARK                            x       y       z     vdW  Elec       q    Type
REMARK                         _______ _______ _______ _____ _____    ______ ____
ROOT
ATOM      1  C   UNL     1       1.914   4.774  -0.013  0.00  0.00    +0.231 C 
ATOM      2  O   UNL     1       0.746   5.039   0.179  0.00  0.00    -0.274 OA
ATOM      3  N   UNL     1       2.285   3.501  -0.252  0.00  0.00    -0.278 N 
ATOM      4  H   UNL     1       3.345   3.261  -0.426  0.00  0.00    +0.155 HD
ENDROOT
BRANCH   3   5
ATOM      5  C   UNL     1       1.333   2.494  -0.280  0.00  0.00    +0.084 A 
ATOM      6  C   UNL     1       1.518   1.138  -0.507  0.00  0.00    +0.068 A 
ATOM      7  C   UNL     1       0.341   0.285  -0.483  0.00  0.00    -0.023 A 
ATOM      8  C   UNL     1      -0.825   0.922  -0.236  0.00  0.00    -0.004 A 
ATOM      9  S   UNL     1      -0.378   2.623  -0.038  0.00  0.00    -0.077 S 
ATOM     10  C   UNL     1      -2.188   0.308  -0.153  0.00  0.00    +0.043 C 
ATOM     11  C   UNL     1      -2.122  -1.101  -0.759  0.00  0.00    +0.005 C 
ATOM     12  C   UNL     1      -0.912  -1.834  -0.172  0.00  0.00    +0.005 C 
ATOM     13  C   UNL     1       0.380  -1.220  -0.713  0.00  0.00    +0.037 C 
BRANCH   6  14
ATOM     14  C   UNL     1       2.852   0.585  -0.764  0.00  0.00    +0.244 C 
ATOM     15  O   UNL     1       3.271   0.511  -1.904  0.00  0.00    -0.270 OA
ATOM     16  N   UNL     1       3.613   0.159   0.263  0.00  0.00    -0.325 N 
ATOM     17  H   UNL     1       4.614  -0.256   0.071  0.00  0.00    +0.145 HD
ATOM     18  H   UNL     1       3.235   0.225   1.294  0.00  0.00    +0.145 HD
ENDBRANCH   6  14
ENDBRANCH   3   5
BRANCH   1  19
ATOM     19  C   UNL     1       2.949   5.869   0.017  0.00  0.00    +0.139 C 
BRANCH  19  21
ATOM     20  C   UNL     1       4.355   7.377  -1.394  0.00  0.00    +0.005 C 
ATOM     21  C   UNL     1       3.206   6.366  -1.407  0.00  0.00    +0.020 C 
ENDBRANCH  19  21
BRANCH  19  22
ATOM     22  S   UNL     1       2.349   7.239   1.036  0.00  0.00    -0.093 S 
BRANCH  22  23
ATOM     23  C   UNL     1       2.419   6.489   2.629  0.00  0.00    +0.099 A 
ATOM     24  C   UNL     1       1.885   7.173   3.732  0.00  0.00    +0.038 A 
ATOM     25  C   UNL     1       1.927   6.603   4.968  0.00  0.00    -0.039 A 
ATOM     26  C   UNL     1       2.525   5.332   5.098  0.00  0.00    +0.004 A 
ATOM     27  C   UNL     1       2.606   4.691   6.344  0.00  0.00    +0.010 A 
ATOM     28  C   UNL     1       3.191   3.463   6.433  0.00  0.00    +0.001 A 
ATOM     29  C   UNL     1       3.709   2.836   5.302  0.00  0.00    +0.005 A 
ATOM     30  C   UNL     1       3.646   3.430   4.079  0.00  0.00    -0.024 A 
ATOM     31  C   UNL     1       3.051   4.696   3.948  0.00  0.00    +0.075 A 
ATOM     32  N   UNL     1       2.976   5.302   2.757  0.00  0.00    -0.240 NA
ATOM     33  C   UNL     1       4.213   2.732   2.869  0.00  0.00    +0.046 C 
ATOM     34  C   UNL     1       1.355   7.315   6.167  0.00  0.00    +0.044 C 
ENDBRANCH  22  23
ENDBRANCH  19  22
ENDBRANCH   1  19
TORSDOF 6
