REMARK  Name = ZINC50395508
REMARK  3 active torsions:
REMARK  status: ('A' for Active; 'I' for Inactive)
REMARK    1  A    between atoms: C_1  and  C_2
REMARK    2  A    between atoms: C_11  and  N_13
REMARK    3  A    between atoms: N_13  and  C_14
REMARK                            x       y       z     vdW  Elec       q    Type
REMARK                         _______ _______ _______ _____ _____    ______ ____
ROOT
ATOM      1  C   UNL     1      -0.638   1.817   0.406  0.00  0.00    +0.046 C 
ATOM      2  C   UNL     1      -0.409   0.333   0.290  0.00  0.00    -0.028 A 
ATOM      3  C   UNL     1      -0.286  -0.249  -0.955  0.00  0.00    +0.020 A 
ATOM      4  C   UNL     1      -0.077  -1.612  -1.073  0.00  0.00    +0.018 A 
ATOM      5  C   UNL     1       0.010  -2.396   0.066  0.00  0.00    +0.019 A 
ATOM      6  C   UNL     1      -0.112  -1.817   1.308  0.00  0.00    -0.030 A 
ATOM      7  C   UNL     1      -0.317  -0.449   1.439  0.00  0.00    +0.038 A 
ATOM      8  N   UNL     1      -0.402  -0.101   2.788  0.00  0.00    -0.286 N 
ATOM      9  C   UNL     1      -0.259  -1.164   3.598  0.00  0.00    +0.208 C 
ATOM     10  O   UNL     1      -0.289  -1.155   4.810  0.00  0.00    -0.277 OA
ATOM     11  C   UNL     1      -0.067  -2.377   2.712  0.00  0.00    +0.050 C 
ATOM     12 BR   UNL     1       0.090  -2.401  -2.783  0.00  0.00    -0.050 Br
ATOM     13  H   UNL     1      -0.546   0.804   3.105  0.00  0.00    +0.155 HD
ENDROOT
BRANCH  11  14
ATOM     14  N   UNL     1      -1.146  -3.352   2.912  0.00  0.00    +0.397 N 
ATOM     15  H   UNL     1      -2.038  -2.883   2.861  0.00  0.00    -0.083 HD
ATOM     16  H   UNL     1      -1.097  -4.060   2.194  0.00  0.00    -0.083 HD
BRANCH  14  17
ATOM     17  C   UNL     1      -1.000  -3.981   4.231  0.00  0.00    +0.017 C 
ATOM     18  C   UNL     1      -2.250  -4.808   4.542  0.00  0.00    -0.005 C 
ATOM     19  C   UNL     1      -1.966  -5.668   5.780  0.00  0.00    +0.018 C 
ATOM     20  C   UNL     1      -0.911  -6.714   5.418  0.00  0.00    +0.104 C 
ATOM     21  N   UNL     1       0.238  -6.081   4.784  0.00  0.00    -0.317 N 
ATOM     22  C   UNL     1       0.211  -4.870   4.228  0.00  0.00    +0.199 C 
ATOM     23  O   UNL     1       1.220  -4.464   3.691  0.00  0.00    -0.278 OA
ATOM     24  H   UNL     1       1.075  -6.572   4.764  0.00  0.00    +0.149 HD
ENDBRANCH  14  17
ENDBRANCH  11  14
TORSDOF 2
