REMARK  Name = ZINC20079587
REMARK  6 active torsions:
REMARK  status: ('A' for Active; 'I' for Inactive)
REMARK    1  A    between atoms: C_1  and  C_2
REMARK    2  A    between atoms: C_2  and  O_3
REMARK    3  A    between atoms: O_3  and  C_4
REMARK    4  A    between atoms: C_8  and  C_11
REMARK    5  A    between atoms: C_9  and  O_10
REMARK    6  A    between atoms: N_20  and  C_23
REMARK                            x       y       z     vdW  Elec       q    Type
REMARK                         _______ _______ _______ _____ _____    ______ ____
ROOT
ATOM      1  C   UNL     1      -5.233   1.498   4.163  0.00  0.00    +0.194 C 
ATOM      2  N   UNL     1      -5.425   0.717   2.927  0.00  0.00    -0.316 N 
ATOM      3  C   UNL     1      -4.439   0.810   1.980  0.00  0.00    +0.080 A 
ATOM      4  C   UNL     1      -3.118   1.175   2.285  0.00  0.00    +0.068 A 
ATOM      5  C   UNL     1      -2.199   1.215   1.162  0.00  0.00    -0.027 A 
ATOM      6  C   UNL     1      -2.729   0.901  -0.042  0.00  0.00    -0.021 A 
ATOM      7  S   UNL     1      -4.434   0.547   0.287  0.00  0.00    -0.080 S 
ATOM      8  C   UNL     1      -2.006   0.869  -1.352  0.00  0.00    -0.036 C 
ATOM      9  N   UNL     1      -0.719   1.570  -1.186  0.00  0.00    +0.381 N 
ATOM     10  C   UNL     1      -0.013   1.086   0.008  0.00  0.00    -0.074 C 
ATOM     11  C   UNL     1      -0.724   1.577   1.272  0.00  0.00    +0.018 C 
ATOM     12  C   UNL     1       0.117   1.427  -2.386  0.00  0.00    -0.096 C 
ATOM     13  C   UNL     1      -2.802   1.478   3.700  0.00  0.00    +0.248 C 
ATOM     14  O   UNL     1      -1.659   1.691   4.062  0.00  0.00    -0.270 OA
ATOM     15  N   UNL     1      -3.832   1.506   4.571  0.00  0.00    -0.289 N 
ATOM     16  H   UNL     1      -6.327   0.099   2.802  0.00  0.00    +0.149 HD
ATOM     17  H   UNL     1      -3.571   1.538   5.639  0.00  0.00    +0.151 HD
ATOM     18  H   UNL     1      -0.924   2.642  -1.049  0.00  0.00    -0.082 HD
ENDROOT
BRANCH   1  23
ATOM     19  C   UNL     1      -5.612   5.249   4.494  0.00  0.00    +0.163 A 
ATOM     20  C   UNL     1      -6.524   5.520   3.487  0.00  0.00    +0.064 A 
ATOM     21  C   UNL     1      -7.015   4.491   2.704  0.00  0.00    +0.022 A 
ATOM     22  C   UNL     1      -6.593   3.192   2.920  0.00  0.00    +0.026 A 
ATOM     23  C   UNL     1      -5.687   2.915   3.927  0.00  0.00    +0.037 A 
ATOM     24  C   UNL     1      -5.192   3.941   4.715  0.00  0.00    +0.165 A 
ATOM     25 BR   UNL     1      -8.260   4.863   1.329  0.00  0.00    -0.050 Br
BRANCH  24  26
ATOM     26  O   UNL     1      -4.296   3.671   5.702  0.00  0.00    -0.503 OA
ATOM     27  H   UNL     1      -3.965   2.637   5.876  0.00  0.00    +0.292 HD
ENDBRANCH  24  26
BRANCH  19  28
ATOM     28  O   UNL     1      -5.129   6.260   5.266  0.00  0.00    -0.489 OA
BRANCH  28  30
ATOM     29  C   UNL     1      -4.955   8.572   5.946  0.00  0.00    +0.048 C 
ATOM     30  C   UNL     1      -5.605   7.577   4.982  0.00  0.00    +0.226 C 
ENDBRANCH  28  30
ENDBRANCH  19  28
ENDBRANCH   1  23
TORSDOF 4
