REMARK  Name = ZINC11691665
REMARK  7 active torsions:
REMARK  status: ('A' for Active; 'I' for Inactive)
REMARK    1  A    between atoms: C_1  and  C_2
REMARK    2  A    between atoms: C_5  and  N_8
REMARK    3  A    between atoms: C_9  and  O_15
REMARK    4  A    between atoms: C_11  and  C_14
REMARK    5  A    between atoms: O_15  and  S_16
REMARK    6  A    between atoms: S_16  and  C_19
REMARK    7  A    between atoms: C_22  and  C_25
REMARK                            x       y       z     vdW  Elec       q    Type
REMARK                         _______ _______ _______ _____ _____    ______ ____
ROOT
ATOM      1  N   UNL     1       2.069   3.273   1.873  0.00  0.00    -0.203 N 
ATOM      2  C   UNL     1       0.704   3.204   2.078  0.00  0.00    +0.233 C 
ATOM      3  C   UNL     1       0.186   2.107   1.544  0.00  0.00    +0.059 C 
ATOM      4  C   UNL     1       1.332   1.350   0.907  0.00  0.00    +0.098 C 
ATOM      5  N   UNL     1       2.517   2.189   1.174  0.00  0.00    -0.226 NA
ATOM      6  C   UNL     1       1.492  -0.025   1.558  0.00  0.00    +0.030 C 
ATOM      7  H   UNL     1       3.209   1.679   1.702  0.00  0.00    +0.146 HD
ENDROOT
BRANCH   1  12
ATOM      8  C   UNL     1       5.377   7.503   3.697  0.00  0.00    +0.044 C 
ATOM      9  C   UNL     1       4.498   6.379   3.212  0.00  0.00    -0.050 A 
ATOM     10  C   UNL     1       3.592   5.790   4.076  0.00  0.00    +0.005 A 
ATOM     11  C   UNL     1       2.785   4.760   3.635  0.00  0.00    +0.025 A 
ATOM     12  C   UNL     1       2.884   4.315   2.322  0.00  0.00    +0.053 A 
ATOM     13  C   UNL     1       3.799   4.905   1.460  0.00  0.00    +0.025 A 
ATOM     14  C   UNL     1       4.599   5.939   1.905  0.00  0.00    +0.005 A 
ENDBRANCH   1  12
BRANCH   2  15
ATOM     15  O   UNL     1      -0.016   4.143   2.742  0.00  0.00    -0.325 OA
BRANCH  15  16
ATOM     16  S   UNL     1      -1.519   3.910   2.705  0.00  0.00    +0.152 S 
ATOM     17  O   UNL     1      -2.123   5.067   3.267  0.00  0.00    -0.131 OA
ATOM     18  O   UNL     1      -1.827   3.449   1.397  0.00  0.00    -0.131 OA
BRANCH  16  19
ATOM     19  C   UNL     1      -1.868   2.577   3.804  0.00  0.00    +0.128 A 
ATOM     20  C   UNL     1      -2.310   1.367   3.299  0.00  0.00    +0.031 A 
ATOM     21  C   UNL     1      -2.579   0.318   4.153  0.00  0.00    +0.017 A 
ATOM     22  C   UNL     1      -2.416   0.482   5.530  0.00  0.00    +0.063 A 
ATOM     23  C   UNL     1      -1.974   1.708   6.032  0.00  0.00    +0.017 A 
ATOM     24  C   UNL     1      -1.703   2.747   5.167  0.00  0.00    +0.031 A 
BRANCH  22  25
ATOM     25  C   UNL     1      -2.709  -0.635   6.451  0.00  0.00    +0.387 C 
ATOM     26  O   UNL     1      -2.566  -0.488   7.648  0.00  0.00    -0.241 OA
ATOM     27  O   UNL     1      -3.134  -1.816   5.963  0.00  0.00    -0.241 OA
ENDBRANCH  22  25
ENDBRANCH  16  19
ENDBRANCH  15  16
ENDBRANCH   2  15
TORSDOF 5
