REMARK  Name = ZINC26599828
REMARK  7 active torsions:
REMARK  status: ('A' for Active; 'I' for Inactive)
REMARK    1  A    between atoms: C_1  and  N_2
REMARK    2  A    between atoms: C_5  and  C_11
REMARK    3  A    between atoms: C_20  and  C_23
REMARK    4  A    between atoms: C_26  and  O_31
REMARK    5  A    between atoms: C_27  and  O_29
REMARK    6  A    between atoms: O_29  and  C_30
REMARK    7  A    between atoms: O_31  and  C_32
REMARK                            x       y       z     vdW  Elec       q    Type
REMARK                         _______ _______ _______ _____ _____    ______ ____
ROOT
ATOM      1  C   UNL     1      -7.400  -2.058   2.417  0.00  0.00    +0.039 C 
ATOM      2  N   UNL     1      -8.532  -1.783   1.975  0.00  0.00    -0.357 N 
ATOM      3  C   UNL     1      -9.237  -0.861   1.318  0.00  0.00    +0.053 A 
ATOM      4  C   UNL     1     -10.625  -1.119   1.245  0.00  0.00    +0.027 A 
ATOM      5  C   UNL     1     -11.486  -0.252   0.621  0.00  0.00    +0.002 A 
ATOM      6  C   UNL     1     -10.997   0.908   0.045  0.00  0.00    +0.001 A 
ATOM      7  C   UNL     1      -9.648   1.173   0.093  0.00  0.00    +0.017 A 
ATOM      8  C   UNL     1      -8.750   0.297   0.713  0.00  0.00    +0.032 A 
ATOM      9  S   UNL     1      -7.057   0.734   0.651  0.00  0.00    -0.114 S 
ATOM     10  C   UNL     1      -6.279   0.146   2.149  0.00  0.00    +0.091 C 
ATOM     11  C   UNL     1      -6.113  -1.346   2.193  0.00  0.00    +0.064 C 
ATOM     12  H   UNL     1      -9.363  -2.491   2.113  0.00  0.00    +0.166 HD
ENDROOT
BRANCH   1  17
ATOM     13  C   UNL     1      -6.942  -6.990   2.980  0.00  0.00    +0.154 C 
ATOM     14  N   UNL     1      -7.102  -5.642   3.531  0.00  0.00    -0.290 N 
ATOM     15  C   UNL     1      -7.165  -4.584   2.697  0.00  0.00    +0.267 A 
ATOM     16  O   UNL     1      -7.090  -4.737   1.492  0.00  0.00    -0.267 OA
ATOM     17  C   UNL     1      -7.326  -3.243   3.273  0.00  0.00    +0.125 A 
ATOM     18  C   UNL     1      -7.400  -3.132   4.664  0.00  0.00    +0.287 A 
ATOM     19  N   UNL     1      -7.332  -4.264   5.424  0.00  0.00    -0.185 NA
ATOM     20  C   UNL     1      -7.185  -5.474   4.862  0.00  0.00    +0.172 A 
ATOM     21  S   UNL     1      -7.100  -6.851   5.875  0.00  0.00    -0.105 S 
ATOM     22  O   UNL     1      -7.542  -1.926   5.247  0.00  0.00    -0.265 OA
ATOM     23  H   UNL     1      -7.175  -6.567   6.831  0.00  0.00    +0.110 HD
ENDBRANCH   1  17
BRANCH  10  24
ATOM     24  C   UNL     1      -4.920   0.786   2.270  0.00  0.00    -0.030 A 
ATOM     25  C   UNL     1      -3.945   0.517   1.328  0.00  0.00    +0.008 A 
ATOM     26  C   UNL     1      -2.696   1.102   1.434  0.00  0.00    +0.050 A 
ATOM     27  C   UNL     1      -2.420   1.958   2.488  0.00  0.00    +0.162 A 
ATOM     28  C   UNL     1      -3.400   2.224   3.440  0.00  0.00    +0.162 A 
ATOM     29  C   UNL     1      -4.651   1.640   3.324  0.00  0.00    +0.054 A 
BRANCH  28  30
ATOM     30  O   UNL     1      -3.131   3.060   4.478  0.00  0.00    -0.491 OA
ATOM     31  C   UNL     1      -4.185   3.287   5.417  0.00  0.00    +0.277 C 
ENDBRANCH  28  30
BRANCH  27  32
ATOM     32  O   UNL     1      -1.192   2.534   2.594  0.00  0.00    -0.491 OA
ATOM     33  C   UNL     1      -0.235   2.211   1.584  0.00  0.00    +0.277 C 
ENDBRANCH  27  32
ENDBRANCH  10  24
TORSDOF 4
