REMARK  Name = ZINC65181863
REMARK  9 active torsions:
REMARK  status: ('A' for Active; 'I' for Inactive)
REMARK    1  A    between atoms: C_1  and  C_2
REMARK    2  A    between atoms: C_5  and  C_9
REMARK    3  A    between atoms: N_11  and  C_12
REMARK    4  A    between atoms: N_11  and  C_13
REMARK    5  A    between atoms: C_13  and  C_14
REMARK    6  A    between atoms: C_14  and  C_15
REMARK    7  A    between atoms: C_18  and  C_21
REMARK    8  A    between atoms: C_27  and  O_31
REMARK    9  A    between atoms: O_31  and  C_32
REMARK                            x       y       z     vdW  Elec       q    Type
REMARK                         _______ _______ _______ _____ _____    ______ ____
ROOT
ATOM      1  C   UNL     1       2.357  -7.994   0.865  0.00  0.00    +0.139 C 
ATOM      2  N   UNL     1       1.496  -8.939   0.976  0.00  0.00    -0.072 NA
ATOM      3  O   UNL     1       2.121 -10.207   0.902  0.00  0.00    -0.367 OA
ATOM      4  C   UNL     1       3.525  -9.956   0.725  0.00  0.00    +0.318 C 
ATOM      5  N   UNL     1       3.631  -8.488   0.702  0.00  0.00    -0.291 N 
ATOM      6  H   UNL     1       4.443  -7.969   0.594  0.00  0.00    +0.151 HD
ENDROOT
BRANCH   4   7
ATOM      7  C   UNL     1       4.324 -10.538   1.893  0.00  0.00    +0.165 C 
ATOM      8  C   UNL     1       3.816  -9.978   3.203  0.00  0.00    +0.012 C 
ATOM      9  C   UNL     1       3.380 -11.037   3.920  0.00  0.00    -0.004 A 
ATOM     10  C   UNL     1       2.783 -11.152   5.257  0.00  0.00    +0.013 A 
ATOM     11  C   UNL     1       2.439 -12.373   5.720  0.00  0.00    +0.046 A 
ATOM     12  C   UNL     1       2.639 -13.536   4.953  0.00  0.00    +0.122 A 
ATOM     13  C   UNL     1       3.186 -13.506   3.711  0.00  0.00    +0.071 A 
ATOM     14  C   UNL     1       3.580 -12.274   3.132  0.00  0.00    +0.046 A 
ATOM     15  N   UNL     1       4.123 -11.990   1.968  0.00  0.00    -0.373 N 
ATOM     16  H   UNL     1       4.352 -12.630   1.277  0.00  0.00    +0.160 HD
BRANCH  12  17
ATOM     17  O   UNL     1       2.273 -14.733   5.475  0.00  0.00    -0.495 OA
ATOM     18  C   UNL     1       1.702 -14.721   6.785  0.00  0.00    +0.277 C 
ENDBRANCH  12  17
ENDBRANCH   4   7
BRANCH   1  19
ATOM     19  C   UNL     1       2.015  -6.527   0.902  0.00  0.00    +0.094 C 
BRANCH  19  20
ATOM     20  C   UNL     1       0.507  -6.360   1.097  0.00  0.00    +0.115 C 
BRANCH  20  23
ATOM     21  C   UNL     1      -0.129  -4.283  -0.007  0.00  0.00    +0.246 C 
ATOM     22  O   UNL     1      -0.213  -4.897  -1.053  0.00  0.00    -0.270 OA
ATOM     23  N   UNL     1       0.175  -4.933   1.133  0.00  0.00    -0.300 N 
ATOM     24  C   UNL     1       0.172  -4.214   2.409  0.00  0.00    +0.132 C 
BRANCH  21  29
ATOM     25  C   UNL     1      -1.026   1.402   0.077  0.00  0.00    +0.047 C 
ATOM     26  C   UNL     1      -0.791  -0.086   0.054  0.00  0.00    -0.015 A 
ATOM     27  C   UNL     1      -1.264  -0.874   1.088  0.00  0.00    +0.007 A 
ATOM     28  C   UNL     1      -1.052  -2.237   1.074  0.00  0.00    +0.013 A 
ATOM     29  C   UNL     1      -0.359  -2.823   0.013  0.00  0.00    +0.040 A 
ATOM     30  C   UNL     1       0.115  -2.024  -1.028  0.00  0.00    +0.051 A 
ATOM     31  C   UNL     1      -0.108  -0.660  -1.005  0.00  0.00    +0.127 A 
ATOM     32  F   UNL     1       0.346   0.114  -2.015  0.00  0.00    -0.205 F 
ENDBRANCH  21  29
ENDBRANCH  20  23
ENDBRANCH  19  20
ENDBRANCH   1  19
TORSDOF 6
