REMARK  Name = ZINC06824933
REMARK  7 active torsions:
REMARK  status: ('A' for Active; 'I' for Inactive)
REMARK    1  A    between atoms: C_1  and  C_2
REMARK    2  A    between atoms: C_3  and  C_26
REMARK    3  A    between atoms: C_4  and  C_10
REMARK    4  A    between atoms: C_7  and  C_8
REMARK    5  A    between atoms: N_12  and  N_13
REMARK    6  A    between atoms: C_14  and  C_15
REMARK    7  A    between atoms: C_22  and  O_25
REMARK                            x       y       z     vdW  Elec       q    Type
REMARK                         _______ _______ _______ _____ _____    ______ ____
ROOT
ATOM      1  C   UNL     1       0.498  -2.951  -2.356  0.00  0.00    +0.264 C 
ATOM      2  O   UNL     1       0.554  -2.410  -3.443  0.00  0.00    -0.268 OA
ATOM      3  N   UNL     1       0.659  -4.286  -2.259  0.00  0.00    -0.203 N 
ATOM      4  H   UNL     1       0.615  -4.718  -1.391  0.00  0.00    +0.178 HD
ENDROOT
BRANCH   1   8
ATOM      5  C   UNL     1      -0.589   1.428  -0.227  0.00  0.00    +0.044 C 
ATOM      6  C   UNL     1      -0.271  -0.040  -0.112  0.00  0.00    -0.043 A 
ATOM      7  C   UNL     1      -0.043  -0.786  -1.250  0.00  0.00    -0.035 A 
ATOM      8  C   UNL     1       0.252  -2.146  -1.141  0.00  0.00    +0.043 A 
ATOM      9  C   UNL     1       0.314  -2.743   0.120  0.00  0.00    +0.029 A 
ATOM     10  C   UNL     1       0.084  -1.985   1.250  0.00  0.00    +0.022 A 
ATOM     11  C   UNL     1      -0.203  -0.635   1.135  0.00  0.00    -0.033 A 
ATOM     12  C   UNL     1      -0.448   0.188   2.374  0.00  0.00    +0.045 C 
ATOM     13 BR   UNL     1       0.166  -2.791   2.959  0.00  0.00    -0.050 Br
ATOM     14  C   UNL     1      -0.112  -0.134  -2.607  0.00  0.00    +0.045 C 
ENDBRANCH   1   8
BRANCH   3  15
ATOM     15  N   UNL     1       0.892  -5.049  -3.410  0.00  0.00    -0.186 NA
ATOM     16  C   UNL     1       1.047  -6.335  -3.317  0.00  0.00    +0.158 C 
BRANCH  16  17
ATOM     17  C   UNL     1       1.292  -7.138  -4.527  0.00  0.00    +0.084 A 
ATOM     18  C   UNL     1       1.453  -8.531  -4.410  0.00  0.00    +0.030 A 
ATOM     19  C   UNL     1       1.679  -9.283  -5.522  0.00  0.00    +0.012 A 
ATOM     20  C   UNL     1       1.745  -8.629  -6.770  0.00  0.00    +0.004 A 
ATOM     21  C   UNL     1       1.975  -9.345  -7.955  0.00  0.00    +0.010 A 
ATOM     22  C   UNL     1       2.033  -8.684  -9.144  0.00  0.00    +0.004 A 
ATOM     23  C   UNL     1       1.867  -7.303  -9.205  0.00  0.00    +0.047 A 
ATOM     24  C   UNL     1       1.642  -6.572  -8.074  0.00  0.00    +0.143 A 
ATOM     25  C   UNL     1       1.575  -7.223  -6.823  0.00  0.00    +0.113 A 
ATOM     26  N   UNL     1       1.350  -6.535  -5.702  0.00  0.00    -0.242 NA
BRANCH  24  27
ATOM     27  O   UNL     1       1.482  -5.225  -8.152  0.00  0.00    -0.505 OA
ATOM     28  H   UNL     1       0.566  -4.944  -8.278  0.00  0.00    +0.292 HD
ENDBRANCH  24  27
ENDBRANCH  16  17
ENDBRANCH   3  15
TORSDOF 4
