REMARK  Name = ZINC28846269
REMARK  12 active torsions:
REMARK  status: ('A' for Active; 'I' for Inactive)
REMARK    1  A    between atoms: C_1  and  C_2
REMARK    2  A    between atoms: C_2  and  N_3
REMARK    3  A    between atoms: N_3  and  C_4
REMARK    4  A    between atoms: N_3  and  S_6
REMARK    5  A    between atoms: C_4  and  C_5
REMARK    6  A    between atoms: S_6  and  C_9
REMARK    7  A    between atoms: C_12  and  C_15
REMARK    8  A    between atoms: C_15  and  O_17
REMARK    9  A    between atoms: O_17  and  C_18
REMARK   10  A    between atoms: C_18  and  C_20
REMARK   11  A    between atoms: C_18  and  C_21
REMARK   12  A    between atoms: N_26  and  C_27
REMARK                            x       y       z     vdW  Elec       q    Type
REMARK                         _______ _______ _______ _____ _____    ______ ____
ROOT
ATOM      1  O   UNL     1       0.228   4.388  -6.810  0.00  0.00    -0.449 OA
ENDROOT
BRANCH   1   2
ATOM      2  C   UNL     1      -0.698   4.105  -5.874  0.00  0.00    +0.340 C 
ATOM      3  O   UNL     1      -1.637   4.857  -5.702  0.00  0.00    -0.245 OA
BRANCH   2   7
ATOM      4  C   UNL     1      -0.337   0.586  -3.526  0.00  0.00    +0.106 A 
ATOM      5  C   UNL     1      -1.407   1.440  -3.327  0.00  0.00    +0.029 A 
ATOM      6  C   UNL     1      -1.531   2.585  -4.086  0.00  0.00    +0.017 A 
ATOM      7  C   UNL     1      -0.573   2.881  -5.057  0.00  0.00    +0.059 A 
ATOM      8  C   UNL     1       0.505   2.015  -5.253  0.00  0.00    +0.017 A 
ATOM      9  C   UNL     1       0.619   0.876  -4.483  0.00  0.00    +0.029 A 
BRANCH   4  10
ATOM     10  S   UNL     1      -0.188  -0.875  -2.551  0.00  0.00    +0.061 S 
ATOM     11  O   UNL     1       0.610  -1.782  -3.300  0.00  0.00    -0.153 OA
ATOM     12  O   UNL     1      -1.496  -1.201  -2.104  0.00  0.00    -0.153 OA
BRANCH  10  13
ATOM     13  N   UNL     1       0.688  -0.476  -1.203  0.00  0.00    -0.177 NA
BRANCH  13  15
ATOM     14  C   UNL     1      -0.019   1.526   0.010  0.00  0.00    +0.022 C 
ATOM     15  C   UNL     1       0.002  -0.004   0.002  0.00  0.00    +0.106 C 
ENDBRANCH  13  15
BRANCH  13  16
ATOM     16  C   UNL     1       2.148  -0.597  -1.216  0.00  0.00    +0.106 C 
ATOM     17  C   UNL     1       2.553  -1.951  -0.632  0.00  0.00    +0.022 C 
ENDBRANCH  13  16
ENDBRANCH  10  13
ENDBRANCH   4  10
ENDBRANCH   2   7
ENDBRANCH   1   2
BRANCH   1  18
ATOM     18  C   UNL     1       0.043   5.589  -7.564  0.00  0.00    +0.259 C 
ATOM     19  C   UNL     1       0.743   6.749  -6.853  0.00  0.00    +0.062 C 
BRANCH  18  20
ATOM     20  C   UNL     1       0.632   5.414  -8.940  0.00  0.00    +0.261 C 
ATOM     21  O   UNL     1       1.158   4.365  -9.245  0.00  0.00    -0.271 OA
ATOM     22  N   UNL     1       0.574   6.423  -9.831  0.00  0.00    -0.237 N 
ATOM     23  C   UNL     1       1.101   6.267 -11.062  0.00  0.00    +0.306 C 
ATOM     24  O   UNL     1       1.628   5.215 -11.368  0.00  0.00    -0.252 OA
ATOM     25  N   UNL     1       1.043   7.276 -11.953  0.00  0.00    -0.296 N 
ATOM     26  H   UNL     1       0.154   7.262  -9.586  0.00  0.00    +0.159 HD
ATOM     27  H   UNL     1       0.622   8.115 -11.708  0.00  0.00    +0.151 HD
BRANCH  25  28
ATOM     28  C   UNL     1       1.615   7.106 -13.290  0.00  0.00    +0.074 C 
ATOM     29  C   UNL     1       3.111   7.423 -13.249  0.00  0.00    +0.022 C 
ATOM     30  C   UNL     1       3.709   7.245 -14.646  0.00  0.00    +0.002 C 
ATOM     31  C   UNL     1       3.013   8.195 -15.623  0.00  0.00    +0.000 C 
ATOM     32  C   UNL     1       1.517   7.878 -15.665  0.00  0.00    +0.002 C 
ATOM     33  C   UNL     1       0.919   8.056 -14.268  0.00  0.00    +0.022 C 
ENDBRANCH  25  28
ENDBRANCH  18  20
ENDBRANCH   1  18
TORSDOF 9
