REMARK  Name = ZINC00535856
REMARK  3 active torsions:
REMARK  status: ('A' for Active; 'I' for Inactive)
REMARK    1  A    between atoms: C_3  and  C_6
REMARK    2  A    between atoms: C_12  and  N_18
REMARK    3  A    between atoms: C_13  and  C_15
REMARK                            x       y       z     vdW  Elec       q    Type
REMARK                         _______ _______ _______ _____ _____    ______ ____
ROOT
ATOM      1  C   UNL     1       3.579   2.254  -0.226  0.00  0.00    +0.005 A 
ATOM      2  C   UNL     1       4.372   2.108  -1.371  0.00  0.00    -0.017 A 
ATOM      3  C   UNL     1       5.679   2.524  -1.354  0.00  0.00    +0.046 A 
ATOM      4  N   UNL     1       6.188   3.088  -0.262  0.00  0.00    -0.244 NA
ATOM      5  C   UNL     1       5.492   3.251   0.839  0.00  0.00    +0.112 A 
ATOM      6  C   UNL     1       4.143   2.847   0.943  0.00  0.00    +0.038 A 
ATOM      7  C   UNL     1       3.522   3.090   2.232  0.00  0.00    +0.054 A 
ATOM      8  C   UNL     1       4.274   3.696   3.217  0.00  0.00    +0.097 A 
ATOM      9  S   UNL     1       5.854   3.943   2.433  0.00  0.00    -0.062 S 
ATOM     10  C   UNL     1       6.606   2.347  -2.528  0.00  0.00    +0.056 C 
ATOM     11  C   UNL     1       5.970   2.883  -3.813  0.00  0.00    +0.006 C 
ATOM     12  C   UNL     1       5.266   1.720  -4.506  0.00  0.00    +0.001 C 
ATOM     13  C   UNL     1       4.718   0.752  -3.456  0.00  0.00    +0.005 C 
ATOM     14  C   UNL     1       3.710   1.500  -2.585  0.00  0.00    +0.037 C 
ENDROOT
BRANCH   1  17
ATOM     15  C   UNL     1       0.313   0.350  -0.251  0.00  0.00    +0.008 A 
ATOM     16  C   UNL     1       1.677   0.527  -0.253  0.00  0.00    +0.016 A 
ATOM     17  C   UNL     1       2.175   1.805  -0.230  0.00  0.00    +0.020 A 
ATOM     18  S   UNL     1       0.681   2.782  -0.204  0.00  0.00    -0.097 S 
ATOM     19  C   UNL     1      -0.497   1.441  -0.226  0.00  0.00    +0.046 A 
ENDBRANCH   1  17
BRANCH   8  20
ATOM     20  C   UNL     1       3.885   4.031   4.537  0.00  0.00    +0.250 C 
ATOM     21  O   UNL     1       2.757   3.783   4.922  0.00  0.00    -0.270 OA
ATOM     22  N   UNL     1       4.765   4.625   5.368  0.00  0.00    -0.325 N 
ATOM     23  H   UNL     1       5.664   4.823   5.061  0.00  0.00    +0.145 HD
ATOM     24  H   UNL     1       4.499   4.855   6.272  0.00  0.00    +0.145 HD
ENDBRANCH   8  20
BRANCH   7  25
ATOM     25  N   UNL     1       2.204   2.722   2.468  0.00  0.00    -0.356 N 
ATOM     26  H   UNL     1       1.760   2.099   1.871  0.00  0.00    +0.142 HD
ATOM     27  H   UNL     1       1.727   3.087   3.229  0.00  0.00    +0.142 HD
ENDBRANCH   7  25
TORSDOF 3
