REMARK  Name = ZINC62326852
REMARK  4 active torsions:
REMARK  status: ('A' for Active; 'I' for Inactive)
REMARK    1  A    between atoms: C_1  and  C_2
REMARK    2  A    between atoms: N_5  and  C_8
REMARK    3  A    between atoms: C_18  and  S_20
REMARK    4  A    between atoms: S_20  and  C_21
REMARK                            x       y       z     vdW  Elec       q    Type
REMARK                         _______ _______ _______ _____ _____    ______ ____
ROOT
ATOM      1  C   UNL     1       1.697  -3.840  -0.029  0.00  0.00    +0.015 A 
ATOM      2  C   UNL     1       0.575  -4.649  -0.036  0.00  0.00    +0.023 A 
ATOM      3  C   UNL     1       0.706  -6.023  -0.043  0.00  0.00    +0.029 A 
ATOM      4  C   UNL     1       1.971  -6.598  -0.044  0.00  0.00    +0.083 A 
ATOM      5  C   UNL     1       3.094  -5.778  -0.039  0.00  0.00    +0.137 A 
ATOM      6  C   UNL     1       2.959  -4.407  -0.036  0.00  0.00    +0.052 A 
ATOM      7  S   UNL     1       4.689  -6.530  -0.047  0.00  0.00    +0.103 S 
ATOM      8  O   UNL     1       5.413  -5.944  -1.120  0.00  0.00    -0.146 OA
ATOM      9  O   UNL     1       5.159  -6.510   1.294  0.00  0.00    -0.146 OA
ATOM     10  N   UNL     1       4.440  -8.119  -0.448  0.00  0.00    -0.104 NA
ATOM     11  C   UNL     1       3.255  -8.637  -0.410  0.00  0.00    +0.199 C 
ATOM     12  N   UNL     1       2.117  -7.983  -0.046  0.00  0.00    -0.187 NA
ENDROOT
BRANCH   1  17
ATOM     13  C   UNL     1      -0.019   1.526   0.010  0.00  0.00    +0.007 C 
ATOM     14  C   UNL     1       0.002  -0.004   0.002  0.00  0.00    -0.011 C 
ATOM     15  C   UNL     1       0.727  -0.499  -1.252  0.00  0.00    +0.020 C 
ATOM     16  C   UNL     1       0.814  -2.027  -1.215  0.00  0.00    +0.085 C 
ATOM     17  N   UNL     1       1.556  -2.449  -0.021  0.00  0.00    -0.393 NA
ATOM     18  C   UNL     1       0.829  -2.040   1.187  0.00  0.00    +0.085 C 
ATOM     19  C   UNL     1       0.743  -0.513   1.242  0.00  0.00    +0.020 C 
ATOM     20  H   UNL     1       2.469  -2.020  -0.024  0.00  0.00    +0.126 HD
ENDBRANCH   1  17
BRANCH  11  21
ATOM     21  S   UNL     1       3.099 -10.332  -0.868  0.00  0.00    -0.091 S 
ATOM     22  C   UNL     1       4.795 -10.833  -1.275  0.00  0.00    +0.093 C 
ENDBRANCH  11  21
TORSDOF 2
