REMARK  Name = ZINC18165073
REMARK  6 active torsions:
REMARK  status: ('A' for Active; 'I' for Inactive)
REMARK    1  A    between atoms: C_1  and  C_2
REMARK    2  A    between atoms: C_5  and  N_8
REMARK    3  A    between atoms: C_13  and  C_26
REMARK    4  A    between atoms: C_29  and  O_34
REMARK    5  A    between atoms: C_30  and  O_32
REMARK    6  A    between atoms: O_32  and  C_33
REMARK                            x       y       z     vdW  Elec       q    Type
REMARK                         _______ _______ _______ _____ _____    ______ ____
ROOT
ATOM      1  N   UNL     1       0.180  -4.159  -0.003  0.00  0.00    -0.209 N 
ATOM      2  C   UNL     1       0.155  -4.911   1.123  0.00  0.00    +0.232 C 
ATOM      3  O   UNL     1       0.313  -4.526   2.262  0.00  0.00    -0.274 OA
ATOM      4  C   UNL     1      -0.107  -6.314   0.675  0.00  0.00    +0.110 C 
ATOM      5  C   UNL     1       0.231  -7.439   1.577  0.00  0.00    +0.072 C 
ATOM      6  C   UNL     1       1.630  -7.933   1.494  0.00  0.00    +0.033 A 
ATOM      7  C   UNL     1       2.572  -7.642   0.579  0.00  0.00    +0.088 A 
ATOM      8  N   UNL     1       3.773  -8.290   0.758  0.00  0.00    -0.311 N 
ATOM      9  C   UNL     1       3.943  -9.119   1.804  0.00  0.00    +0.289 A 
ATOM     10  S   UNL     1       2.457  -9.059   2.589  0.00  0.00    -0.030 S 
ATOM     11  O   UNL     1       4.934  -9.759   2.109  0.00  0.00    -0.260 OA
ATOM     12  S   UNL     1       2.259  -6.486  -0.730  0.00  0.00    -0.093 S 
ATOM     13  C   UNL     1       0.456  -6.345  -0.752  0.00  0.00    +0.152 C 
ATOM     14  C   UNL     1       0.171  -4.882  -1.141  0.00  0.00    +0.240 C 
ATOM     15  O   UNL     1      -0.023  -4.459  -2.260  0.00  0.00    -0.274 OA
ATOM     16  H   UNL     1       4.499  -8.149   0.129  0.00  0.00    +0.170 HD
ENDROOT
BRANCH   1  21
ATOM     17  C   UNL     1       0.285   1.515   0.062  0.00  0.00    +0.044 C 
ATOM     18  C   UNL     1       0.257   0.008   0.045  0.00  0.00    -0.050 A 
ATOM     19  C   UNL     1       0.251  -0.668  -1.161  0.00  0.00    +0.005 A 
ATOM     20  C   UNL     1       0.225  -2.049  -1.180  0.00  0.00    +0.024 A 
ATOM     21  C   UNL     1       0.206  -2.758   0.013  0.00  0.00    +0.044 A 
ATOM     22  C   UNL     1       0.213  -2.076   1.222  0.00  0.00    +0.024 A 
ATOM     23  C   UNL     1       0.243  -0.695   1.235  0.00  0.00    +0.005 A 
ENDBRANCH   1  21
BRANCH   5  24
ATOM     24  C   UNL     1      -0.027  -7.000   2.995  0.00  0.00    -0.035 A 
ATOM     25  C   UNL     1       0.996  -6.449   3.744  0.00  0.00    +0.008 A 
ATOM     26  C   UNL     1       0.765  -6.045   5.045  0.00  0.00    +0.049 A 
ATOM     27  C   UNL     1      -0.495  -6.191   5.603  0.00  0.00    +0.158 A 
ATOM     28  C   UNL     1      -1.526  -6.746   4.849  0.00  0.00    +0.162 A 
ATOM     29  C   UNL     1      -1.288  -7.144   3.544  0.00  0.00    +0.053 A 
BRANCH  28  30
ATOM     30  O   UNL     1      -2.764  -6.891   5.392  0.00  0.00    -0.491 OA
ATOM     31  C   UNL     1      -3.773  -7.468   4.560  0.00  0.00    +0.277 C 
ENDBRANCH  28  30
BRANCH  27  32
ATOM     32  O   UNL     1      -0.725  -5.794   6.883  0.00  0.00    -0.503 OA
ATOM     33  H   UNL     1      -1.012  -4.875   6.964  0.00  0.00    +0.292 HD
ENDBRANCH  27  32
ENDBRANCH   5  24
TORSDOF 4
