REMARK  Name = ZINC09727001
REMARK  10 active torsions:
REMARK  status: ('A' for Active; 'I' for Inactive)
REMARK    1  A    between atoms: C_1  and  O_2
REMARK    2  A    between atoms: O_2  and  C_3
REMARK    3  A    between atoms: C_3  and  C_5
REMARK    4  A    between atoms: C_5  and  N_6
REMARK    5  A    between atoms: C_10  and  S_32
REMARK    6  A    between atoms: N_15  and  C_16
REMARK    7  A    between atoms: C_16  and  C_18
REMARK    8  A    between atoms: C_21  and  C_24
REMARK    9  A    between atoms: C_24  and  C_26
REMARK   10  A    between atoms: S_32  and  N_35
REMARK                            x       y       z     vdW  Elec       q    Type
REMARK                         _______ _______ _______ _____ _____    ______ ____
ROOT
ATOM      1  N   UNL     1       0.088  12.385  -0.415  0.00  0.00    -0.310 N 
ATOM      2  C   UNL     1       0.358  13.728  -0.229  0.00  0.00    +0.058 A 
ATOM      3  C   UNL     1      -0.548  14.773   0.012  0.00  0.00    +0.029 A 
ATOM      4  C   UNL     1      -0.105  16.064   0.174  0.00  0.00    +0.030 A 
ATOM      5  C   UNL     1       1.243  16.374   0.108  0.00  0.00    +0.106 A 
ATOM      6  C   UNL     1       2.158  15.363  -0.127  0.00  0.00    +0.045 A 
ATOM      7  C   UNL     1       1.716  14.072  -0.290  0.00  0.00    +0.041 A 
ATOM      8  S   UNL     1       2.516  12.516  -0.592  0.00  0.00    -0.052 S 
ATOM      9  C   UNL     1       1.105  11.510  -0.637  0.00  0.00    +0.167 A 
ATOM     10  N   UNL     1       1.034  10.197  -0.835  0.00  0.00    -0.152 NA
ENDROOT
BRANCH   5  11
ATOM     11  S   UNL     1       1.787  18.036   0.321  0.00  0.00    +0.056 S 
ATOM     12  O   UNL     1       0.778  18.701   1.069  0.00  0.00    -0.153 OA
ATOM     13  O   UNL     1       3.138  17.969   0.756  0.00  0.00    -0.153 OA
BRANCH  11  14
ATOM     14  N   UNL     1       1.806  18.741  -1.177  0.00  0.00    -0.204 NA
ATOM     15  H   UNL     1       1.544  18.228  -1.958  0.00  0.00    +0.144 HD
ATOM     16  H   UNL     1       2.080  19.666  -1.275  0.00  0.00    +0.144 HD
ENDBRANCH  11  14
ENDBRANCH   5  11
BRANCH  10  17
ATOM     17  C   UNL     1       2.150   9.491  -1.039  0.00  0.00    +0.269 C 
ATOM     18  O   UNL     1       3.233  10.051  -1.044  0.00  0.00    -0.268 OA
BRANCH  17  19
ATOM     19  C   UNL     1       2.072   8.028  -1.260  0.00  0.00    +0.039 A 
ATOM     20  C   UNL     1       3.237   7.291  -1.474  0.00  0.00    +0.014 A 
ATOM     21  C   UNL     1       3.165   5.931  -1.679  0.00  0.00    +0.012 A 
ATOM     22  C   UNL     1       1.925   5.289  -1.673  0.00  0.00    +0.022 A 
ATOM     23  C   UNL     1       0.758   6.028  -1.465  0.00  0.00    +0.012 A 
ATOM     24  C   UNL     1       0.832   7.387  -1.254  0.00  0.00    +0.014 A 
BRANCH  22  25
ATOM     25  C   UNL     1       1.846   3.829  -1.893  0.00  0.00    +0.193 C 
ATOM     26  O   UNL     1       2.836   3.212  -2.233  0.00  0.00    -0.287 OA
BRANCH  25  27
ATOM     27  C   UNL     1       0.565   3.120  -1.699  0.00  0.00    +0.022 A 
ATOM     28  C   UNL     1      -0.308   3.515  -0.682  0.00  0.00    +0.012 A 
ATOM     29  C   UNL     1      -1.504   2.849  -0.507  0.00  0.00    +0.001 A 
ATOM     30  C   UNL     1      -1.836   1.789  -1.332  0.00  0.00    +0.000 A 
ATOM     31  C   UNL     1      -0.979   1.397  -2.345  0.00  0.00    +0.001 A 
ATOM     32  C   UNL     1       0.220   2.053  -2.532  0.00  0.00    +0.012 A 
ENDBRANCH  25  27
ENDBRANCH  22  25
ENDBRANCH  17  19
ENDBRANCH  10  17
BRANCH   1  33
ATOM     33  C   UNL     1      -1.295  11.904  -0.373  0.00  0.00    +0.244 C 
BRANCH  33  34
ATOM     34  C   UNL     1      -1.504  10.880  -1.458  0.00  0.00    +0.327 C 
ATOM     35  O   UNL     1      -0.651  10.705  -2.296  0.00  0.00    -0.249 OA
BRANCH  34  37
ATOM     36  C   UNL     1      -2.770   9.193  -2.568  0.00  0.00    +0.280 C 
ATOM     37  O   UNL     1      -2.637  10.161  -1.494  0.00  0.00    -0.467 OA
ENDBRANCH  34  37
ENDBRANCH  33  34
ENDBRANCH   1  33
TORSDOF 9
