REMARK  Name = ZINC23223745
REMARK  9 active torsions:
REMARK  status: ('A' for Active; 'I' for Inactive)
REMARK    1  A    between atoms: C_1  and  C_2
REMARK    2  A    between atoms: C_7  and  C_30
REMARK    3  A    between atoms: C_10  and  C_12
REMARK    4  A    between atoms: C_12  and  S_13
REMARK    5  A    between atoms: S_13  and  C_14
REMARK    6  A    between atoms: N_24  and  C_25
REMARK    7  A    between atoms: C_25  and  C_26
REMARK    8  A    between atoms: C_26  and  C_27
REMARK    9  A    between atoms: C_26  and  C_28
REMARK                            x       y       z     vdW  Elec       q    Type
REMARK                         _______ _______ _______ _____ _____    ______ ____
ROOT
ATOM      1  C   UNL     1       3.564   0.571   5.648  0.00  0.00    +0.173 A 
ATOM      2  N   UNL     1       3.818  -0.708   5.527  0.00  0.00    -0.223 NA
ATOM      3  C   UNL     1       4.697  -1.336   6.343  0.00  0.00    +0.079 A 
ATOM      4  C   UNL     1       4.968  -2.701   6.214  0.00  0.00    +0.029 A 
ATOM      5  C   UNL     1       5.863  -3.299   7.056  0.00  0.00    +0.017 A 
ATOM      6  C   UNL     1       6.511  -2.568   8.045  0.00  0.00    +0.019 A 
ATOM      7  C   UNL     1       6.265  -1.221   8.197  0.00  0.00    +0.030 A 
ATOM      8  C   UNL     1       5.356  -0.592   7.348  0.00  0.00    +0.066 A 
ATOM      9  C   UNL     1       5.052   0.841   7.461  0.00  0.00    +0.262 A 
ATOM     10  O   UNL     1       5.588   1.535   8.306  0.00  0.00    -0.267 OA
ATOM     11  N   UNL     1       4.160   1.363   6.587  0.00  0.00    -0.287 N 
ATOM     12 BR   UNL     1       7.742  -3.431   9.193  0.00  0.00    -0.050 Br
ENDROOT
BRANCH   1  13
ATOM     13  S   UNL     1       2.406   1.306   4.542  0.00  0.00    -0.078 S 
BRANCH  13  14
ATOM     14  C   UNL     1       1.871  -0.070   3.488  0.00  0.00    +0.173 C 
BRANCH  14  22
ATOM     15  C   UNL     1      -0.408   1.755   0.523  0.00  0.00    +0.028 C 
ATOM     16  C   UNL     1      -0.044   0.302   0.214  0.00  0.00    +0.073 C 
ATOM     17  C   UNL     1      -1.311  -0.480  -0.147  0.00  0.00    +0.022 C 
ATOM     18  C   UNL     1      -0.962  -1.960  -0.319  0.00  0.00    +0.004 C 
ATOM     19  C   UNL     1      -0.411  -2.512   0.998  0.00  0.00    +0.022 C 
ATOM     20  C   UNL     1       0.866  -1.754   1.371  0.00  0.00    +0.073 C 
ATOM     21  N   UNL     1       0.574  -0.313   1.396  0.00  0.00    -0.295 N 
ATOM     22  C   UNL     1       0.865   0.428   2.483  0.00  0.00    +0.226 C 
ATOM     23  O   UNL     1       0.317   1.496   2.653  0.00  0.00    -0.275 OA
ATOM     24  C   UNL     1       1.347  -2.206   2.752  0.00  0.00    +0.028 C 
ENDBRANCH  14  22
ENDBRANCH  13  14
ENDBRANCH   1  13
BRANCH  11  25
ATOM     25  C   UNL     1       3.827   2.788   6.654  0.00  0.00    +0.130 C 
BRANCH  25  26
ATOM     26  C   UNL     1       2.643   2.992   7.601  0.00  0.00    +0.003 C 
ATOM     27  C   UNL     1       2.374   4.489   7.768  0.00  0.00    +0.009 C 
ATOM     28  C   UNL     1       1.401   2.312   7.019  0.00  0.00    +0.009 C 
ENDBRANCH  25  26
ENDBRANCH  11  25
TORSDOF 5
