REMARK  Name = ZINC39929498
REMARK  7 active torsions:
REMARK  status: ('A' for Active; 'I' for Inactive)
REMARK    1  A    between atoms: C_1  and  O_2
REMARK    2  A    between atoms: O_2  and  C_3
REMARK    3  A    between atoms: C_3  and  C_5
REMARK    4  A    between atoms: C_5  and  O_27
REMARK    5  A    between atoms: C_7  and  C_17
REMARK    6  A    between atoms: N_10  and  C_11
REMARK    7  A    between atoms: C_17  and  C_19
REMARK                            x       y       z     vdW  Elec       q    Type
REMARK                         _______ _______ _______ _____ _____    ______ ____
ROOT
ATOM      1  C   UNL     1       0.709  -2.062   1.097  0.00  0.00    +0.305 C 
ATOM      2  C   UNL     1       1.955  -2.596   0.418  0.00  0.00    +0.254 C 
ATOM      3  C   UNL     1       2.646  -3.250   1.374  0.00  0.00    +0.223 C 
ATOM      4  O   UNL     1       2.025  -3.215   2.572  0.00  0.00    -0.430 OA
ATOM      5  C   UNL     1       0.863  -2.535   2.529  0.00  0.00    +0.248 C 
ATOM      6  N   UNL     1       0.041  -2.327   3.514  0.00  0.00    -0.214 NA
ATOM      7  O   UNL     1       2.302  -2.447  -0.878  0.00  0.00    -0.284 OA
ENDROOT
BRANCH   6   8
ATOM      8  C   UNL     1       0.324  -2.825   4.761  0.00  0.00    +0.067 A 
ATOM      9  C   UNL     1       0.785  -4.134   4.904  0.00  0.00    +0.028 A 
ATOM     10  C   UNL     1       1.069  -4.629   6.161  0.00  0.00    +0.002 A 
ATOM     11  C   UNL     1       0.897  -3.830   7.277  0.00  0.00    +0.000 A 
ATOM     12  C   UNL     1       0.440  -2.531   7.142  0.00  0.00    +0.002 A 
ATOM     13  C   UNL     1       0.158  -2.023   5.890  0.00  0.00    +0.028 A 
ENDBRANCH   6   8
BRANCH   1  14
ATOM     14  C   UNL     1       0.673  -0.557   1.035  0.00  0.00    +0.357 C 
ATOM     15  O   UNL     1       1.193   0.096   1.909  0.00  0.00    -0.246 OA
BRANCH  14  17
ATOM     16  C   UNL     1       0.068   1.488   0.015  0.00  0.00    +0.280 C 
ATOM     17  O   UNL     1       0.064   0.059   0.010  0.00  0.00    -0.465 OA
ENDBRANCH  14  17
ENDBRANCH   1  14
BRANCH   3  18
ATOM     18  C   UNL     1       3.923  -3.921   1.139  0.00  0.00    +0.232 C 
ATOM     19  O   UNL     1       4.373  -3.997   0.010  0.00  0.00    -0.283 OA
BRANCH  18  20
ATOM     20  C   UNL     1       4.670  -4.508   2.273  0.00  0.00    +0.026 A 
ATOM     21  C   UNL     1       5.949  -5.030   2.074  0.00  0.00    +0.013 A 
ATOM     22  C   UNL     1       6.640  -5.576   3.135  0.00  0.00    +0.016 A 
ATOM     23  C   UNL     1       6.068  -5.606   4.396  0.00  0.00    +0.018 A 
ATOM     24  C   UNL     1       4.799  -5.089   4.599  0.00  0.00    +0.016 A 
ATOM     25  C   UNL     1       4.100  -4.536   3.547  0.00  0.00    +0.013 A 
ATOM     26 BR   UNL     1       7.022  -6.356   5.846  0.00  0.00    -0.050 Br
ENDBRANCH  18  20
ENDBRANCH   3  18
BRANCH   1  27
ATOM     27  O   UNL     1      -0.468  -2.617   0.506  0.00  0.00    -0.364 OA
ATOM     28  H   UNL     1      -0.595  -2.374  -0.421  0.00  0.00    +0.212 HD
ENDBRANCH   1  27
TORSDOF 6
