REMARK  Name = ZINC32644040
REMARK  9 active torsions:
REMARK  status: ('A' for Active; 'I' for Inactive)
REMARK    1  A    between atoms: C_1  and  C_2
REMARK    2  A    between atoms: C_2  and  C_35
REMARK    3  A    between atoms: C_4  and  N_11
REMARK    4  A    between atoms: C_6  and  C_9
REMARK    5  A    between atoms: C_6  and  C_10
REMARK    6  A    between atoms: N_7  and  C_8
REMARK    7  A    between atoms: C_12  and  C_14
REMARK    8  A    between atoms: N_24  and  S_25
REMARK    9  A    between atoms: S_25  and  C_28
REMARK                            x       y       z     vdW  Elec       q    Type
REMARK                         _______ _______ _______ _____ _____    ______ ____
ROOT
ATOM      1  C   UNL     1      -1.434   5.511  -0.460  0.00  0.00    +0.170 C 
ATOM      2  C   UNL     1      -1.626   4.621   0.767  0.00  0.00    +0.065 C 
ATOM      3  C   UNL     1      -2.160   3.270   0.371  0.00  0.00    -0.041 A 
ATOM      4  C   UNL     1      -2.002   2.224   1.272  0.00  0.00    +0.004 A 
ATOM      5  C   UNL     1      -2.479   0.965   0.977  0.00  0.00    +0.000 A 
ATOM      6  C   UNL     1      -3.125   0.738  -0.224  0.00  0.00    +0.000 A 
ATOM      7  C   UNL     1      -3.278   1.773  -1.124  0.00  0.00    +0.005 A 
ATOM      8  C   UNL     1      -2.797   3.041  -0.828  0.00  0.00    -0.028 A 
ATOM      9  C   UNL     1      -2.988   4.124  -1.861  0.00  0.00    +0.145 C 
ATOM     10  N   UNL     1      -2.657   5.428  -1.275  0.00  0.00    -0.160 NA
ENDROOT
BRANCH   1  12
ATOM     11  N   UNL     1      -0.106   7.598  -0.429  0.00  0.00    -0.311 N 
ATOM     12  C   UNL     1      -1.209   6.937  -0.025  0.00  0.00    +0.232 C 
ATOM     13  O   UNL     1      -2.019   7.488   0.690  0.00  0.00    -0.274 OA
ATOM     14  H   UNL     1       0.629   7.098  -1.077  0.00  0.00    +0.149 HD
BRANCH  11  18
ATOM     15  C   UNL     1       1.701  10.871   1.897  0.00  0.00    -0.010 C 
ATOM     16  C   UNL     1       1.868  10.738   0.378  0.00  0.00    -0.069 C 
ATOM     17  C   UNL     1       1.611   9.292  -0.038  0.00  0.00    +0.010 C 
ATOM     18  C   UNL     1       0.114   8.987  -0.005  0.00  0.00    +0.070 C 
ATOM     19  C   UNL     1      -0.596   9.928  -0.978  0.00  0.00    +0.010 C 
ATOM     20  C   UNL     1      -0.364  11.382  -0.575  0.00  0.00    -0.069 C 
ATOM     21  N   UNL     1       1.030  11.685  -0.326  0.00  0.00    +0.385 N 
ATOM     22  C   UNL     1       1.220  13.060   0.157  0.00  0.00    -0.095 C 
ATOM     23  C   UNL     1      -1.231  11.721   0.643  0.00  0.00    -0.010 C 
ATOM     24  C   UNL     1      -0.850  12.271  -1.742  0.00  0.00    -0.010 C 
ATOM     25  C   UNL     1       3.343  11.062   0.050  0.00  0.00    -0.010 C 
ATOM     26  H   UNL     1       1.425  11.551  -1.343  0.00  0.00    -0.081 HD
ENDBRANCH  11  18
ENDBRANCH   1  12
BRANCH  10  27
ATOM     27  S   UNL     1      -3.621   6.752  -1.522  0.00  0.00    +0.062 S 
ATOM     28  O   UNL     1      -2.774   7.890  -1.443  0.00  0.00    -0.153 OA
ATOM     29  O   UNL     1      -4.413   6.470  -2.667  0.00  0.00    -0.153 OA
BRANCH  27  30
ATOM     30  C   UNL     1      -4.728   6.852  -0.155  0.00  0.00    +0.106 A 
ATOM     31  C   UNL     1      -5.806   5.989  -0.075  0.00  0.00    +0.031 A 
ATOM     32  C   UNL     1      -6.672   6.063   0.999  0.00  0.00    +0.040 A 
ATOM     33  C   UNL     1      -6.468   7.009   1.989  0.00  0.00    +0.124 A 
ATOM     34  C   UNL     1      -5.391   7.876   1.905  0.00  0.00    +0.040 A 
ATOM     35  C   UNL     1      -4.523   7.796   0.833  0.00  0.00    +0.031 A 
ATOM     36  F   UNL     1      -7.317   7.086   3.037  0.00  0.00    -0.205 F 
ENDBRANCH  27  30
ENDBRANCH  10  27
TORSDOF 4
