REMARK  Name = ZINC05144040
REMARK  4 active torsions:
REMARK  status: ('A' for Active; 'I' for Inactive)
REMARK    1  A    between atoms: C_1  and  C_2
REMARK    2  A    between atoms: C_7  and  N_12
REMARK    3  A    between atoms: C_9  and  C_11
REMARK    4  A    between atoms: C_13  and  C_15
REMARK                            x       y       z     vdW  Elec       q    Type
REMARK                         _______ _______ _______ _____ _____    ______ ____
ROOT
ATOM      1  C   UNL     1      -5.893  -5.584   1.046  0.00  0.00    +0.078 C 
ATOM      2  C   UNL     1      -6.172  -4.615  -0.107  0.00  0.00    +0.032 C 
ATOM      3  C   UNL     1      -5.273  -3.385   0.037  0.00  0.00    +0.108 C 
ATOM      4  N   UNL     1      -3.865  -3.802   0.021  0.00  0.00    -0.308 N 
ATOM      5  C   UNL     1      -3.562  -4.695   1.146  0.00  0.00    +0.108 C 
ATOM      6  C   UNL     1      -4.410  -5.964   1.035  0.00  0.00    +0.032 C 
ATOM      7  C   UNL     1      -3.020  -2.700   0.018  0.00  0.00    +0.186 A 
ATOM      8  N   UNL     1      -3.307  -1.406   0.028  0.00  0.00    -0.124 NA
ATOM      9  N   UNL     1      -2.406  -0.524   0.030  0.00  0.00    -0.121 NA
ATOM     10  C   UNL     1      -1.121  -0.834   0.009  0.00  0.00    +0.202 A 
ATOM     11  S   UNL     1      -1.231  -2.621   0.001  0.00  0.00    -0.013 S 
ATOM     12  N   UNL     1       0.002  -0.004   0.002  0.00  0.00    -0.301 N 
ATOM     13  C   UNL     1      -0.016   1.362   0.009  0.00  0.00    +0.093 A 
ATOM     14  C   UNL     1       1.259   1.800  -0.000  0.00  0.00    +0.019 A 
ATOM     15  C   UNL     1       2.096   0.667  -0.014  0.00  0.00    +0.019 A 
ATOM     16  C   UNL     1       1.302  -0.423  -0.013  0.00  0.00    +0.093 A 
ENDROOT
BRANCH   1  18
ATOM     17  N   UNL     1      -6.652  -7.820   1.780  0.00  0.00    -0.312 N 
ATOM     18  C   UNL     1      -6.733  -6.823   0.876  0.00  0.00    +0.216 C 
ATOM     19  O   UNL     1      -7.482  -6.924  -0.072  0.00  0.00    -0.276 OA
ATOM     20  H   UNL     1      -6.053  -7.740   2.538  0.00  0.00    +0.149 HD
BRANCH  17  26
ATOM     21  C   UNL     1      -7.790 -11.779   0.669  0.00  0.00    +0.008 C 
ATOM     22  C   UNL     1      -7.649 -11.457   2.158  0.00  0.00    -0.009 C 
ATOM     23  C   UNL     1      -9.035 -11.220   2.761  0.00  0.00    +0.003 C 
ATOM     24  C   UNL     1      -9.708 -10.047   2.047  0.00  0.00    +0.002 C 
ATOM     25  C   UNL     1      -8.855  -8.788   2.219  0.00  0.00    +0.022 C 
ATOM     26  C   UNL     1      -7.469  -9.025   1.615  0.00  0.00    +0.076 C 
ATOM     27  C   UNL     1      -6.796 -10.199   2.329  0.00  0.00    +0.009 C 
ATOM     28  C   UNL     1      -5.410 -10.436   1.726  0.00  0.00    +0.009 C 
ENDBRANCH  17  26
ENDBRANCH   1  18
TORSDOF 2
