REMARK  Name = ZINC08995689
REMARK  6 active torsions:
REMARK  status: ('A' for Active; 'I' for Inactive)
REMARK    1  A    between atoms: C_1  and  C_2
REMARK    2  A    between atoms: C_2  and  O_3
REMARK    3  A    between atoms: O_3  and  C_4
REMARK    4  A    between atoms: C_4  and  C_6
REMARK    5  A    between atoms: C_7  and  C_30
REMARK    6  A    between atoms: C_11  and  C_13
REMARK                            x       y       z     vdW  Elec       q    Type
REMARK                         _______ _______ _______ _____ _____    ______ ____
ROOT
ATOM      1  C   UNL     1      -2.796  -2.430   0.223  0.00  0.00    +0.065 C 
ATOM      2  C   UNL     1      -2.921  -3.728  -0.087  0.00  0.00    +0.016 C 
ATOM      3  N   UNL     1      -4.134  -4.331  -0.289  0.00  0.00    -0.317 N 
ATOM      4  C   UNL     1      -5.270  -3.655   0.101  0.00  0.00    +0.047 C 
ATOM      5  C   UNL     1      -5.240  -2.322   0.423  0.00  0.00    +0.034 C 
ATOM      6  C   UNL     1      -3.974  -1.505   0.376  0.00  0.00    +0.093 C 
ATOM      7  C   UNL     1      -6.535  -1.891   0.787  0.00  0.00    +0.193 C 
ATOM      8  O   UNL     1      -6.850  -0.767   1.128  0.00  0.00    -0.287 OA
ATOM      9  C   UNL     1      -7.438  -3.058   0.679  0.00  0.00    +0.031 A 
ATOM     10  C   UNL     1      -6.642  -4.151   0.251  0.00  0.00    +0.007 A 
ATOM     11  C   UNL     1      -7.200  -5.404   0.052  0.00  0.00    +0.010 A 
ATOM     12  C   UNL     1      -8.571  -5.533   0.294  0.00  0.00    +0.001 A 
ATOM     13  C   UNL     1      -9.339  -4.471   0.709  0.00  0.00    +0.001 A 
ATOM     14  C   UNL     1      -8.791  -3.200   0.914  0.00  0.00    +0.012 A 
ATOM     15  C   UNL     1      -1.672  -4.559  -0.221  0.00  0.00    +0.061 C 
ATOM     16  H   UNL     1      -4.192  -5.210  -0.696  0.00  0.00    +0.152 HD
ENDROOT
BRANCH   6  17
ATOM     17  C   UNL     1      -4.031  -0.563  -0.799  0.00  0.00    -0.031 A 
ATOM     18  C   UNL     1      -4.171  -1.065  -2.080  0.00  0.00    +0.008 A 
ATOM     19  C   UNL     1      -4.224  -0.205  -3.161  0.00  0.00    +0.050 A 
ATOM     20  C   UNL     1      -4.137   1.164  -2.963  0.00  0.00    +0.166 A 
ATOM     21  C   UNL     1      -3.996   1.669  -1.673  0.00  0.00    +0.167 A 
ATOM     22  C   UNL     1      -3.949   0.802  -0.594  0.00  0.00    +0.054 A 
ATOM     23  O   UNL     1      -3.933   3.031  -1.743  0.00  0.00    -0.453 OA
ATOM     24  C   UNL     1      -3.626   3.332  -3.117  0.00  0.00    +0.466 C 
ATOM     25  O   UNL     1      -4.162   2.209  -3.841  0.00  0.00    -0.453 OA
ENDBRANCH   6  17
BRANCH   1  26
ATOM     26  C   UNL     1      -1.498  -1.906   0.422  0.00  0.00    +0.338 C 
ATOM     27  O   UNL     1      -1.063  -1.770   1.550  0.00  0.00    -0.245 OA
BRANCH  26  28
ATOM     28  O   UNL     1      -0.740  -1.558  -0.639  0.00  0.00    -0.462 OA
BRANCH  28  30
ATOM     29  C   UNL     1       1.264  -0.700  -1.681  0.00  0.00    +0.048 C 
ATOM     30  C   UNL     1       0.561  -1.036  -0.364  0.00  0.00    +0.229 C 
ENDBRANCH  28  30
ENDBRANCH  26  28
ENDBRANCH   1  26
TORSDOF 4
