REMARK  Name = ZINC64591819
REMARK  8 active torsions:
REMARK  status: ('A' for Active; 'I' for Inactive)
REMARK    1  A    between atoms: C_1  and  C_2
REMARK    2  A    between atoms: C_4  and  C_26
REMARK    3  A    between atoms: C_5  and  C_25
REMARK    4  A    between atoms: C_6  and  S_8
REMARK    5  A    between atoms: S_8  and  N_11
REMARK    6  A    between atoms: N_11  and  C_12
REMARK    7  A    between atoms: N_19  and  C_24
REMARK    8  A    between atoms: N_22  and  C_23
REMARK                            x       y       z     vdW  Elec       q    Type
REMARK                         _______ _______ _______ _____ _____    ______ ____
ROOT
ATOM      1  N   UNL     1      -1.435  -3.792   2.939  0.00  0.00    -0.215 N 
ATOM      2  H   UNL     1      -2.022  -3.518   3.661  0.00  0.00    +0.174 HD
ENDROOT
BRANCH   1   3
ATOM      3  C   UNL     1      -1.739  -4.929   2.182  0.00  0.00    +0.068 A 
ATOM      4  C   UNL     1      -0.718  -5.745   1.718  0.00  0.00    +0.054 A 
ATOM      5  C   UNL     1      -1.022  -6.871   0.968  0.00  0.00    +0.071 A 
ATOM      6  C   UNL     1      -2.354  -7.180   0.684  0.00  0.00    +0.071 A 
ATOM      7  C   UNL     1      -3.371  -6.360   1.150  0.00  0.00    +0.050 A 
ATOM      8  C   UNL     1      -3.065  -5.242   1.902  0.00  0.00    +0.065 A 
ATOM      9 CL   UNL     1      -4.339  -4.221   2.491  0.00  0.00    -0.082 Cl
ATOM     10  N   UNL     1      -2.342  -8.351  -0.075  0.00  0.00    -0.295 N 
ATOM     11  C   UNL     1      -1.062  -8.734  -0.242  0.00  0.00    +0.330 A 
ATOM     12  O   UNL     1      -0.701  -9.719  -0.859  0.00  0.00    -0.246 OA
ATOM     13  N   UNL     1      -0.243  -7.862   0.375  0.00  0.00    -0.295 N 
ATOM     14  C   UNL     1       1.219  -7.941   0.415  0.00  0.00    +0.154 C 
ATOM     15  C   UNL     1      -3.521  -9.045  -0.599  0.00  0.00    +0.154 C 
ENDBRANCH   1   3
BRANCH   1  16
ATOM     16  S   UNL     1      -0.072  -2.913   2.603  0.00  0.00    +0.073 S 
ATOM     17  O   UNL     1      -0.069  -1.809   3.498  0.00  0.00    -0.150 OA
ATOM     18  O   UNL     1      -0.032  -2.750   1.192  0.00  0.00    -0.150 OA
BRANCH  16  24
ATOM     19  C   UNL     1       4.248  -5.564   1.325  0.00  0.00    +0.044 C 
ATOM     20  C   UNL     1       3.283  -5.114   2.391  0.00  0.00    -0.048 A 
ATOM     21  C   UNL     1       3.485  -5.485   3.708  0.00  0.00    +0.007 A 
ATOM     22  C   UNL     1       2.601  -5.072   4.686  0.00  0.00    -0.045 A 
ATOM     23  C   UNL     1       1.514  -4.287   4.348  0.00  0.00    -0.021 A 
ATOM     24  C   UNL     1       1.313  -3.914   3.033  0.00  0.00    +0.112 A 
ATOM     25  C   UNL     1       2.200  -4.324   2.055  0.00  0.00    +0.032 A 
ATOM     26  C   UNL     1       0.549  -3.837   5.415  0.00  0.00    +0.046 C 
ATOM     27  C   UNL     1       2.820  -5.478   6.120  0.00  0.00    +0.044 C 
ENDBRANCH  16  24
ENDBRANCH   1  16
TORSDOF 3
