REMARK  Name = ZINC36558977
REMARK  5 active torsions:
REMARK  status: ('A' for Active; 'I' for Inactive)
REMARK    1  A    between atoms: C_1  and  C_2
REMARK    2  A    between atoms: N_5  and  C_7
REMARK    3  A    between atoms: C_15  and  O_28
REMARK    4  A    between atoms: C_17  and  C_19
REMARK    5  A    between atoms: C_22  and  C_25
REMARK                            x       y       z     vdW  Elec       q    Type
REMARK                         _______ _______ _______ _____ _____    ______ ____
ROOT
ATOM      1  C   UNL     1      -0.018   1.503   0.010  0.00  0.00    +0.068 C 
ATOM      2  C   UNL     1       0.002  -0.004   0.002  0.00  0.00    +0.066 A 
ATOM      3  C   UNL     1       0.008  -0.806  -1.123  0.00  0.00    +0.027 A 
ATOM      4  C   UNL     1       0.032  -2.130  -0.705  0.00  0.00    +0.164 A 
ATOM      5  N   UNL     1       0.034  -2.120   0.648  0.00  0.00    -0.214 N 
ATOM      6  N   UNL     1       0.023  -0.778   1.064  0.00  0.00    -0.169 NA
ATOM      7  N   UNL     1       0.057  -3.160  -1.598  0.00  0.00    -0.197 NA
ATOM      8  C   UNL     1       0.344  -2.913  -2.841  0.00  0.00    +0.190 C 
ATOM      9  C   UNL     1       0.716  -1.552  -3.353  0.00  0.00    +0.108 C 
ATOM     10  C   UNL     1      -0.012  -0.442  -2.587  0.00  0.00    +0.063 C 
ENDROOT
BRANCH   5  11
ATOM     11  C   UNL     1       0.048  -3.245   1.484  0.00  0.00    +0.068 A 
ATOM     12  C   UNL     1      -0.624  -4.400   1.106  0.00  0.00    +0.030 A 
ATOM     13  C   UNL     1      -0.608  -5.507   1.931  0.00  0.00    +0.040 A 
ATOM     14  C   UNL     1       0.076  -5.466   3.134  0.00  0.00    +0.124 A 
ATOM     15  C   UNL     1       0.747  -4.315   3.512  0.00  0.00    +0.040 A 
ATOM     16  C   UNL     1       0.739  -3.208   2.687  0.00  0.00    +0.030 A 
ATOM     17  F   UNL     1       0.089  -6.551   3.940  0.00  0.00    -0.205 F 
ENDBRANCH   5  11
BRANCH  10  18
ATOM     18  C   UNL     1      -1.436  -0.337  -3.068  0.00  0.00    -0.039 A 
ATOM     19  C   UNL     1      -2.273  -1.435  -2.984  0.00  0.00    +0.005 A 
ATOM     20  C   UNL     1      -3.578  -1.347  -3.424  0.00  0.00    +0.015 A 
ATOM     21  C   UNL     1      -4.053  -0.145  -3.954  0.00  0.00    +0.063 A 
ATOM     22  C   UNL     1      -3.202   0.960  -4.035  0.00  0.00    +0.015 A 
ATOM     23  C   UNL     1      -1.901   0.859  -3.587  0.00  0.00    +0.005 A 
BRANCH  21  24
ATOM     24  C   UNL     1      -5.447  -0.043  -4.426  0.00  0.00    +0.387 C 
ATOM     25  O   UNL     1      -6.190  -1.012  -4.354  0.00  0.00    -0.241 OA
ATOM     26  O   UNL     1      -5.860   1.011  -4.889  0.00  0.00    -0.241 OA
ENDBRANCH  21  24
ENDBRANCH  10  18
BRANCH   8  27
ATOM     27  O   UNL     1       0.306  -3.936  -3.719  0.00  0.00    -0.495 OA
ATOM     28  H   UNL     1       0.060  -4.784  -3.325  0.00  0.00    +0.293 HD
ENDBRANCH   8  27
TORSDOF 4
