REMARK  Name = ZINC35753587
REMARK  12 active torsions:
REMARK  status: ('A' for Active; 'I' for Inactive)
REMARK    1  A    between atoms: C_1  and  C_2
REMARK    2  A    between atoms: C_2  and  C_3
REMARK    3  A    between atoms: C_2  and  C_4
REMARK    4  A    between atoms: C_4  and  C_5
REMARK    5  A    between atoms: N_7  and  C_8
REMARK    6  A    between atoms: C_12  and  C_14
REMARK    7  A    between atoms: C_16  and  C_30
REMARK    8  A    between atoms: N_18  and  C_22
REMARK    9  A    between atoms: C_22  and  C_23
REMARK   10  A    between atoms: N_32  and  C_33
REMARK   11  A    between atoms: C_33  and  C_34
REMARK   12  A    between atoms: C_34  and  N_35
REMARK                            x       y       z     vdW  Elec       q    Type
REMARK                         _______ _______ _______ _____ _____    ______ ____
ROOT
ATOM      1  C   UNL     1      -5.203  -6.827  -0.782  0.00  0.00    +0.238 C 
ATOM      2  C   UNL     1      -5.608  -7.476   0.563  0.00  0.00    +0.210 C 
ATOM      3  N   UNL     1      -6.235  -8.738   0.125  0.00  0.00    -0.248 N 
ATOM      4  C   UNL     1      -5.904  -8.935  -1.165  0.00  0.00    +0.405 C 
ATOM      5  O   UNL     1      -6.292  -9.880  -1.822  0.00  0.00    -0.226 OA
ATOM      6  O   UNL     1      -5.098  -7.973  -1.649  0.00  0.00    -0.440 OA
ENDROOT
BRANCH   1  11
ATOM      7  C   UNL     1      -2.617  -4.106  -0.343  0.00  0.00    +0.034 A 
ATOM      8  C   UNL     1      -1.436  -4.832  -0.442  0.00  0.00    +0.023 A 
ATOM      9  C   UNL     1      -1.481  -6.196  -0.650  0.00  0.00    +0.002 A 
ATOM     10  C   UNL     1      -2.700  -6.840  -0.759  0.00  0.00    +0.007 A 
ATOM     11  C   UNL     1      -3.877  -6.121  -0.662  0.00  0.00    -0.003 A 
ATOM     12  C   UNL     1      -3.839  -4.757  -0.448  0.00  0.00    +0.030 A 
BRANCH   7  15
ATOM     13  C   UNL     1      -1.596  -1.986  -0.695  0.00  0.00    +0.217 C 
ATOM     14  O   UNL     1      -0.705  -2.530  -1.313  0.00  0.00    -0.275 OA
ATOM     15  N   UNL     1      -2.574  -2.724  -0.133  0.00  0.00    -0.285 N 
ATOM     16  H   UNL     1      -3.249  -2.296   0.417  0.00  0.00    +0.155 HD
BRANCH  13  17
ATOM     17  C   UNL     1      -1.609  -0.486  -0.556  0.00  0.00    +0.099 C 
BRANCH  17  19
ATOM     18  C   UNL     1      -0.476   1.632  -1.246  0.00  0.00    +0.008 C 
ATOM     19  C   UNL     1      -0.397   0.104  -1.280  0.00  0.00    -0.008 C 
ATOM     20  C   UNL     1       0.886  -0.355  -0.585  0.00  0.00    +0.008 C 
ENDBRANCH  17  19
ENDBRANCH  13  17
ENDBRANCH   7  15
ENDBRANCH   1  11
BRANCH   2  21
ATOM     21  C   UNL     1      -4.395  -7.742   1.417  0.00  0.00    +0.238 C 
ATOM     22  O   UNL     1      -3.922  -8.858   1.466  0.00  0.00    -0.274 OA
ATOM     23  N   UNL     1      -3.837  -6.741   2.125  0.00  0.00    -0.315 N 
ATOM     24  H   UNL     1      -4.215  -5.849   2.086  0.00  0.00    +0.149 HD
BRANCH  23  25
ATOM     25  C   UNL     1      -2.657  -7.000   2.955  0.00  0.00    +0.086 C 
BRANCH  25  26
ATOM     26  C   UNL     1      -2.227  -5.706   3.648  0.00  0.00    -0.060 C 
BRANCH  26  27
ATOM     27  N   UNL     1      -1.045  -5.966   4.481  0.00  0.00    +0.381 N 
ATOM     28  C   UNL     1       0.131  -6.262   3.622  0.00  0.00    -0.079 C 
ATOM     29  C   UNL     1       1.333  -5.951   4.548  0.00  0.00    -0.020 C 
ATOM     30  C   UNL     1       0.850  -4.713   5.339  0.00  0.00    -0.020 C 
ATOM     31  C   UNL     1      -0.687  -4.755   5.251  0.00  0.00    -0.079 C 
ATOM     32  H   UNL     1      -1.222  -6.737   5.107  0.00  0.00    -0.082 HD
ENDBRANCH  26  27
ENDBRANCH  25  26
ENDBRANCH  23  25
ENDBRANCH   2  21
BRANCH   3  33
ATOM     33  C   UNL     1      -7.069  -9.619   0.946  0.00  0.00    +0.147 C 
BRANCH  33  34
ATOM     34  C   UNL     1      -8.513  -9.204   0.821  0.00  0.00    -0.030 A 
ATOM     35  C   UNL     1      -9.040  -8.268   1.690  0.00  0.00    +0.008 A 
ATOM     36  C   UNL     1     -10.364  -7.886   1.576  0.00  0.00    +0.038 A 
ATOM     37  C   UNL     1     -11.161  -8.443   0.590  0.00  0.00    +0.123 A 
ATOM     38  C   UNL     1     -10.632  -9.381  -0.280  0.00  0.00    +0.038 A 
ATOM     39  C   UNL     1      -9.307  -9.757  -0.167  0.00  0.00    +0.008 A 
ATOM     40  F   UNL     1     -12.455  -8.071   0.478  0.00  0.00    -0.205 F 
ENDBRANCH  33  34
ENDBRANCH   3  33
TORSDOF 10
