REMARK  Name = ZINC39630826
REMARK  11 active torsions:
REMARK  status: ('A' for Active; 'I' for Inactive)
REMARK    1  A    between atoms: C_1  and  C_2
REMARK    2  A    between atoms: C_2  and  C_3
REMARK    3  A    between atoms: C_2  and  C_4
REMARK    4  A    between atoms: C_2  and  C_27
REMARK    5  A    between atoms: C_4  and  N_5
REMARK    6  A    between atoms: C_6  and  C_8
REMARK    7  A    between atoms: C_19  and  C_21
REMARK    8  A    between atoms: N_25  and  C_26
REMARK    9  A    between atoms: C_27  and  N_28
REMARK   10  A    between atoms: N_28  and  C_29
REMARK   11  A    between atoms: N_28  and  C_30
REMARK                            x       y       z     vdW  Elec       q    Type
REMARK                         _______ _______ _______ _____ _____    ______ ____
ROOT
ATOM      1  C   UNL     1      -6.532   0.798   1.502  0.00  0.00    +0.100 C 
ATOM      2  C   UNL     1      -6.056   0.363   2.906  0.00  0.00    +0.121 C 
ATOM      3  N   UNL     1      -7.213  -0.358   3.487  0.00  0.00    -0.295 N 
ATOM      4  C   UNL     1      -7.769  -1.136   2.353  0.00  0.00    +0.115 C 
ATOM      5  C   UNL     1      -7.656  -0.189   1.142  0.00  0.00    -0.004 C 
ATOM      6  C   UNL     1      -7.286  -0.977  -0.110  0.00  0.00    -0.010 C 
ATOM      7  C   UNL     1      -8.442  -1.909  -0.482  0.00  0.00    -0.082 C 
ATOM      8  N   UNL     1      -9.655  -1.117  -0.718  0.00  0.00    +0.379 N 
ATOM      9  C   UNL     1     -10.057  -0.435   0.518  0.00  0.00    -0.082 C 
ATOM     10  C   UNL     1      -8.968   0.559   0.932  0.00  0.00    -0.010 C 
ATOM     11  C   UNL     1      -7.660  -0.317   4.758  0.00  0.00    +0.263 C 
ATOM     12  O   UNL     1      -8.700  -0.873   5.056  0.00  0.00    -0.268 OA
ATOM     13  H   UNL     1      -9.473  -0.431  -1.435  0.00  0.00    -0.086 HD
ATOM     14  H   UNL     1     -10.400  -1.726  -1.022  0.00  0.00    -0.086 HD
ENDROOT
BRANCH  11  15
ATOM     15  C   UNL     1      -6.892   0.399   5.782  0.00  0.00    +0.104 A 
ATOM     16  C   UNL     1      -5.623   0.919   5.634  0.00  0.00    +0.032 A 
ATOM     17  C   UNL     1      -5.279   1.514   6.852  0.00  0.00    +0.020 A 
ATOM     18  C   UNL     1      -6.320   1.351   7.703  0.00  0.00    +0.086 A 
ATOM     19  N   UNL     1      -7.309   0.680   7.063  0.00  0.00    -0.346 N 
ATOM     20  C   UNL     1      -8.604   0.313   7.640  0.00  0.00    +0.149 C 
ENDBRANCH  11  15
BRANCH   1  22
ATOM     21  N   UNL     1      -5.354   1.527  -0.547  0.00  0.00    -0.315 N 
ATOM     22  C   UNL     1      -5.403   0.692   0.510  0.00  0.00    +0.218 C 
ATOM     23  O   UNL     1      -4.538  -0.145   0.662  0.00  0.00    -0.275 OA
ATOM     24  H   UNL     1      -6.046   2.196  -0.669  0.00  0.00    +0.149 HD
BRANCH  21  25
ATOM     25  C   UNL     1      -4.257   1.424  -1.512  0.00  0.00    +0.108 C 
BRANCH  25  27
ATOM     26  C   UNL     1      -5.770   2.247  -3.321  0.00  0.00    +0.010 C 
ATOM     27  C   UNL     1      -4.438   2.479  -2.605  0.00  0.00    -0.034 C 
ATOM     28  C   UNL     1      -4.434   3.873  -1.975  0.00  0.00    +0.010 C 
BRANCH  27  29
ATOM     29  C   UNL     1      -3.292   2.371  -3.613  0.00  0.00    -0.072 C 
BRANCH  29  30
ATOM     30  N   UNL     1      -3.440   3.415  -4.636  0.00  0.00    +0.376 N 
ATOM     31  C   UNL     1      -2.796   4.651  -4.172  0.00  0.00    -0.097 C 
ATOM     32  C   UNL     1      -2.804   2.971  -5.884  0.00  0.00    -0.097 C 
ATOM     33  H   UNL     1      -4.420   3.587  -4.801  0.00  0.00    -0.083 HD
ENDBRANCH  29  30
ENDBRANCH  27  29
ENDBRANCH  25  27
ENDBRANCH  21  25
ENDBRANCH   1  22
TORSDOF 6
