REMARK  Name = ZINC12724816
REMARK  10 active torsions:
REMARK  status: ('A' for Active; 'I' for Inactive)
REMARK    1  A    between atoms: C_1  and  C_2
REMARK    2  A    between atoms: C_2  and  O_3
REMARK    3  A    between atoms: O_3  and  C_4
REMARK    4  A    between atoms: C_4  and  C_6
REMARK    5  A    between atoms: C_7  and  C_29
REMARK    6  A    between atoms: C_11  and  C_15
REMARK    7  A    between atoms: C_15  and  S_16
REMARK    8  A    between atoms: S_16  and  C_17
REMARK    9  A    between atoms: C_20  and  C_22
REMARK   10  A    between atoms: C_26  and  C_27
REMARK                            x       y       z     vdW  Elec       q    Type
REMARK                         _______ _______ _______ _____ _____    ______ ____
ROOT
ATOM      1  C   UNL     1      10.911   0.099   8.209  0.00  0.00    +0.102 A 
ATOM      2  C   UNL     1      10.745   1.246   7.493  0.00  0.00    -0.017 A 
ATOM      3  C   UNL     1       9.690   1.350   6.577  0.00  0.00    +0.051 A 
ATOM      4  C   UNL     1       9.332   2.442   5.732  0.00  0.00    +0.128 A 
ATOM      5  N   UNL     1       8.287   2.322   4.931  0.00  0.00    -0.216 NA
ATOM      6  C   UNL     1       7.551   1.226   4.891  0.00  0.00    +0.143 A 
ATOM      7  N   UNL     1       7.829   0.181   5.647  0.00  0.00    -0.224 NA
ATOM      8  C   UNL     1       8.856   0.209   6.472  0.00  0.00    +0.115 A 
ATOM      9  S   UNL     1       9.569  -0.928   7.632  0.00  0.00    -0.062 S 
ATOM     10  N   UNL     1      10.072   3.607   5.745  0.00  0.00    -0.343 N 
ATOM     11  C   UNL     1      11.694   2.400   7.686  0.00  0.00    +0.046 C 
ATOM     12  H   UNL     1      11.009   3.584   5.995  0.00  0.00    +0.144 HD
ATOM     13  H   UNL     1       9.654   4.449   5.505  0.00  0.00    +0.144 HD
ENDROOT
BRANCH   1  14
ATOM     14  C   UNL     1      11.937  -0.215   9.208  0.00  0.00    +0.346 C 
ATOM     15  O   UNL     1      12.787   0.609   9.485  0.00  0.00    -0.244 OA
BRANCH  14  16
ATOM     16  O   UNL     1      11.939  -1.417   9.819  0.00  0.00    -0.461 OA
BRANCH  16  18
ATOM     17  C   UNL     1      12.824  -3.065  11.378  0.00  0.00    +0.048 C 
ATOM     18  C   UNL     1      12.985  -1.659  10.797  0.00  0.00    +0.229 C 
ENDBRANCH  16  18
ENDBRANCH  14  16
ENDBRANCH   1  14
BRANCH   6  19
ATOM     19  C   UNL     1       6.370   1.165   3.956  0.00  0.00    +0.155 C 
BRANCH  19  20
ATOM     20  S   UNL     1       4.891   1.763   4.812  0.00  0.00    -0.058 S 
BRANCH  20  21
ATOM     21  C   UNL     1       3.701   1.587   3.525  0.00  0.00    +0.278 A 
ATOM     22  N   UNL     1       3.928   1.135   2.314  0.00  0.00    -0.101 NA
ATOM     23  N   UNL     1       2.831   1.144   1.642  0.00  0.00    -0.106 NA
ATOM     24  C   UNL     1       1.861   1.600   2.395  0.00  0.00    +0.253 A 
ATOM     25  O   UNL     1       2.392   1.895   3.602  0.00  0.00    -0.411 OA
BRANCH  24  26
ATOM     26  C   UNL     1       0.448   1.768   1.996  0.00  0.00    +0.079 A 
ATOM     27  C   UNL     1      -0.653   2.277   2.824  0.00  0.00    +0.054 A 
ATOM     28  C   UNL     1      -1.747   2.250   2.044  0.00  0.00    +0.196 A 
ATOM     29  O   UNL     1      -1.410   1.781   0.833  0.00  0.00    -0.467 OA
ATOM     30  C   UNL     1      -0.104   1.482   0.785  0.00  0.00    +0.114 A 
ATOM     31  C   UNL     1       0.630   0.928  -0.409  0.00  0.00    +0.087 C 
ENDBRANCH  24  26
ENDBRANCH  20  21
ENDBRANCH  19  20
ENDBRANCH   6  19
TORSDOF 7
