REMARK  Name = ZINC39710342
REMARK  13 active torsions:
REMARK  status: ('A' for Active; 'I' for Inactive)
REMARK    1  A    between atoms: C_1  and  C_2
REMARK    2  A    between atoms: C_9  and  C_14
REMARK    3  A    between atoms: C_14  and  C_16
REMARK    4  A    between atoms: C_14  and  N_25
REMARK    5  A    between atoms: N_20  and  C_21
REMARK    6  A    between atoms: C_21  and  C_22
REMARK    7  A    between atoms: C_22  and  O_23
REMARK    8  A    between atoms: O_23  and  C_24
REMARK    9  A    between atoms: N_25  and  C_26
REMARK   10  A    between atoms: N_25  and  C_34
REMARK   11  A    between atoms: C_26  and  C_27
REMARK   12  A    between atoms: C_27  and  C_28
REMARK   13  A    between atoms: C_34  and  C_35
REMARK                            x       y       z     vdW  Elec       q    Type
REMARK                         _______ _______ _______ _____ _____    ______ ____
ROOT
ATOM      1  C   UNL     1      -0.680  -5.418   2.986  0.00  0.00    +0.142 C 
ENDROOT
BRANCH   1  10
ATOM      2  C   UNL     1       5.501  -5.829   6.538  0.00  0.00    +0.044 C 
ATOM      3  C   UNL     1       4.575  -5.226   5.513  0.00  0.00    -0.050 A 
ATOM      4  C   UNL     1       4.780  -3.910   5.098  0.00  0.00    +0.005 A 
ATOM      5  C   UNL     1       3.988  -3.300   4.178  0.00  0.00    +0.024 A 
ATOM      6  C   UNL     1       2.906  -3.989   3.598  0.00  0.00    +0.040 A 
ATOM      7  N   UNL     1       2.136  -3.381   2.697  0.00  0.00    -0.284 N 
ATOM      8  C   UNL     1       1.104  -3.968   2.114  0.00  0.00    +0.226 C 
ATOM      9  O   UNL     1       0.437  -3.362   1.298  0.00  0.00    -0.275 OA
ATOM     10  C   UNL     1       0.758  -5.398   2.466  0.00  0.00    +0.123 C 
ATOM     11  C   UNL     1       1.632  -6.094   3.490  0.00  0.00    -0.003 C 
ATOM     12  C   UNL     1       2.666  -5.380   4.019  0.00  0.00    -0.007 A 
ATOM     13  C   UNL     1       3.562  -5.977   5.010  0.00  0.00    +0.012 A 
ATOM     14  H   UNL     1       2.341  -2.463   2.457  0.00  0.00    +0.155 HD
ENDBRANCH   1  10
BRANCH   1  15
ATOM     15  C   UNL     1      -1.610  -4.918   1.910  0.00  0.00    +0.170 A 
ATOM     16  N   UNL     1      -1.795  -5.449   0.726  0.00  0.00    -0.112 NA
ATOM     17  N   UNL     1      -2.665  -4.735   0.101  0.00  0.00    -0.023 NA
ATOM     18  N   UNL     1      -3.041  -3.761   0.855  0.00  0.00    -0.044 NA
ATOM     19  N   UNL     1      -2.417  -3.843   1.981  0.00  0.00    -0.225 N 
BRANCH  19  20
ATOM     20  C   UNL     1      -2.558  -2.934   3.122  0.00  0.00    +0.175 C 
BRANCH  20  21
ATOM     21  C   UNL     1      -1.552  -1.789   2.988  0.00  0.00    +0.183 C 
BRANCH  21  22
ATOM     22  O   UNL     1      -1.682  -0.908   4.105  0.00  0.00    -0.381 OA
ATOM     23  C   UNL     1      -0.783   0.202   4.078  0.00  0.00    +0.194 C 
ENDBRANCH  21  22
ENDBRANCH  20  21
ENDBRANCH  19  20
ENDBRANCH   1  15
BRANCH   1  24
ATOM     24  N   UNL     1      -1.049  -6.792   3.352  0.00  0.00    -0.287 NA
BRANCH  24  25
ATOM     25  C   UNL     1      -2.332  -6.819   4.068  0.00  0.00    +0.090 C 
BRANCH  25  26
ATOM     26  C   UNL     1      -2.352  -8.007   5.032  0.00  0.00    +0.050 C 
BRANCH  26  27
ATOM     27  C   UNL     1      -3.671  -8.040   5.761  0.00  0.00    -0.046 A 
ATOM     28  C   UNL     1      -3.818  -7.359   6.955  0.00  0.00    +0.003 A 
ATOM     29  C   UNL     1      -5.027  -7.389   7.623  0.00  0.00    +0.000 A 
ATOM     30  C   UNL     1      -6.090  -8.100   7.098  0.00  0.00    +0.000 A 
ATOM     31  C   UNL     1      -5.943  -8.781   5.904  0.00  0.00    +0.000 A 
ATOM     32  C   UNL     1      -4.735  -8.747   5.233  0.00  0.00    +0.003 A 
ENDBRANCH  26  27
ENDBRANCH  25  26
ENDBRANCH  24  25
BRANCH  24  33
ATOM     33  C   UNL     1      -1.089  -7.660   2.168  0.00  0.00    +0.120 C 
BRANCH  33  34
ATOM     34  C   UNL     1      -1.071  -9.103   2.602  0.00  0.00    -0.033 A 
ATOM     35  C   UNL     1       0.128  -9.711   2.927  0.00  0.00    +0.008 A 
ATOM     36  C   UNL     1       0.146 -11.034   3.326  0.00  0.00    +0.038 A 
ATOM     37  C   UNL     1      -1.037 -11.751   3.400  0.00  0.00    +0.123 A 
ATOM     38  C   UNL     1      -2.236 -11.140   3.075  0.00  0.00    +0.038 A 
ATOM     39  C   UNL     1      -2.252  -9.816   2.681  0.00  0.00    +0.008 A 
ATOM     40  F   UNL     1      -1.020 -13.044   3.790  0.00  0.00    -0.205 F 
ENDBRANCH  33  34
ENDBRANCH  24  33
ENDBRANCH   1  24
TORSDOF 11
