REMARK  Name = ZINC39531606
REMARK  9 active torsions:
REMARK  status: ('A' for Active; 'I' for Inactive)
REMARK    1  A    between atoms: C_1  and  C_2
REMARK    2  A    between atoms: C_5  and  C_8
REMARK    3  A    between atoms: C_8  and  C_10
REMARK    4  A    between atoms: C_8  and  N_19
REMARK    5  A    between atoms: C_10  and  N_11
REMARK    6  A    between atoms: N_11  and  C_12
REMARK    7  A    between atoms: C_17  and  O_18
REMARK    8  A    between atoms: C_23  and  O_26
REMARK    9  A    between atoms: O_26  and  C_27
REMARK                            x       y       z     vdW  Elec       q    Type
REMARK                         _______ _______ _______ _____ _____    ______ ____
ROOT
ATOM      1  C   UNL     1       0.052  -4.277  -0.016  0.00  0.00    -0.020 C 
ENDROOT
BRANCH   1   2
ATOM      2  N   UNL     1       0.947  -4.849   0.999  0.00  0.00    +0.389 N 
ATOM      3  C   UNL     1       2.282  -4.251   0.867  0.00  0.00    -0.062 C 
ATOM      4  C   UNL     1       3.209  -4.833   1.936  0.00  0.00    +0.065 C 
ATOM      5  N   UNL     1       3.288  -6.291   1.771  0.00  0.00    -0.295 NA
ATOM      6  C   UNL     1       1.955  -6.901   1.876  0.00  0.00    +0.169 C 
ATOM      7  C   UNL     1       1.038  -6.302   0.807  0.00  0.00    -0.030 C 
ATOM      8  H   UNL     1       3.728  -6.533   0.896  0.00  0.00    +0.124 HD
ATOM      9  H   UNL     1       0.580  -4.653   1.919  0.00  0.00    -0.081 HD
BRANCH   6  10
ATOM     10  O   UNL     1       2.059  -8.312   1.679  0.00  0.00    -0.367 OA
ATOM     11  C   UNL     1       2.607  -9.017   2.796  0.00  0.00    +0.196 C 
ENDBRANCH   6  10
ENDBRANCH   1   2
BRANCH   1  16
ATOM     12  C   UNL     1      -0.193   1.459   0.642  0.00  0.00    +0.044 C 
ATOM     13  C   UNL     1      -0.129  -0.037   0.471  0.00  0.00    -0.050 A 
ATOM     14  C   UNL     1      -0.082  -0.585  -0.797  0.00  0.00    +0.003 A 
ATOM     15  C   UNL     1      -0.023  -1.958  -0.955  0.00  0.00    +0.002 A 
ATOM     16  C   UNL     1      -0.011  -2.781   0.156  0.00  0.00    -0.059 A 
ATOM     17  C   UNL     1      -0.058  -2.232   1.423  0.00  0.00    +0.002 A 
ATOM     18  C   UNL     1      -0.112  -0.860   1.581  0.00  0.00    +0.003 A 
ENDBRANCH   1  16
BRANCH   1  19
ATOM     19  C   UNL     1      -1.349  -4.868   0.148  0.00  0.00    +0.091 C 
BRANCH  19  20
ATOM     20  N   UNL     1      -2.217  -4.371  -0.923  0.00  0.00    -0.342 N 
ATOM     21  H   UNL     1      -1.848  -3.822  -1.631  0.00  0.00    +0.146 HD
BRANCH  20  22
ATOM     22  C   UNL     1      -3.580  -4.690  -0.923  0.00  0.00    +0.069 A 
ATOM     23  C   UNL     1      -4.112  -5.471   0.092  0.00  0.00    +0.026 A 
ATOM     24  C   UNL     1      -5.459  -5.784   0.090  0.00  0.00    +0.002 A 
ATOM     25  C   UNL     1      -6.278  -5.320  -0.923  0.00  0.00    +0.004 A 
ATOM     26  C   UNL     1      -5.755  -4.540  -1.938  0.00  0.00    +0.047 A 
ATOM     27  C   UNL     1      -4.407  -4.218  -1.940  0.00  0.00    +0.138 A 
BRANCH  27  28
ATOM     28  O   UNL     1      -3.892  -3.447  -2.936  0.00  0.00    -0.505 OA
ATOM     29  H   UNL     1      -3.574  -3.950  -3.698  0.00  0.00    +0.292 HD
ENDBRANCH  27  28
ENDBRANCH  20  22
ENDBRANCH  19  20
ENDBRANCH   1  19
TORSDOF 7
