REMARK  Name = ZINC38750664
REMARK  4 active torsions:
REMARK  status: ('A' for Active; 'I' for Inactive)
REMARK    1  A    between atoms: C_8  and  C_10
REMARK    2  A    between atoms: C_12  and  C_15
REMARK    3  A    between atoms: C_15  and  N_16
REMARK    4  A    between atoms: C_17  and  C_19
REMARK                            x       y       z     vdW  Elec       q    Type
REMARK                         _______ _______ _______ _____ _____    ______ ____
ROOT
ATOM      1  N   UNL     1       7.393  -5.514   1.289  0.00  0.00    -0.309 N 
ATOM      2  C   UNL     1       8.634  -5.983   1.524  0.00  0.00    +0.225 C 
ATOM      3  O   UNL     1       9.398  -6.168   0.600  0.00  0.00    -0.275 OA
ATOM      4  H   UNL     1       6.782  -5.366   2.028  0.00  0.00    +0.149 HD
ENDROOT
BRANCH   2   5
ATOM      5  C   UNL     1       9.073  -6.279   2.935  0.00  0.00    +0.142 C 
ATOM      6  C   UNL     1       8.152  -7.305   3.538  0.00  0.00    +0.011 A 
ATOM      7  C   UNL     1       6.905  -6.914   3.992  0.00  0.00    +0.008 A 
ATOM      8  C   UNL     1       6.046  -7.842   4.549  0.00  0.00    +0.001 A 
ATOM      9  C   UNL     1       6.430  -9.166   4.654  0.00  0.00    +0.004 A 
ATOM     10  C   UNL     1       7.673  -9.562   4.202  0.00  0.00    +0.046 A 
ATOM     11  C   UNL     1       8.540  -8.631   3.641  0.00  0.00    +0.133 A 
ATOM     12  O   UNL     1       9.756  -9.038   3.205  0.00  0.00    -0.455 OA
ATOM     13  C   UNL     1      10.759  -8.139   3.055  0.00  0.00    +0.133 A 
ATOM     14  C   UNL     1      10.489  -6.787   2.919  0.00  0.00    +0.011 A 
ATOM     15  C   UNL     1      11.531  -5.889   2.767  0.00  0.00    +0.008 A 
ATOM     16  C   UNL     1      12.838  -6.336   2.750  0.00  0.00    +0.001 A 
ATOM     17  C   UNL     1      13.110  -7.685   2.886  0.00  0.00    +0.004 A 
ATOM     18  C   UNL     1      12.075  -8.586   3.037  0.00  0.00    +0.046 A 
ENDBRANCH   2   5
BRANCH   1  19
ATOM     19  C   UNL     1       6.966  -5.226  -0.082  0.00  0.00    +0.163 C 
BRANCH  19  22
ATOM     20  C   UNL     1       3.796  -3.326  -0.051  0.00  0.00    +0.202 A 
ATOM     21  C   UNL     1       5.159  -3.371  -0.059  0.00  0.00    +0.081 A 
ATOM     22  C   UNL     1       5.547  -4.717  -0.071  0.00  0.00    +0.101 A 
ATOM     23  N   UNL     1       4.471  -5.454  -0.070  0.00  0.00    -0.081 NA
ATOM     24  O   UNL     1       3.345  -4.596  -0.053  0.00  0.00    -0.351 OA
BRANCH  20  32
ATOM     25  C   UNL     1      -0.017   1.363   0.009  0.00  0.00    +0.001 A 
ATOM     26  C   UNL     1       1.171   2.082   0.002  0.00  0.00    +0.004 A 
ATOM     27  C   UNL     1       2.387   1.433  -0.013  0.00  0.00    +0.047 A 
ATOM     28  C   UNL     1       2.430   0.044  -0.021  0.00  0.00    +0.136 A 
ATOM     29  C   UNL     1       1.224  -0.679  -0.013  0.00  0.00    +0.021 A 
ATOM     30  C   UNL     1       0.002  -0.004   0.002  0.00  0.00    +0.011 A 
ATOM     31  C   UNL     1       1.609  -2.091  -0.025  0.00  0.00    +0.061 A 
ATOM     32  C   UNL     1       2.967  -2.111  -0.038  0.00  0.00    +0.174 A 
ATOM     33  O   UNL     1       3.441  -0.848  -0.035  0.00  0.00    -0.452 OA
ENDBRANCH  20  32
ENDBRANCH  19  22
ENDBRANCH   1  19
TORSDOF 4
