REMARK  Name = ZINC66803726
REMARK  4 active torsions:
REMARK  status: ('A' for Active; 'I' for Inactive)
REMARK    1  A    between atoms: C_3  and  N_16
REMARK    2  A    between atoms: C_6  and  C_7
REMARK    3  A    between atoms: C_17  and  C_19
REMARK    4  A    between atoms: C_25  and  C_27
REMARK                            x       y       z     vdW  Elec       q    Type
REMARK                         _______ _______ _______ _____ _____    ______ ____
ROOT
ATOM      1  C   UNL     1      -0.021   1.412  -0.078  0.00  0.00    +0.013 A 
ATOM      2  C   UNL     1       1.168   2.109  -0.068  0.00  0.00    +0.024 A 
ATOM      3  C   UNL     1       2.377   1.424  -0.030  0.00  0.00    +0.033 A 
ATOM      4  C   UNL     1       2.391   0.034  -0.002  0.00  0.00    +0.024 A 
ATOM      5  C   UNL     1       1.206  -0.669  -0.010  0.00  0.00    +0.013 A 
ATOM      6  C   UNL     1      -0.010   0.016  -0.049  0.00  0.00    +0.019 A 
ENDROOT
BRANCH   6   7
ATOM      7  C   UNL     1      -1.284  -0.735  -0.058  0.00  0.00    +0.164 A 
ATOM      8  N   UNL     1      -1.455  -1.997   0.280  0.00  0.00    -0.129 NA
ATOM      9  N   UNL     1      -2.696  -2.318   0.152  0.00  0.00    -0.134 NA
ATOM     10  C   UNL     1      -3.377  -1.294  -0.267  0.00  0.00    +0.134 A 
ATOM     11  N   UNL     1      -2.506  -0.255  -0.411  0.00  0.00    -0.311 N 
ATOM     12  C   UNL     1      -2.874   1.086  -0.864  0.00  0.00    +0.125 C 
ATOM     13  C   UNL     1      -4.251   1.018  -1.535  0.00  0.00    +0.022 C 
ATOM     14  C   UNL     1      -5.234   0.286  -0.618  0.00  0.00    +0.009 C 
ATOM     15  C   UNL     1      -4.855  -1.201  -0.555  0.00  0.00    +0.076 C 
ENDBRANCH   6   7
BRANCH   3  16
ATOM     16  N   UNL     1       3.581   2.134  -0.022  0.00  0.00    -0.284 N 
ATOM     17  C   UNL     1       4.631   1.671   0.685  0.00  0.00    +0.238 C 
ATOM     18  O   UNL     1       4.559   0.598   1.246  0.00  0.00    -0.273 OA
ATOM     19  H   UNL     1       3.661   2.959  -0.525  0.00  0.00    +0.155 HD
BRANCH  17  20
ATOM     20  C   UNL     1       5.895   2.486   0.778  0.00  0.00    +0.162 C 
ATOM     21  C   UNL     1       6.500   2.680  -0.629  0.00  0.00    +0.033 C 
ATOM     22  C   UNL     1       8.025   2.564  -0.370  0.00  0.00    +0.021 C 
ATOM     23  C   UNL     1       8.071   1.492   0.747  0.00  0.00    +0.108 C 
ATOM     24  N   UNL     1       6.891   1.774   1.591  0.00  0.00    -0.290 N 
ATOM     25  C   UNL     1       6.750   1.435   2.888  0.00  0.00    +0.219 C 
ATOM     26  O   UNL     1       5.732   1.720   3.482  0.00  0.00    -0.275 OA
BRANCH  25  27
ATOM     27  C   UNL     1       7.858   0.702   3.600  0.00  0.00    +0.075 C 
ATOM     28  C   UNL     1       7.598  -0.750   4.005  0.00  0.00    +0.013 C 
ATOM     29  C   UNL     1       7.637   0.346   5.071  0.00  0.00    +0.013 C 
ENDBRANCH  25  27
ENDBRANCH  17  20
ENDBRANCH   3  16
TORSDOF 4
