REMARK  Name = ZINC65183048
REMARK  8 active torsions:
REMARK  status: ('A' for Active; 'I' for Inactive)
REMARK    1  A    between atoms: C_1  and  C_2
REMARK    2  A    between atoms: C_4  and  C_31
REMARK    3  A    between atoms: C_6  and  C_8
REMARK    4  A    between atoms: N_10  and  C_11
REMARK    5  A    between atoms: N_10  and  C_12
REMARK    6  A    between atoms: C_12  and  C_13
REMARK    7  A    between atoms: C_13  and  C_14
REMARK    8  A    between atoms: C_17  and  C_20
REMARK                            x       y       z     vdW  Elec       q    Type
REMARK                         _______ _______ _______ _____ _____    ______ ____
ROOT
ATOM      1  C   UNL     1       2.330  -3.930   6.160  0.00  0.00    +0.139 C 
ATOM      2  N   UNL     1       1.466  -4.318   7.025  0.00  0.00    -0.072 NA
ATOM      3  O   UNL     1       2.089  -5.011   8.090  0.00  0.00    -0.367 OA
ATOM      4  C   UNL     1       3.495  -5.022   7.796  0.00  0.00    +0.318 C 
ATOM      5  N   UNL     1       3.605  -4.304   6.516  0.00  0.00    -0.291 N 
ATOM      6  H   UNL     1       4.419  -4.128   6.020  0.00  0.00    +0.151 HD
ENDROOT
BRANCH   4   7
ATOM      7  C   UNL     1       3.999  -6.459   7.647  0.00  0.00    +0.165 C 
ATOM      8  C   UNL     1       5.484  -6.463   7.361  0.00  0.00    +0.012 C 
ATOM      9  C   UNL     1       6.061  -7.137   8.382  0.00  0.00    -0.002 A 
ATOM     10  C   UNL     1       7.455  -7.480   8.686  0.00  0.00    +0.029 A 
ATOM     11  C   UNL     1       7.729  -8.180   9.811  0.00  0.00    +0.042 A 
ATOM     12  C   UNL     1       6.715  -8.585  10.693  0.00  0.00    +0.022 A 
ATOM     13  C   UNL     1       5.412  -8.307  10.481  0.00  0.00    +0.027 A 
ATOM     14  C   UNL     1       5.010  -7.576   9.329  0.00  0.00    +0.043 A 
ATOM     15  N   UNL     1       3.829  -7.189   8.908  0.00  0.00    -0.373 N 
ATOM     16 CL   UNL     1       9.377  -8.589  10.173  0.00  0.00    -0.084 Cl
ATOM     17  H   UNL     1       2.984  -7.356   9.355  0.00  0.00    +0.160 HD
ENDBRANCH   4   7
BRANCH   1  18
ATOM     18  C   UNL     1       1.991  -3.165   4.907  0.00  0.00    +0.094 C 
BRANCH  18  19
ATOM     19  C   UNL     1       0.480  -2.929   4.847  0.00  0.00    +0.115 C 
BRANCH  19  22
ATOM     20  C   UNL     1      -0.136  -2.848   2.491  0.00  0.00    +0.246 C 
ATOM     21  O   UNL     1      -0.207  -4.062   2.496  0.00  0.00    -0.270 OA
ATOM     22  N   UNL     1       0.150  -2.185   3.628  0.00  0.00    -0.300 N 
ATOM     23  C   UNL     1       0.131  -0.720   3.647  0.00  0.00    +0.132 C 
BRANCH  20  29
ATOM     24  C   UNL     1       0.441  -2.422  -2.448  0.00  0.00    +0.044 C 
ATOM     25  C   UNL     1      -0.088  -1.891  -1.141  0.00  0.00    -0.049 A 
ATOM     26  C   UNL     1      -0.789  -0.698  -1.114  0.00  0.00    +0.006 A 
ATOM     27  C   UNL     1      -1.278  -0.203   0.082  0.00  0.00    -0.049 A 
ATOM     28  C   UNL     1      -1.070  -0.896   1.256  0.00  0.00    +0.016 A 
ATOM     29  C   UNL     1      -0.363  -2.100   1.236  0.00  0.00    +0.037 A 
ATOM     30  C   UNL     1       0.122  -2.597   0.026  0.00  0.00    +0.016 A 
ATOM     31  C   UNL     1      -2.040   1.097   0.102  0.00  0.00    +0.044 C 
ENDBRANCH  20  29
ENDBRANCH  19  22
ENDBRANCH  18  19
ENDBRANCH   1  18
TORSDOF 5
