REMARK  Name = ZINC06826115
REMARK  5 active torsions:
REMARK  status: ('A' for Active; 'I' for Inactive)
REMARK    1  A    between atoms: C_1  and  C_2
REMARK    2  A    between atoms: C_5  and  N_8
REMARK    3  A    between atoms: C_9  and  C_11
REMARK    4  A    between atoms: C_11  and  C_12
REMARK    5  A    between atoms: N_18  and  C_19
REMARK                            x       y       z     vdW  Elec       q    Type
REMARK                         _______ _______ _______ _____ _____    ______ ____
ROOT
ATOM      1  C   UNL     1       0.424  -6.867   2.557  0.00  0.00    +0.149 C 
ATOM      2  C   UNL     1       0.590  -8.378   2.586  0.00  0.00    +0.232 C 
ATOM      3  O   UNL     1       1.545  -8.931   2.083  0.00  0.00    -0.274 OA
ATOM      4  N   UNL     1      -0.371  -9.051   3.194  0.00  0.00    -0.264 N 
ATOM      5  C   UNL     1      -1.461  -8.429   3.769  0.00  0.00    +0.161 C 
ATOM      6  N   UNL     1      -2.472  -8.982   4.395  0.00  0.00    -0.226 NA
ATOM      7  S   UNL     1      -1.170  -6.692   3.459  0.00  0.00    -0.077 S 
ATOM      8  H   UNL     1      -0.309 -10.018   3.237  0.00  0.00    +0.157 HD
ENDROOT
BRANCH   6   9
ATOM      9  C   UNL     1      -3.473  -8.197   4.907  0.00  0.00    +0.070 A 
ATOM     10  C   UNL     1      -3.160  -7.035   5.614  0.00  0.00    +0.031 A 
ATOM     11  C   UNL     1      -4.170  -6.249   6.128  0.00  0.00    +0.051 A 
ATOM     12  C   UNL     1      -5.498  -6.607   5.944  0.00  0.00    +0.162 A 
ATOM     13  C   UNL     1      -5.817  -7.763   5.239  0.00  0.00    +0.164 A 
ATOM     14  C   UNL     1      -4.808  -8.555   4.717  0.00  0.00    +0.077 A 
ATOM     15  O   UNL     1      -7.115  -8.124   5.043  0.00  0.00    -0.485 OA
ATOM     16  C   UNL     1      -8.090  -7.507   5.891  0.00  0.00    +0.270 C 
ATOM     17  C   UNL     1      -7.799  -6.001   5.941  0.00  0.00    +0.270 C 
ATOM     18  O   UNL     1      -6.479  -5.817   6.464  0.00  0.00    -0.485 OA
ENDBRANCH   6   9
BRANCH   1  19
ATOM     19  C   UNL     1       0.309  -6.349   1.121  0.00  0.00    +0.120 C 
BRANCH  19  21
ATOM     20  N   UNL     1       0.059  -4.170  -0.021  0.00  0.00    -0.285 N 
ATOM     21  C   UNL     1       0.175  -4.848   1.138  0.00  0.00    +0.219 C 
ATOM     22  O   UNL     1       0.173  -4.251   2.193  0.00  0.00    -0.275 OA
ATOM     23  H   UNL     1      -0.017  -4.651  -0.860  0.00  0.00    +0.155 HD
BRANCH  20  28
ATOM     24  C   UNL     1       0.008   1.503   0.007  0.00  0.00    +0.044 C 
ATOM     25  C   UNL     1       0.022  -0.004  -0.001  0.00  0.00    -0.050 A 
ATOM     26  C   UNL     1       0.777  -0.692   0.931  0.00  0.00    +0.005 A 
ATOM     27  C   UNL     1       0.791  -2.073   0.927  0.00  0.00    +0.023 A 
ATOM     28  C   UNL     1       0.046  -2.771  -0.014  0.00  0.00    +0.033 A 
ATOM     29  C   UNL     1      -0.712  -2.077  -0.948  0.00  0.00    +0.023 A 
ATOM     30  C   UNL     1      -0.726  -0.696  -0.936  0.00  0.00    +0.005 A 
ENDBRANCH  20  28
ENDBRANCH  19  21
ENDBRANCH   1  19
TORSDOF 4
