REMARK  Name = ZINC65521972
REMARK  8 active torsions:
REMARK  status: ('A' for Active; 'I' for Inactive)
REMARK    1  A    between atoms: C_1  and  C_2
REMARK    2  A    between atoms: C_5  and  C_32
REMARK    3  A    between atoms: C_6  and  S_8
REMARK    4  A    between atoms: S_8  and  C_11
REMARK    5  A    between atoms: C_11  and  C_16
REMARK    6  A    between atoms: N_18  and  C_19
REMARK    7  A    between atoms: C_19  and  C_21
REMARK    8  A    between atoms: C_19  and  C_22
REMARK                            x       y       z     vdW  Elec       q    Type
REMARK                         _______ _______ _______ _____ _____    ______ ____
ROOT
ATOM      1  C   UNL     1      -1.295  -4.867   1.648  0.00  0.00    +0.241 C 
ATOM      2  O   UNL     1      -1.712  -5.986   1.856  0.00  0.00    -0.273 OA
ATOM      3  N   UNL     1      -0.868  -4.525   0.416  0.00  0.00    -0.307 N 
ATOM      4  H   UNL     1      -0.466  -3.655   0.266  0.00  0.00    +0.149 HD
ENDROOT
BRANCH   1   5
ATOM      5  C   UNL     1      -1.252  -3.858   2.767  0.00  0.00    +0.168 C 
ATOM      6  C   UNL     1      -2.379  -2.820   2.586  0.00  0.00    +0.039 C 
ATOM      7  C   UNL     1      -3.532  -3.352   3.474  0.00  0.00    +0.003 C 
ATOM      8  C   UNL     1      -2.782  -3.916   4.706  0.00  0.00    +0.003 C 
ATOM      9  C   UNL     1      -1.508  -4.555   4.115  0.00  0.00    +0.039 C 
BRANCH   5  10
ATOM     10  S   UNL     1       0.360  -3.027   2.793  0.00  0.00    +0.011 S 
ATOM     11  O   UNL     1       0.599  -2.384   1.549  0.00  0.00    -0.168 OA
ATOM     12  O   UNL     1       1.341  -3.879   3.368  0.00  0.00    -0.168 OA
BRANCH  10  18
ATOM     13  C   UNL     1       0.862  -1.039   7.601  0.00  0.00    +0.044 C 
ATOM     14  C   UNL     1       0.425  -0.852   6.170  0.00  0.00    -0.049 A 
ATOM     15  C   UNL     1      -0.123   0.352   5.767  0.00  0.00    +0.004 A 
ATOM     16  C   UNL     1      -0.523   0.523   4.455  0.00  0.00    +0.005 A 
ATOM     17  C   UNL     1      -0.376  -0.509   3.547  0.00  0.00    -0.026 A 
ATOM     18  C   UNL     1       0.172  -1.712   3.950  0.00  0.00    +0.092 A 
ATOM     19  C   UNL     1       0.577  -1.882   5.261  0.00  0.00    +0.030 A 
ATOM     20  C   UNL     1      -0.814  -0.322   2.117  0.00  0.00    +0.046 C 
ENDBRANCH  10  18
ENDBRANCH   5  10
ENDBRANCH   1   5
BRANCH   3  21
ATOM     21  C   UNL     1      -1.012  -5.468  -0.696  0.00  0.00    +0.100 C 
ATOM     22  C   UNL     1      -2.371  -5.261  -1.368  0.00  0.00    +0.033 C 
BRANCH  21  23
ATOM     23  C   UNL     1       0.086  -5.230  -1.701  0.00  0.00    -0.027 A 
ATOM     24  C   UNL     1       0.524  -3.944  -1.959  0.00  0.00    +0.007 A 
ATOM     25  C   UNL     1       1.528  -3.720  -2.877  0.00  0.00    +0.024 A 
ATOM     26  C   UNL     1       2.111  -4.791  -3.552  0.00  0.00    +0.037 A 
ATOM     27  C   UNL     1       1.663  -6.078  -3.284  0.00  0.00    -0.017 A 
ATOM     28  C   UNL     1       0.663  -6.299  -2.364  0.00  0.00    +0.011 A 
ATOM     29  C   UNL     1       2.477  -7.002  -4.160  0.00  0.00    +0.133 C 
ATOM     30  C   UNL     1       3.401  -6.072  -4.918  0.00  0.00    +0.222 C 
ATOM     31  O   UNL     1       4.233  -6.396  -5.739  0.00  0.00    -0.275 OA
ATOM     32  N   UNL     1       3.125  -4.822  -4.510  0.00  0.00    -0.285 N 
ATOM     33  H   UNL     1       3.579  -4.032  -4.843  0.00  0.00    +0.155 HD
ENDBRANCH  21  23
ENDBRANCH   3  21
TORSDOF 5
