REMARK  Name = ZINC08310455
REMARK  4 active torsions:
REMARK  status: ('A' for Active; 'I' for Inactive)
REMARK    1  A    between atoms: C_6  and  C_7
REMARK    2  A    between atoms: C_12  and  C_13
REMARK    3  A    between atoms: C_12  and  N_60
REMARK    4  A    between atoms: N_18  and  C_19
REMARK                            x       y       z     vdW  Elec       q    Type
REMARK                         _______ _______ _______ _____ _____    ______ ____
ROOT
ATOM      1  C   UNL     1      -2.265   1.531   0.720  0.00  0.00    -0.037 C 
ATOM      2  C   UNL     1      -0.801   1.617   1.234  0.00  0.00    -0.013 C 
ATOM      3  C   UNL     1      -0.013   1.086   0.008  0.00  0.00    -0.020 C 
ATOM      4  C   UNL     1      -0.820   1.627  -1.191  0.00  0.00    -0.077 C 
ATOM      5  N   UNL     1      -2.180   1.916  -0.701  0.00  0.00    +0.390 N 
ATOM      6  H   UNL     1      -2.367   2.921  -0.791  0.00  0.00    -0.080 HD
ENDROOT
BRANCH   1  12
ATOM      7  C   UNL     1      -3.072   3.854   1.177  0.00  0.00    +0.006 A 
ATOM      8  C   UNL     1      -3.873   4.754   1.858  0.00  0.00    +0.049 A 
ATOM      9  C   UNL     1      -4.744   4.297   2.832  0.00  0.00    +0.162 A 
ATOM     10  C   UNL     1      -4.812   2.941   3.123  0.00  0.00    +0.162 A 
ATOM     11  C   UNL     1      -4.014   2.043   2.435  0.00  0.00    +0.051 A 
ATOM     12  C   UNL     1      -3.140   2.504   1.466  0.00  0.00    -0.057 A 
ATOM     13  O   UNL     1      -5.674   2.501   4.085  0.00  0.00    -0.488 OA
ATOM     14  C   UNL     1      -7.065   2.612   3.777  0.00  0.00    +0.232 C 
ATOM     15  C   UNL     1      -7.581   4.003   4.109  0.00  0.00    +0.082 C 
ATOM     16  C   UNL     1      -6.940   5.080   3.248  0.00  0.00    +0.232 C 
ATOM     17  O   UNL     1      -5.538   5.173   3.512  0.00  0.00    -0.488 OA
ENDBRANCH   1  12
BRANCH   5  18
ATOM     18  C   UNL     1      -3.180   1.161  -1.499  0.00  0.00    +0.020 C 
BRANCH  18  19
ATOM     19  C   UNL     1      -3.254   1.745  -2.887  0.00  0.00    +0.204 C 
ATOM     20  O   UNL     1      -2.549   2.684  -3.188  0.00  0.00    -0.277 OA
ATOM     21  N   UNL     1      -4.105   1.224  -3.793  0.00  0.00    -0.242 N 
ATOM     22  C   UNL     1      -4.171   1.746  -5.034  0.00  0.00    +0.306 C 
ATOM     23  O   UNL     1      -3.463   2.687  -5.335  0.00  0.00    -0.252 OA
ATOM     24  N   UNL     1      -5.021   1.224  -5.940  0.00  0.00    -0.296 N 
ATOM     25  H   UNL     1      -4.669   0.473  -3.552  0.00  0.00    +0.159 HD
ATOM     26  H   UNL     1      -5.586   0.473  -5.699  0.00  0.00    +0.151 HD
BRANCH  24  27
ATOM     27  C   UNL     1      -5.093   1.792  -7.288  0.00  0.00    +0.074 C 
ATOM     28  C   UNL     1      -6.053   2.983  -7.290  0.00  0.00    +0.022 C 
ATOM     29  C   UNL     1      -6.128   3.575  -8.699  0.00  0.00    +0.002 C 
ATOM     30  C   UNL     1      -6.635   2.511  -9.674  0.00  0.00    +0.000 C 
ATOM     31  C   UNL     1      -5.674   1.319  -9.672  0.00  0.00    +0.002 C 
ATOM     32  C   UNL     1      -5.599   0.727  -8.264  0.00  0.00    +0.022 C 
ENDBRANCH  24  27
ENDBRANCH  18  19
ENDBRANCH   5  18
TORSDOF 4
