REMARK  Name = ZINC19811058
REMARK  6 active torsions:
REMARK  status: ('A' for Active; 'I' for Inactive)
REMARK    1  A    between atoms: C_11  and  N_26
REMARK    2  A    between atoms: C_13  and  N_15
REMARK    3  A    between atoms: N_15  and  S_16
REMARK    4  A    between atoms: S_16  and  C_19
REMARK    5  A    between atoms: N_26  and  C_27
REMARK    6  A    between atoms: C_27  and  C_28
REMARK                            x       y       z     vdW  Elec       q    Type
REMARK                         _______ _______ _______ _____ _____    ______ ____
ROOT
ATOM      1  C   UNL     1      -6.058   3.335  -6.373  0.00  0.00    +0.001 A 
ATOM      2  C   UNL     1      -7.070   3.030  -5.509  0.00  0.00    +0.008 A 
ATOM      3  C   UNL     1      -6.769   2.857  -4.149  0.00  0.00    -0.017 A 
ATOM      4  C   UNL     1      -7.717   2.541  -3.162  0.00  0.00    +0.008 A 
ATOM      5  C   UNL     1      -7.300   2.398  -1.870  0.00  0.00    +0.001 A 
ATOM      6  C   UNL     1      -5.963   2.554  -1.495  0.00  0.00    +0.006 A 
ATOM      7  C   UNL     1      -5.019   2.860  -2.427  0.00  0.00    -0.019 A 
ATOM      8  C   UNL     1      -5.430   3.009  -3.748  0.00  0.00    -0.008 A 
ATOM      9  C   UNL     1      -4.409   3.321  -4.639  0.00  0.00    -0.021 A 
ATOM     10  C   UNL     1      -4.735   3.482  -5.952  0.00  0.00    +0.006 A 
ATOM     11  C   UNL     1      -3.127   3.400  -3.848  0.00  0.00    +0.108 C 
ATOM     12  C   UNL     1      -3.529   3.096  -2.388  0.00  0.00    +0.128 C 
ENDROOT
BRANCH  12  13
ATOM     13  N   UNL     1      -3.218   4.239  -1.527  0.00  0.00    -0.181 NA
ATOM     14  H   UNL     1      -3.117   5.244  -1.963  0.00  0.00    +0.149 HD
BRANCH  13  15
ATOM     15  S   UNL     1      -2.776   3.993   0.050  0.00  0.00    +0.059 S 
ATOM     16  O   UNL     1      -3.732   3.101   0.605  0.00  0.00    -0.153 OA
ATOM     17  O   UNL     1      -2.517   5.275   0.605  0.00  0.00    -0.153 OA
BRANCH  15  18
ATOM     18  C   UNL     1      -1.238   3.133   0.031  0.00  0.00    +0.105 A 
ATOM     19  C   UNL     1      -1.219   1.751   0.017  0.00  0.00    +0.030 A 
ATOM     20  C   UNL     1      -0.013   1.076   0.008  0.00  0.00    +0.022 A 
ATOM     21  C   UNL     1       1.176   1.784   0.000  0.00  0.00    +0.041 A 
ATOM     22  C   UNL     1       1.156   3.167   0.008  0.00  0.00    +0.022 A 
ATOM     23  C   UNL     1      -0.050   3.841   0.023  0.00  0.00    +0.030 A 
ATOM     24 CL   UNL     1       2.691   0.937  -0.018  0.00  0.00    -0.084 Cl
ENDBRANCH  15  18
ENDBRANCH  13  15
ENDBRANCH  12  13
BRANCH  11  25
ATOM     25  N   UNL     1      -2.167   2.398  -4.331  0.00  0.00    -0.301 NA
ATOM     26  H   UNL     1      -1.509   2.092  -3.505  0.00  0.00    +0.123 HD
BRANCH  25  27
ATOM     27  C   UNL     1      -1.340   2.941  -5.416  0.00  0.00    +0.156 C 
BRANCH  27  28
ATOM     28  C   UNL     1      -0.370   1.887  -5.885  0.00  0.00    +0.119 A 
ATOM     29  C   UNL     1      -0.598   0.986  -6.858  0.00  0.00    +0.046 A 
ATOM     30  C   UNL     1       0.572   0.199  -6.969  0.00  0.00    +0.041 A 
ATOM     31  C   UNL     1       1.441   0.661  -6.053  0.00  0.00    +0.195 A 
ATOM     32  O   UNL     1       0.865   1.683  -5.399  0.00  0.00    -0.467 OA
ENDBRANCH  27  28
ENDBRANCH  25  27
ENDBRANCH  11  25
TORSDOF 6
