REMARK  Name = ZINC33298281
REMARK  5 active torsions:
REMARK  status: ('A' for Active; 'I' for Inactive)
REMARK    1  A    between atoms: C_1  and  C_2
REMARK    2  A    between atoms: N_4  and  C_5
REMARK    3  A    between atoms: C_6  and  C_26
REMARK    4  A    between atoms: C_13  and  C_16
REMARK    5  A    between atoms: N_18  and  C_19
REMARK                            x       y       z     vdW  Elec       q    Type
REMARK                         _______ _______ _______ _____ _____    ______ ____
ROOT
ATOM      1  C   UNL     1       9.972   1.954   0.647  0.00  0.00    +0.147 A 
ATOM      2  C   UNL     1      10.381   1.987  -0.689  0.00  0.00    +0.117 A 
ATOM      3  S   UNL     1       8.851   1.566  -1.511  0.00  0.00    -0.046 S 
ATOM      4  C   UNL     1       7.866   1.394  -0.092  0.00  0.00    +0.163 A 
ATOM      5  N   UNL     1       8.716   1.659   0.887  0.00  0.00    -0.209 NA
ATOM      6  N   UNL     1       6.530   1.068  -0.006  0.00  0.00    -0.310 N 
ATOM      7  C   UNL     1       6.087   1.028   1.393  0.00  0.00    +0.108 C 
ATOM      8  C   UNL     1       4.644   0.523   1.458  0.00  0.00    +0.032 C 
ATOM      9  C   UNL     1       3.744   1.457   0.644  0.00  0.00    +0.078 C 
ATOM     10  C   UNL     1       4.256   1.518  -0.798  0.00  0.00    +0.032 C 
ATOM     11  C   UNL     1       5.711   1.994  -0.797  0.00  0.00    +0.108 C 
ENDROOT
BRANCH   2  12
ATOM     12  C   UNL     1      11.651   2.274  -1.237  0.00  0.00    +0.257 C 
ATOM     13  O   UNL     1      12.585   2.543  -0.502  0.00  0.00    -0.269 OA
ATOM     14  N   UNL     1      11.829   2.250  -2.572  0.00  0.00    -0.297 N 
ATOM     15  C   UNL     1      10.795   1.936  -3.570  0.00  0.00    +0.108 C 
ATOM     16  C   UNL     1      11.462   2.007  -4.959  0.00  0.00    +0.020 C 
ATOM     17  C   UNL     1      12.964   1.794  -4.633  0.00  0.00    +0.020 C 
ATOM     18  C   UNL     1      13.095   2.528  -3.275  0.00  0.00    +0.108 C 
ENDBRANCH   2  12
BRANCH   1  22
ATOM     19  C   UNL     1      11.403   2.483   4.082  0.00  0.00    +0.109 C 
ATOM     20  C   UNL     1      10.440   2.187   2.961  0.00  0.00    +0.215 C 
ATOM     21  O   UNL     1       9.285   1.913   3.210  0.00  0.00    -0.276 OA
ATOM     22  N   UNL     1      10.862   2.227   1.681  0.00  0.00    -0.270 N 
ATOM     23  H   UNL     1      11.909   2.475   1.455  0.00  0.00    +0.156 HD
ENDBRANCH   1  22
BRANCH   9  24
ATOM     24  C   UNL     1       2.332   0.932   0.654  0.00  0.00    +0.216 C 
ATOM     25  O   UNL     1       2.069  -0.089   1.254  0.00  0.00    -0.276 OA
ATOM     26  N   UNL     1       1.360   1.597  -0.002  0.00  0.00    -0.312 N 
ATOM     27  H   UNL     1       1.599   2.523  -0.546  0.00  0.00    +0.149 HD
BRANCH  26  28
ATOM     28  C   UNL     1      -0.013   1.086   0.008  0.00  0.00    +0.073 C 
ATOM     29  C   UNL     1      -0.725   1.575   1.240  0.00  0.00    +0.022 C 
ATOM     30  C   UNL     1      -1.741   0.547   1.779  0.00  0.00    +0.002 C 
ATOM     31  C   UNL     1      -2.550  -0.140   0.662  0.00  0.00    +0.000 C 
ATOM     32  C   UNL     1      -2.985   0.823  -0.409  0.00  0.00    +0.000 C 
ATOM     33  C   UNL     1      -1.940   0.798  -1.544  0.00  0.00    +0.002 C 
ATOM     34  C   UNL     1      -0.766   1.601  -1.235  0.00  0.00    +0.022 C 
ENDBRANCH  26  28
ENDBRANCH   9  24
TORSDOF 4
