REMARK  Name = ZINC06785774
REMARK  8 active torsions:
REMARK  status: ('A' for Active; 'I' for Inactive)
REMARK    1  A    between atoms: C_1  and  N_46
REMARK    2  A    between atoms: C_2  and  N_46
REMARK    3  A    between atoms: C_3  and  C_4
REMARK    4  A    between atoms: C_3  and  N_46
REMARK    5  A    between atoms: C_4  and  N_5
REMARK    6  A    between atoms: C_6  and  C_7
REMARK    7  A    between atoms: C_8  and  O_25
REMARK    8  A    between atoms: N_12  and  C_15
REMARK                            x       y       z     vdW  Elec       q    Type
REMARK                         _______ _______ _______ _____ _____    ______ ____
ROOT
ATOM      1  C   UNL     1       2.419   0.094  -0.018  0.00  0.00    +0.199 C 
ATOM      2  C   UNL     1       2.295   1.557   0.017  0.00  0.00    +0.198 C 
ATOM      3  N   UNL     1       1.083   2.087   0.032  0.00  0.00    -0.131 NA
ATOM      4  C   UNL     1      -0.016   1.337   0.016  0.00  0.00    +0.339 C 
ATOM      5  O   UNL     1      -1.097   1.899   0.026  0.00  0.00    -0.250 OA
ATOM      6  N   UNL     1       0.002  -0.003  -0.017  0.00  0.00    -0.191 N 
ATOM      7  C   UNL     1       1.168  -0.685  -0.035  0.00  0.00    +0.245 C 
ATOM      8  O   UNL     1       1.184  -1.901  -0.065  0.00  0.00    -0.274 OA
ENDROOT
BRANCH   6   9
ATOM      9  C   UNL     1      -1.206  -0.707  -0.031  0.00  0.00    +0.053 A 
ATOM     10  C   UNL     1      -1.809  -1.028  -1.228  0.00  0.00    +0.024 A 
ATOM     11  C   UNL     1      -3.012  -1.728  -1.253  0.00  0.00    +0.002 A 
ATOM     12  C   UNL     1      -3.625  -2.115  -0.100  0.00  0.00    +0.008 A 
ATOM     13  C   UNL     1      -3.043  -1.807   1.141  0.00  0.00    -0.016 A 
ATOM     14  C   UNL     1      -1.815  -1.099   1.179  0.00  0.00    +0.004 A 
ATOM     15  C   UNL     1      -1.232  -0.798   2.420  0.00  0.00    +0.010 A 
ATOM     16  C   UNL     1      -1.848  -1.192   3.568  0.00  0.00    +0.001 A 
ATOM     17  C   UNL     1      -3.052  -1.893   3.531  0.00  0.00    +0.001 A 
ATOM     18  C   UNL     1      -3.652  -2.193   2.347  0.00  0.00    +0.008 A 
ENDBRANCH   6   9
BRANCH   1  20
ATOM     19  N   UNL     1       3.741  -1.868   0.057  0.00  0.00    -0.296 NA
ATOM     20  C   UNL     1       3.659  -0.528  -0.036  0.00  0.00    +0.099 C 
BRANCH  19  21
ATOM     21  C   UNL     1       5.051  -2.525   0.038  0.00  0.00    +0.122 C 
BRANCH  21  22
ATOM     22  C   UNL     1       4.864  -4.038   0.158  0.00  0.00    -0.056 C 
BRANCH  22  25
ATOM     23  C   UNL     1       6.959  -4.346   1.333  0.00  0.00    -0.097 C 
ATOM     24  C   UNL     1       6.034  -6.153   0.013  0.00  0.00    -0.097 C 
ATOM     25  N   UNL     1       6.192  -4.687   0.116  0.00  0.00    +0.377 N 
ATOM     26  H   UNL     1       6.703  -4.348  -0.707  0.00  0.00    -0.083 HD
ENDBRANCH  22  25
ENDBRANCH  21  22
ENDBRANCH  19  21
ENDBRANCH   1  20
BRANCH   2  27
ATOM     27  O   UNL     1       3.392   2.343   0.034  0.00  0.00    -0.496 OA
ATOM     28  H   UNL     1       3.197   3.290   0.057  0.00  0.00    +0.293 HD
ENDBRANCH   2  27
TORSDOF 6
