REMARK  Name = ZINC39732708
REMARK  8 active torsions:
REMARK  status: ('A' for Active; 'I' for Inactive)
REMARK    1  A    between atoms: C_1  and  C_2
REMARK    2  A    between atoms: N_16  and  N_17
REMARK    3  A    between atoms: C_18  and  C_19
REMARK    4  A    between atoms: C_21  and  O_28
REMARK    5  A    between atoms: C_22  and  O_27
REMARK    6  A    between atoms: C_23  and  O_25
REMARK    7  A    between atoms: O_25  and  C_26
REMARK    8  A    between atoms: O_28  and  C_29
REMARK                            x       y       z     vdW  Elec       q    Type
REMARK                         _______ _______ _______ _____ _____    ______ ____
ROOT
ATOM      1  C   UNL     1      -0.018   1.503   0.010  0.00  0.00    +0.044 C 
ATOM      2  C   UNL     1       0.002  -0.004   0.002  0.00  0.00    -0.050 A 
ATOM      3  C   UNL     1       0.005  -0.672  -1.230  0.00  0.00    +0.005 A 
ATOM      4  C   UNL     1       0.029  -2.022  -1.308  0.00  0.00    +0.026 A 
ATOM      5  C   UNL     1       0.053  -2.812  -0.071  0.00  0.00    +0.046 A 
ATOM      6  N   UNL     1       0.046  -4.107   0.140  0.00  0.00    -0.358 N 
ATOM      7  C   UNL     1       0.204  -4.351   1.563  0.00  0.00    +0.253 C 
ATOM      8  C   UNL     1       0.043  -2.999   2.235  0.00  0.00    +0.115 C 
ATOM      9  C   UNL     1       0.037  -2.075   1.218  0.00  0.00    +0.025 A 
ATOM     10  C   UNL     1       0.022  -0.662   1.184  0.00  0.00    +0.015 A 
ATOM     11  N   UNL     1      -0.184  -2.888   3.546  0.00  0.00    -0.171 NA
ATOM     12  N   UNL     1      -0.780  -3.902   4.097  0.00  0.00    -0.247 N 
ATOM     13  C   UNL     1      -1.202  -4.969   3.376  0.00  0.00    +0.227 C 
ATOM     14  N   UNL     1      -0.804  -5.231   2.152  0.00  0.00    -0.220 NA
ATOM     15  N   UNL     1      -2.101  -5.836   3.965  0.00  0.00    -0.206 N 
ATOM     16  H   UNL     1      -2.412  -5.672   4.869  0.00  0.00    +0.177 HD
ATOM     17  H   UNL     1      -0.928  -3.896   5.056  0.00  0.00    +0.192 HD
ATOM     18  H   UNL     1      -0.049  -4.789  -0.543  0.00  0.00    +0.162 HD
ENDROOT
BRANCH  15  19
ATOM     19  N   UNL     1      -2.564  -6.952   3.256  0.00  0.00    -0.188 NA
ATOM     20  C   UNL     1      -3.409  -7.767   3.809  0.00  0.00    +0.138 C 
BRANCH  20  21
ATOM     21  C   UNL     1      -3.897  -8.942   3.063  0.00  0.00    +0.002 A 
ATOM     22  C   UNL     1      -3.445  -9.182   1.763  0.00  0.00    +0.059 A 
ATOM     23  C   UNL     1      -3.904 -10.285   1.066  0.00  0.00    +0.166 A 
ATOM     24  C   UNL     1      -4.814 -11.155   1.659  0.00  0.00    +0.201 A 
ATOM     25  C   UNL     1      -5.266 -10.918   2.953  0.00  0.00    +0.166 A 
ATOM     26  C   UNL     1      -4.806  -9.820   3.658  0.00  0.00    +0.059 A 
BRANCH  25  27
ATOM     27  O   UNL     1      -6.156 -11.771   3.529  0.00  0.00    -0.491 OA
ATOM     28  C   UNL     1      -6.577 -11.467   4.860  0.00  0.00    +0.277 C 
ENDBRANCH  25  27
BRANCH  24  29
ATOM     29  O   UNL     1      -5.264 -12.239   0.971  0.00  0.00    -0.501 OA
ATOM     30  H   UNL     1      -4.725 -13.033   1.093  0.00  0.00    +0.292 HD
ENDBRANCH  24  29
BRANCH  23  31
ATOM     31  O   UNL     1      -3.466 -10.520  -0.200  0.00  0.00    -0.491 OA
ATOM     32  C   UNL     1      -2.532  -9.586  -0.746  0.00  0.00    +0.277 C 
ENDBRANCH  23  31
ENDBRANCH  20  21
ENDBRANCH  15  19
TORSDOF 5
