REMARK  Name = ZINC25583808
REMARK  7 active torsions:
REMARK  status: ('A' for Active; 'I' for Inactive)
REMARK    1  A    between atoms: C_4  and  C_7
REMARK    2  A    between atoms: C_8  and  C_9
REMARK    3  A    between atoms: C_9  and  N_10
REMARK    4  A    between atoms: C_11  and  C_13
REMARK    5  A    between atoms: C_13  and  C_15
REMARK    6  A    between atoms: C_13  and  N_21
REMARK    7  A    between atoms: C_22  and  C_24
REMARK                            x       y       z     vdW  Elec       q    Type
REMARK                         _______ _______ _______ _____ _____    ______ ____
ROOT
ATOM      1  C   UNL     1      -0.013   1.086   0.008  0.00  0.00    +0.190 C 
ENDROOT
BRANCH   1   2
ATOM      2  C   UNL     1      -0.742   1.585  -1.213  0.00  0.00    -0.018 A 
ATOM      3  C   UNL     1      -1.257   2.868  -1.234  0.00  0.00    +0.006 A 
ATOM      4  C   UNL     1      -1.922   3.327  -2.355  0.00  0.00    +0.000 A 
ATOM      5  C   UNL     1      -2.079   2.501  -3.452  0.00  0.00    +0.000 A 
ATOM      6  C   UNL     1      -1.568   1.216  -3.430  0.00  0.00    +0.000 A 
ATOM      7  C   UNL     1      -0.899   0.759  -2.310  0.00  0.00    +0.006 A 
ENDBRANCH   1   2
BRANCH   1   9
ATOM      8  N   UNL     1       2.226   1.299  -1.023  0.00  0.00    -0.303 N 
ATOM      9  C   UNL     1       1.401   1.607  -0.003  0.00  0.00    +0.239 C 
ATOM     10  O   UNL     1       1.797   2.305   0.907  0.00  0.00    -0.273 OA
ATOM     11  H   UNL     1       1.867   0.666  -1.848  0.00  0.00    +0.150 HD
BRANCH   8  12
ATOM     12  C   UNL     1       3.600   1.806  -1.034  0.00  0.00    +0.194 C 
BRANCH  12  14
ATOM     13  C   UNL     1       4.838   0.952  -3.211  0.00  0.00    -0.065 C 
ATOM     14  C   UNL     1       4.289   1.331  -2.245  0.00  0.00    -0.078 C 
BRANCH  13  18
ATOM     15  C   UNL     1       6.805  -0.403  -6.666  0.00  0.00    +0.000 A 
ATOM     16  C   UNL     1       7.478   0.397  -5.760  0.00  0.00    +0.001 A 
ATOM     17  C   UNL     1       6.838   0.845  -4.623  0.00  0.00    +0.017 A 
ATOM     18  C   UNL     1       5.509   0.490  -4.389  0.00  0.00    +0.025 A 
ATOM     19  C   UNL     1       4.838  -0.321  -5.304  0.00  0.00    +0.017 A 
ATOM     20  C   UNL     1       5.488  -0.759  -6.440  0.00  0.00    +0.001 A 
ENDBRANCH  13  18
ENDBRANCH  12  14
ENDBRANCH   8  12
ENDBRANCH   1   9
BRANCH   1  21
ATOM     21  N   UNL     1      -0.698   1.558   1.213  0.00  0.00    -0.296 N 
ATOM     22  C   UNL     1      -1.741   0.865   1.711  0.00  0.00    +0.252 C 
ATOM     23  O   UNL     1      -2.113  -0.154   1.159  0.00  0.00    -0.270 OA
ATOM     24  H   UNL     1      -0.362   2.479   1.712  0.00  0.00    +0.150 HD
BRANCH  22  25
ATOM     25  C   UNL     1      -2.427   1.337   2.917  0.00  0.00    +0.074 A 
ATOM     26  C   UNL     1      -3.507   0.779   3.584  0.00  0.00    +0.021 A 
ATOM     27  C   UNL     1      -3.957   1.434   4.703  0.00  0.00    +0.008 A 
ATOM     28  C   UNL     1      -3.337   2.577   5.098  0.00  0.00    +0.046 A 
ATOM     29  S   UNL     1      -2.086   2.777   3.914  0.00  0.00    -0.092 S 
ENDBRANCH  22  25
ENDBRANCH   1  21
TORSDOF 7
