REMARK  Name = ZINC01010037
REMARK  7 active torsions:
REMARK  status: ('A' for Active; 'I' for Inactive)
REMARK    1  A    between atoms: C_1  and  C_2
REMARK    2  A    between atoms: C_2  and  O_3
REMARK    3  A    between atoms: O_3  and  C_4
REMARK    4  A    between atoms: C_4  and  C_6
REMARK    5  A    between atoms: C_7  and  N_30
REMARK    6  A    between atoms: C_11  and  C_13
REMARK    7  A    between atoms: C_21  and  C_24
REMARK                            x       y       z     vdW  Elec       q    Type
REMARK                         _______ _______ _______ _____ _____    ______ ____
ROOT
ATOM      1  C   UNL     1      -0.761   1.599   3.567  0.00  0.00    +0.105 C 
ATOM      2  C   UNL     1      -0.288   1.149   4.758  0.00  0.00    +0.195 C 
ATOM      3  O   UNL     1      -0.834   1.541   5.919  0.00  0.00    -0.446 OA
ATOM      4  C   UNL     1      -2.096   2.009   5.940  0.00  0.00    +0.115 C 
ATOM      5  C   UNL     1      -2.681   2.499   4.832  0.00  0.00    +0.045 C 
ATOM      6  C   UNL     1      -1.932   2.540   3.522  0.00  0.00    +0.098 C 
ATOM      7  C   UNL     1      -4.003   2.985   4.856  0.00  0.00    +0.164 C 
ATOM      8  O   UNL     1      -4.490   3.439   3.840  0.00  0.00    -0.292 OA
ATOM      9  C   UNL     1      -4.822   2.952   6.117  0.00  0.00    +0.088 C 
ATOM     10  C   UNL     1      -4.339   1.790   6.991  0.00  0.00    +0.034 C 
ATOM     11  C   UNL     1      -2.842   1.971   7.253  0.00  0.00    +0.083 C 
ENDROOT
BRANCH  10  12
ATOM     12  C   UNL     1      -5.086   1.794   8.299  0.00  0.00    -0.043 A 
ATOM     13  C   UNL     1      -5.005   2.890   9.138  0.00  0.00    +0.004 A 
ATOM     14  C   UNL     1      -5.694   2.896  10.336  0.00  0.00    +0.000 A 
ATOM     15  C   UNL     1      -6.458   1.802  10.700  0.00  0.00    +0.000 A 
ATOM     16  C   UNL     1      -6.536   0.705   9.863  0.00  0.00    +0.000 A 
ATOM     17  C   UNL     1      -5.850   0.701   8.663  0.00  0.00    +0.004 A 
ENDBRANCH  10  12
BRANCH   6  18
ATOM     18  C   UNL     1      -1.437   3.942   3.277  0.00  0.00    -0.028 A 
ATOM     19  C   UNL     1      -1.848   4.646   2.161  0.00  0.00    +0.012 A 
ATOM     20  C   UNL     1      -1.383   5.905   1.970  0.00  0.00    +0.045 A 
ATOM     21  S   UNL     1      -0.331   6.131   3.394  0.00  0.00    -0.105 S 
ATOM     22  C   UNL     1      -0.586   4.534   4.151  0.00  0.00    +0.049 A 
ENDBRANCH   6  18
BRANCH   2  23
ATOM     23  N   UNL     1       0.772   0.282   4.774  0.00  0.00    -0.329 N 
ATOM     24  H   UNL     1       1.225   0.055   3.947  0.00  0.00    +0.145 HD
ATOM     25  H   UNL     1       1.070  -0.104   5.613  0.00  0.00    +0.145 HD
ENDBRANCH   2  23
BRANCH   1  26
ATOM     26  C   UNL     1      -0.158   1.177   2.372  0.00  0.00    +0.341 C 
ATOM     27  O   UNL     1      -0.681   0.305   1.700  0.00  0.00    -0.245 OA
BRANCH  26  28
ATOM     28  O   UNL     1       1.002   1.738   1.966  0.00  0.00    -0.462 OA
BRANCH  28  30
ATOM     29  C   UNL     1       2.862   2.007   0.447  0.00  0.00    +0.048 C 
ATOM     30  C   UNL     1       1.559   1.260   0.740  0.00  0.00    +0.229 C 
ENDBRANCH  28  30
ENDBRANCH  26  28
ENDBRANCH   1  26
TORSDOF 6
