REMARK  Name = ZINC49923525
REMARK  5 active torsions:
REMARK  status: ('A' for Active; 'I' for Inactive)
REMARK    1  A    between atoms: C_1  and  C_2
REMARK    2  A    between atoms: C_5  and  C_8
REMARK    3  A    between atoms: C_10  and  C_23
REMARK    4  A    between atoms: N_11  and  C_18
REMARK    5  A    between atoms: C_14  and  C_15
REMARK                            x       y       z     vdW  Elec       q    Type
REMARK                         _______ _______ _______ _____ _____    ______ ____
ROOT
ATOM      1  C   UNL     1       0.059  -4.252  -0.021  0.00  0.00    +0.003 A 
ATOM      2  C   UNL     1      -1.028  -4.981  -0.536  0.00  0.00    +0.030 A 
ATOM      3  C   UNL     1      -0.995  -6.334  -0.538  0.00  0.00    +0.020 A 
ATOM      4  N   UNL     1       0.070  -7.017  -0.049  0.00  0.00    -0.309 N 
ATOM      5  C   UNL     1       1.140  -6.376   0.458  0.00  0.00    +0.267 A 
ATOM      6  O   UNL     1       2.085  -7.014   0.890  0.00  0.00    -0.267 OA
ATOM      7  C   UNL     1       1.169  -4.958   0.481  0.00  0.00    +0.135 A 
ATOM      8  C   UNL     1      -2.168  -7.099  -1.093  0.00  0.00    +0.063 C 
ENDROOT
BRANCH   1  13
ATOM      9  C   UNL     1      -0.018   1.503   0.010  0.00  0.00    +0.044 C 
ATOM     10  C   UNL     1       0.002  -0.004   0.002  0.00  0.00    -0.050 A 
ATOM     11  C   UNL     1       0.006  -0.686  -1.202  0.00  0.00    +0.004 A 
ATOM     12  C   UNL     1       0.024  -2.065  -1.217  0.00  0.00    +0.009 A 
ATOM     13  C   UNL     1       0.040  -2.773  -0.013  0.00  0.00    -0.017 A 
ATOM     14  C   UNL     1       0.036  -2.079   1.198  0.00  0.00    +0.009 A 
ATOM     15  C   UNL     1       0.023  -0.699   1.198  0.00  0.00    +0.004 A 
ENDBRANCH   1  13
BRANCH   4  16
ATOM     16  C   UNL     1       0.056  -8.481  -0.073  0.00  0.00    +0.090 C 
ATOM     17  C   UNL     1       0.249  -9.035   1.354  0.00  0.00    +0.025 C 
ATOM     18  C   UNL     1       1.127 -10.296   1.157  0.00  0.00    +0.002 C 
ATOM     19  C   UNL     1       2.103  -9.861   0.036  0.00  0.00    +0.002 C 
ATOM     20  C   UNL     1       1.235  -9.007  -0.911  0.00  0.00    +0.025 C 
ENDBRANCH   4  16
BRANCH   7  21
ATOM     21  C   UNL     1       2.326  -4.245   1.022  0.00  0.00    +0.392 C 
ATOM     22  O   UNL     1       2.336  -3.020   1.042  0.00  0.00    -0.240 OA
ATOM     23  O   UNL     1       3.284  -4.872   1.456  0.00  0.00    -0.240 OA
ENDBRANCH   7  21
TORSDOF 3
