REMARK  Name = ZINC39689221
REMARK  10 active torsions:
REMARK  status: ('A' for Active; 'I' for Inactive)
REMARK    1  A    between atoms: C_1  and  C_2
REMARK    2  A    between atoms: C_2  and  C_3
REMARK    3  A    between atoms: C_3  and  C_4
REMARK    4  A    between atoms: C_4  and  C_5
REMARK    5  A    between atoms: C_5  and  C_7
REMARK    6  A    between atoms: C_5  and  C_8
REMARK    7  A    between atoms: C_12  and  C_21
REMARK    8  A    between atoms: N_23  and  C_24
REMARK    9  A    between atoms: C_24  and  C_25
REMARK   10  A    between atoms: N_28  and  C_31
REMARK                            x       y       z     vdW  Elec       q    Type
REMARK                         _______ _______ _______ _____ _____    ______ ____
ROOT
ATOM      1  C   UNL     1      -2.792  -4.253  -0.097  0.00  0.00    +0.218 C 
ATOM      2  O   UNL     1      -1.754  -4.863  -0.247  0.00  0.00    -0.275 OA
ATOM      3  N   UNL     1      -3.970  -4.907  -0.143  0.00  0.00    -0.300 N 
ATOM      4  C   UNL     1      -5.330  -4.340   0.010  0.00  0.00    +0.121 C 
ATOM      5  C   UNL     1      -6.189  -5.099  -1.027  0.00  0.00    +0.100 C 
ATOM      6  C   UNL     1      -5.441  -6.422  -1.262  0.00  0.00    -0.004 C 
ATOM      7  C   UNL     1      -4.197  -6.356  -0.363  0.00  0.00    +0.115 C 
ATOM      8  C   UNL     1      -5.022  -6.540  -2.724  0.00  0.00    -0.010 C 
ATOM      9  C   UNL     1      -4.330  -7.888  -2.945  0.00  0.00    -0.082 C 
ATOM     10  N   UNL     1      -5.250  -8.976  -2.589  0.00  0.00    +0.379 N 
ATOM     11  C   UNL     1      -5.575  -8.910  -1.159  0.00  0.00    -0.082 C 
ATOM     12  C   UNL     1      -6.319  -7.604  -0.863  0.00  0.00    -0.010 C 
ATOM     13  H   UNL     1      -6.098  -8.888  -3.130  0.00  0.00    -0.086 HD
ATOM     14  H   UNL     1      -4.815  -9.863  -2.793  0.00  0.00    -0.086 HD
ENDROOT
BRANCH   5  15
ATOM     15  C   UNL     1      -7.566  -5.363  -0.475  0.00  0.00    +0.218 C 
ATOM     16  O   UNL     1      -7.722  -5.520   0.718  0.00  0.00    -0.275 OA
ATOM     17  N   UNL     1      -8.624  -5.425  -1.307  0.00  0.00    -0.315 N 
ATOM     18  H   UNL     1      -8.500  -5.300  -2.261  0.00  0.00    +0.149 HD
BRANCH  17  19
ATOM     19  C   UNL     1      -9.963  -5.681  -0.771  0.00  0.00    +0.107 C 
BRANCH  19  20
ATOM     20  C   UNL     1     -10.977  -5.701  -1.917  0.00  0.00    +0.003 C 
ATOM     21  C   UNL     1     -11.063  -4.309  -2.548  0.00  0.00    -0.014 C 
ATOM     22  C   UNL     1     -12.135  -4.315  -3.640  0.00  0.00    -0.078 C 
ATOM     23  N   UNL     1     -13.433  -4.670  -3.055  0.00  0.00    +0.382 N 
ATOM     24  C   UNL     1     -13.379  -6.033  -2.511  0.00  0.00    -0.078 C 
ATOM     25  C   UNL     1     -12.355  -6.092  -1.375  0.00  0.00    -0.014 C 
ATOM     26  H   UNL     1     -13.655  -4.022  -2.314  0.00  0.00    -0.081 HD
BRANCH  23  27
ATOM     27  C   UNL     1     -14.472  -4.600  -4.091  0.00  0.00    -0.069 C 
ATOM     28  C   UNL     1     -14.597  -3.155  -4.616  0.00  0.00    -0.015 C 
ATOM     29  C   UNL     1     -16.115  -2.969  -4.861  0.00  0.00    -0.002 C 
ATOM     30  C   UNL     1     -16.749  -3.736  -3.674  0.00  0.00    -0.002 C 
ATOM     31  C   UNL     1     -15.840  -4.970  -3.492  0.00  0.00    -0.015 C 
ENDBRANCH  23  27
ENDBRANCH  19  20
ENDBRANCH  17  19
ENDBRANCH   5  15
BRANCH   1  32
ATOM     32  C   UNL     1      -2.765  -2.765   0.140  0.00  0.00    +0.072 C 
ATOM     33  C   UNL     1      -3.414  -2.452   1.489  0.00  0.00    +0.017 C 
BRANCH  32  34
ATOM     34  C   UNL     1      -1.315  -2.276   0.145  0.00  0.00    +0.012 C 
BRANCH  34  35
ATOM     35  C   UNL     1      -1.292  -0.751   0.261  0.00  0.00    +0.000 C 
BRANCH  35  37
ATOM     36  C   UNL     1       0.180   1.264   0.382  0.00  0.00    +0.004 C 
ATOM     37  C   UNL     1       0.157  -0.262   0.266  0.00  0.00    -0.003 C 
ENDBRANCH  35  37
ENDBRANCH  34  35
ENDBRANCH  32  34
ENDBRANCH   1  32
TORSDOF 8
