REMARK  Name = ZINC04538041
REMARK  6 active torsions:
REMARK  status: ('A' for Active; 'I' for Inactive)
REMARK    1  A    between atoms: C_1  and  C_2
REMARK    2  A    between atoms: C_2  and  C_4
REMARK    3  A    between atoms: C_2  and  S_16
REMARK    4  A    between atoms: S_16  and  C_17
REMARK    5  A    between atoms: C_20  and  C_23
REMARK    6  A    between atoms: N_21  and  N_22
REMARK                            x       y       z     vdW  Elec       q    Type
REMARK                         _______ _______ _______ _____ _____    ______ ____
ROOT
ATOM      1  C   UNL     1      -2.819   0.946  -1.400  0.00  0.00    +0.029 C 
ATOM      2  C   UNL     1      -2.491   1.407   0.022  0.00  0.00    +0.137 C 
ENDROOT
BRANCH   2   3
ATOM      3  C   UNL     1      -1.178   2.148   0.019  0.00  0.00    +0.229 C 
ATOM      4  O   UNL     1      -1.166   3.361   0.026  0.00  0.00    -0.274 OA
ATOM      5  N   UNL     1      -0.018   1.463   0.010  0.00  0.00    -0.296 N 
ATOM      6  C   UNL     1       1.281   2.156   0.001  0.00  0.00    +0.113 C 
ATOM      7  C   UNL     1       2.004   1.814   1.303  0.00  0.00    +0.054 C 
ATOM      8  C   UNL     1       1.958   0.332   1.569  0.00  0.00    -0.041 A 
ATOM      9  C   UNL     1       2.892  -0.193   2.453  0.00  0.00    +0.004 A 
ATOM     10  C   UNL     1       2.897  -1.540   2.750  0.00  0.00    +0.000 A 
ATOM     11  C   UNL     1       1.966  -2.377   2.164  0.00  0.00    +0.000 A 
ATOM     12  C   UNL     1       1.039  -1.859   1.283  0.00  0.00    +0.005 A 
ATOM     13  C   UNL     1       1.035  -0.503   0.981  0.00  0.00    -0.027 A 
ATOM     14  C   UNL     1       0.002  -0.004   0.002  0.00  0.00    +0.143 C 
ENDBRANCH   2   3
BRANCH   2  15
ATOM     15  S   UNL     1      -3.801   2.504   0.618  0.00  0.00    -0.072 S 
BRANCH  15  16
ATOM     16  C   UNL     1      -5.151   1.372   0.661  0.00  0.00    +0.209 A 
ATOM     17  N   UNL     1      -5.114   0.102   0.327  0.00  0.00    -0.120 NA
ATOM     18  N   UNL     1      -6.273  -0.430   0.480  0.00  0.00    -0.123 NA
ATOM     19  C   UNL     1      -7.127   0.470   0.916  0.00  0.00    +0.217 A 
ATOM     20  N   UNL     1      -6.433   1.653   1.045  0.00  0.00    -0.221 N 
BRANCH  19  21
ATOM     21  C   UNL     1      -8.552   0.256   1.209  0.00  0.00    +0.173 A 
ATOM     22  C   UNL     1      -9.299  -0.813   0.813  0.00  0.00    +0.053 A 
ATOM     23  C   UNL     1     -10.598  -0.608   1.315  0.00  0.00    +0.042 A 
ATOM     24  C   UNL     1     -10.586   0.566   1.977  0.00  0.00    +0.196 A 
ATOM     25  O   UNL     1      -9.349   1.085   1.911  0.00  0.00    -0.460 OA
ENDBRANCH  19  21
BRANCH  20  26
ATOM     26  N   UNL     1      -6.923   2.856   1.468  0.00  0.00    -0.294 N 
ATOM     27  H   UNL     1      -7.269   3.399   0.691  0.00  0.00    +0.163 HD
ATOM     28  H   UNL     1      -7.638   2.729   2.167  0.00  0.00    +0.163 HD
ENDBRANCH  20  26
ENDBRANCH  15  16
ENDBRANCH   2  15
TORSDOF 5
