REMARK  Name = ZINC04595776
REMARK  6 active torsions:
REMARK  status: ('A' for Active; 'I' for Inactive)
REMARK    1  A    between atoms: C_1  and  C_2
REMARK    2  A    between atoms: C_4  and  N_15
REMARK    3  A    between atoms: C_6  and  C_8
REMARK    4  A    between atoms: C_13  and  O_14
REMARK    5  A    between atoms: N_15  and  N_16
REMARK    6  A    between atoms: C_17  and  C_18
REMARK                            x       y       z     vdW  Elec       q    Type
REMARK                         _______ _______ _______ _____ _____    ______ ____
ROOT
ATOM      1  C   UNL     1       5.872   3.226   1.588  0.00  0.00    +0.066 C 
ATOM      2  C   UNL     1       4.669   3.966   1.064  0.00  0.00    +0.044 A 
ATOM      3  C   UNL     1       4.611   5.346   1.136  0.00  0.00    +0.068 A 
ATOM      4  C   UNL     1       3.478   5.993   0.638  0.00  0.00    +0.142 A 
ATOM      5  N   UNL     1       2.497   5.265   0.114  0.00  0.00    -0.211 NA
ATOM      6  C   UNL     1       2.591   3.943   0.063  0.00  0.00    +0.166 A 
ATOM      7  N   UNL     1       3.653   3.303   0.534  0.00  0.00    -0.232 NA
ENDROOT
BRANCH   6   8
ATOM      8  C   UNL     1       1.479   3.162  -0.527  0.00  0.00    +0.061 A 
ATOM      9  C   UNL     1       1.556   1.772  -0.591  0.00  0.00    +0.015 A 
ATOM     10  C   UNL     1       0.518   1.049  -1.141  0.00  0.00    +0.001 A 
ATOM     11  C   UNL     1      -0.599   1.700  -1.637  0.00  0.00    +0.004 A 
ATOM     12  C   UNL     1      -0.689   3.077  -1.574  0.00  0.00    +0.046 A 
ATOM     13  C   UNL     1       0.346   3.817  -1.024  0.00  0.00    +0.128 A 
BRANCH  13  14
ATOM     14  O   UNL     1       0.262   5.170  -0.967  0.00  0.00    -0.506 OA
ATOM     15  H   UNL     1       0.619   5.620  -1.745  0.00  0.00    +0.292 HD
ENDBRANCH  13  14
ENDBRANCH   6   8
BRANCH   4  16
ATOM     16  N   UNL     1       3.377   7.374   0.689  0.00  0.00    -0.221 N 
ATOM     17  H   UNL     1       4.098   7.899   1.073  0.00  0.00    +0.176 HD
BRANCH  16  18
ATOM     18  N   UNL     1       2.236   8.013   0.187  0.00  0.00    -0.189 NA
ATOM     19  C   UNL     1       2.192   9.309   0.126  0.00  0.00    +0.138 C 
BRANCH  19  20
ATOM     20  C   UNL     1       3.442  10.090   0.119  0.00  0.00    -0.005 A 
ATOM     21  C   UNL     1       3.408  11.471   0.330  0.00  0.00    +0.010 A 
ATOM     22  C   UNL     1       4.582  12.195   0.328  0.00  0.00    +0.016 A 
ATOM     23  C   UNL     1       5.791  11.558   0.105  0.00  0.00    +0.018 A 
ATOM     24  C   UNL     1       5.832  10.191  -0.110  0.00  0.00    +0.016 A 
ATOM     25  C   UNL     1       4.666   9.454  -0.104  0.00  0.00    +0.010 A 
ATOM     26 BR   UNL     1       7.395  12.560   0.096  0.00  0.00    -0.050 Br
ENDBRANCH  19  20
ENDBRANCH  16  18
ENDBRANCH   4  16
TORSDOF 5
