REMARK  Name = ZINC00844385
REMARK  13 active torsions:
REMARK  status: ('A' for Active; 'I' for Inactive)
REMARK    1  A    between atoms: C_1  and  C_2
REMARK    2  A    between atoms: C_3  and  C_20
REMARK    3  A    between atoms: C_4  and  C_10
REMARK    4  A    between atoms: C_12  and  O_18
REMARK    5  A    between atoms: C_13  and  O_17
REMARK    6  A    between atoms: O_18  and  C_19
REMARK    7  A    between atoms: C_20  and  O_22
REMARK    8  A    between atoms: O_22  and  C_23
REMARK    9  A    between atoms: C_23  and  C_25
REMARK   10  A    between atoms: C_23  and  C_26
REMARK   11  A    between atoms: C_26  and  C_27
REMARK   12  A    between atoms: C_26  and  C_28
REMARK   13  A    between atoms: C_26  and  C_29
REMARK                            x       y       z     vdW  Elec       q    Type
REMARK                         _______ _______ _______ _____ _____    ______ ____
ROOT
ATOM      1  C   UNL     1       2.662   0.835  -0.125  0.00  0.00    +0.061 C 
ATOM      2  C   UNL     1       1.397   1.652  -0.085  0.00  0.00    +0.021 C 
ATOM      3  C   UNL     1       1.477   3.000  -0.061  0.00  0.00    +0.078 C 
ATOM      4  C   UNL     1       0.180   3.783  -0.021  0.00  0.00    +0.144 C 
ATOM      5  N   UNL     1      -1.070   3.004  -0.012  0.00  0.00    -0.288 N 
ATOM      6  C   UNL     1      -0.988   1.659  -0.045  0.00  0.00    +0.304 C 
ATOM      7  O   UNL     1      -2.013   1.007  -0.043  0.00  0.00    -0.252 OA
ATOM      8  N   UNL     1       0.188   1.018  -0.074  0.00  0.00    -0.273 N 
ATOM      9  H   UNL     1      -1.932   3.448   0.012  0.00  0.00    +0.151 HD
ATOM     10  H   UNL     1       0.179   0.048  -0.092  0.00  0.00    +0.156 HD
ENDROOT
BRANCH   4  11
ATOM     11  C   UNL     1       0.197   4.648   1.213  0.00  0.00    -0.018 A 
ATOM     12  C   UNL     1       0.406   6.010   1.098  0.00  0.00    +0.055 A 
ATOM     13  C   UNL     1       0.416   6.807   2.231  0.00  0.00    +0.163 A 
ATOM     14  C   UNL     1       0.227   6.233   3.485  0.00  0.00    +0.173 A 
ATOM     15  C   UNL     1       0.024   4.867   3.594  0.00  0.00    +0.063 A 
ATOM     16  C   UNL     1       0.009   4.077   2.458  0.00  0.00    +0.025 A 
ATOM     17 BR   UNL     1      -0.235   4.082   5.295  0.00  0.00    -0.046 Br
BRANCH  14  18
ATOM     18  O   UNL     1       0.241   7.011   4.600  0.00  0.00    -0.503 OA
ATOM     19  H   UNL     1       1.116   7.113   4.998  0.00  0.00    +0.292 HD
ENDBRANCH  14  18
BRANCH  13  20
ATOM     20  O   UNL     1       0.616   8.148   2.119  0.00  0.00    -0.491 OA
ATOM     21  C   UNL     1       0.692   8.684   0.796  0.00  0.00    +0.277 C 
ENDBRANCH  13  20
ENDBRANCH   4  11
BRANCH   3  22
ATOM     22  C   UNL     1       2.728   3.659  -0.071  0.00  0.00    +0.339 C 
ATOM     23  O   UNL     1       2.778   4.871  -0.167  0.00  0.00    -0.245 OA
BRANCH  22  24
ATOM     24  O   UNL     1       3.868   2.943   0.025  0.00  0.00    -0.458 OA
BRANCH  24  25
ATOM     25  C   UNL     1       5.090   3.678   0.122  0.00  0.00    +0.179 C 
ATOM     26  C   UNL     1       5.462   3.856   1.596  0.00  0.00    +0.052 C 
BRANCH  25  27
ATOM     27  C   UNL     1       6.204   2.914  -0.596  0.00  0.00    -0.001 C 
ATOM     28  C   UNL     1       5.883   2.829  -2.090  0.00  0.00    +0.014 C 
ATOM     29  C   UNL     1       7.533   3.646  -0.401  0.00  0.00    +0.014 C 
ATOM     30  C   UNL     1       6.310   1.502  -0.016  0.00  0.00    +0.014 C 
ENDBRANCH  25  27
ENDBRANCH  24  25
ENDBRANCH  22  24
ENDBRANCH   3  22
TORSDOF 7
