REMARK  Name = ZINC28996259
REMARK  5 active torsions:
REMARK  status: ('A' for Active; 'I' for Inactive)
REMARK    1  A    between atoms: C_1  and  C_2
REMARK    2  A    between atoms: C_4  and  C_29
REMARK    3  A    between atoms: C_7  and  C_12
REMARK    4  A    between atoms: N_17  and  S_20
REMARK    5  A    between atoms: S_20  and  C_23
REMARK                            x       y       z     vdW  Elec       q    Type
REMARK                         _______ _______ _______ _____ _____    ______ ____
ROOT
ATOM      1  C   UNL     1      -1.226   2.191   0.020  0.00  0.00    +0.263 C 
ATOM      2  O   UNL     1      -2.323   1.674  -0.073  0.00  0.00    -0.268 OA
ATOM      3  N   UNL     1      -1.119   3.530   0.129  0.00  0.00    -0.294 N 
ATOM      4  C   UNL     1       0.201   4.176   0.133  0.00  0.00    +0.125 C 
ATOM      5  C   UNL     1       0.227   5.234  -0.983  0.00  0.00    +0.128 C 
ATOM      6  N   UNL     1      -0.973   6.073  -0.861  0.00  0.00    -0.174 NA
ATOM      7  C   UNL     1      -2.293   5.426  -0.860  0.00  0.00    +0.128 C 
ATOM      8  C   UNL     1      -2.319   4.369   0.250  0.00  0.00    +0.125 C 
ENDROOT
BRANCH   1  15
ATOM      9  C   UNL     1       5.300  -1.190   1.170  0.00  0.00    +0.044 C 
ATOM     10  C   UNL     1       3.963  -0.832   0.574  0.00  0.00    -0.048 A 
ATOM     11  C   UNL     1       3.492  -1.532  -0.530  0.00  0.00    +0.007 A 
ATOM     12  C   UNL     1       2.284  -1.223  -1.085  0.00  0.00    -0.041 A 
ATOM     13  C   UNL     1       1.509  -0.192  -0.538  0.00  0.00    +0.003 A 
ATOM     14  C   UNL     1       0.247   0.358  -0.872  0.00  0.00    +0.041 A 
ATOM     15  C   UNL     1      -0.017   1.354   0.014  0.00  0.00    +0.103 A 
ATOM     16  N   UNL     1       1.035   1.460   0.903  0.00  0.00    -0.351 N 
ATOM     17  H   UNL     1       1.006   2.216   1.702  0.00  0.00    +0.166 HD
ATOM     18  C   UNL     1       1.984   0.518   0.582  0.00  0.00    +0.048 A 
ATOM     19  C   UNL     1       3.219   0.185   1.130  0.00  0.00    +0.029 A 
ATOM     20  C   UNL     1       1.786  -1.989  -2.283  0.00  0.00    +0.044 C 
ENDBRANCH   1  15
BRANCH   6  21
ATOM     21  S   UNL     1      -0.841   7.719  -0.727  0.00  0.00    +0.061 S 
ATOM     22  O   UNL     1       0.408   8.074  -1.303  0.00  0.00    -0.153 OA
ATOM     23  O   UNL     1      -2.072   8.263  -1.181  0.00  0.00    -0.153 OA
BRANCH  21  24
ATOM     24  C   UNL     1      -0.729   8.094   0.991  0.00  0.00    +0.105 A 
ATOM     25  C   UNL     1      -1.876   8.337   1.722  0.00  0.00    +0.028 A 
ATOM     26  C   UNL     1      -1.788   8.627   3.071  0.00  0.00    +0.002 A 
ATOM     27  C   UNL     1      -0.552   8.682   3.687  0.00  0.00    +0.000 A 
ATOM     28  C   UNL     1       0.596   8.445   2.954  0.00  0.00    +0.002 A 
ATOM     29  C   UNL     1       0.508   8.150   1.607  0.00  0.00    +0.028 A 
ENDBRANCH  21  24
ENDBRANCH   6  21
TORSDOF 3
