REMARK  Name = ZINC50930043
REMARK  3 active torsions:
REMARK  status: ('A' for Active; 'I' for Inactive)
REMARK    1  A    between atoms: C_12  and  C_15
REMARK    2  A    between atoms: C_15  and  C_16
REMARK    3  A    between atoms: C_16  and  C_17
REMARK                            x       y       z     vdW  Elec       q    Type
REMARK                         _______ _______ _______ _____ _____    ______ ____
ROOT
ATOM      1  C   UNL     1      -0.016   1.317   0.003  0.00  0.00    +0.136 A 
ATOM      2  C   UNL     1       1.184   1.949  -0.005  0.00  0.00    +0.076 A 
ATOM      3  S   UNL     1       2.296   0.552  -0.021  0.00  0.00    -0.045 S 
ATOM      4  C   UNL     1       1.137  -0.668  -0.015  0.00  0.00    +0.167 A 
ATOM      5  N   UNL     1       0.002  -0.004  -0.002  0.00  0.00    -0.232 NA
ATOM      6  N   UNL     1       1.332  -2.045  -0.023  0.00  0.00    -0.248 N 
ATOM      7  C   UNL     1       0.271  -2.876  -0.016  0.00  0.00    +0.308 C 
ATOM      8  O   UNL     1      -0.853  -2.426   0.090  0.00  0.00    -0.252 OA
ATOM      9  N   UNL     1       0.457  -4.206  -0.127  0.00  0.00    -0.285 N 
ATOM     10  C   UNL     1       1.812  -4.775  -0.138  0.00  0.00    +0.109 C 
ATOM     11  C   UNL     1       1.966  -5.655  -1.382  0.00  0.00    +0.022 C 
ATOM     12  C   UNL     1       0.847  -6.698  -1.407  0.00  0.00    -0.008 C 
ATOM     13  C   UNL     1      -0.509  -5.992  -1.481  0.00  0.00    +0.022 C 
ATOM     14  C   UNL     1      -0.692  -5.116  -0.232  0.00  0.00    +0.109 C 
ATOM     15 BR   UNL     1       1.572   3.800  -0.002  0.00  0.00    -0.041 Br
ATOM     16  H   UNL     1       2.232  -2.407  -0.032  0.00  0.00    +0.158 HD
ENDROOT
BRANCH  12  17
ATOM     17  C   UNL     1       1.018  -7.601  -2.631  0.00  0.00    +0.015 C 
BRANCH  17  18
ATOM     18  C   UNL     1      -0.025  -8.719  -2.590  0.00  0.00    +0.125 C 
BRANCH  18  19
ATOM     19  C   UNL     1       0.144  -9.608  -3.794  0.00  0.00    +0.356 C 
ATOM     20  O   UNL     1       1.018  -9.370  -4.610  0.00  0.00    -0.246 OA
ATOM     21  O   UNL     1      -0.593 -10.566  -3.953  0.00  0.00    -0.246 OA
ENDBRANCH  18  19
ENDBRANCH  17  18
ENDBRANCH  12  17
TORSDOF 3
