REMARK  Name = ZINC39695629
REMARK  6 active torsions:
REMARK  status: ('A' for Active; 'I' for Inactive)
REMARK    1  A    between atoms: C_1  and  C_2
REMARK    2  A    between atoms: C_2  and  N_3
REMARK    3  A    between atoms: C_7  and  C_9
REMARK    4  A    between atoms: C_9  and  N_10
REMARK    5  A    between atoms: C_11  and  C_13
REMARK    6  A    between atoms: C_24  and  C_26
REMARK                            x       y       z     vdW  Elec       q    Type
REMARK                         _______ _______ _______ _____ _____    ______ ____
ROOT
ATOM      1  C   UNL     1      -4.239  -1.310   3.147  0.00  0.00    +0.100 C 
ATOM      2  C   UNL     1      -3.710   0.029   3.707  0.00  0.00    +0.121 C 
ATOM      3  N   UNL     1      -4.744   0.466   4.673  0.00  0.00    -0.300 N 
ATOM      4  C   UNL     1      -5.167  -0.783   5.351  0.00  0.00    +0.115 C 
ATOM      5  C   UNL     1      -5.194  -1.840   4.230  0.00  0.00    -0.004 C 
ATOM      6  C   UNL     1      -6.606  -1.977   3.668  0.00  0.00    -0.010 C 
ATOM      7  C   UNL     1      -7.525  -2.559   4.745  0.00  0.00    -0.082 C 
ATOM      8  N   UNL     1      -7.017  -3.869   5.169  0.00  0.00    +0.379 N 
ATOM      9  C   UNL     1      -5.697  -3.716   5.793  0.00  0.00    -0.082 C 
ATOM     10  C   UNL     1      -4.700  -3.183   4.760  0.00  0.00    -0.010 C 
ATOM     11  C   UNL     1      -5.199   1.717   4.888  0.00  0.00    +0.219 C 
ATOM     12  O   UNL     1      -4.809   2.631   4.193  0.00  0.00    -0.275 OA
ATOM     13  H   UNL     1      -7.657  -4.277   5.834  0.00  0.00    -0.086 HD
ATOM     14  H   UNL     1      -6.940  -4.474   4.366  0.00  0.00    -0.086 HD
ENDROOT
BRANCH  11  15
ATOM     15  C   UNL     1      -6.191   1.979   5.992  0.00  0.00    +0.079 C 
ATOM     16  C   UNL     1      -7.002   3.240   5.667  0.00  0.00    +0.017 C 
ATOM     17  C   UNL     1      -8.115   3.381   6.708  0.00  0.00    +0.027 C 
ATOM     18  C   UNL     1      -7.550   3.242   8.091  0.00  0.00    -0.031 C 
ATOM     19  C   UNL     1      -6.391   2.727   8.353  0.00  0.00    -0.030 C 
ATOM     20  C   UNL     1      -5.447   2.202   7.310  0.00  0.00    +0.039 C 
ENDBRANCH  11  15
BRANCH   1  22
ATOM     21  N   UNL     1      -3.197  -3.230   1.987  0.00  0.00    -0.317 N 
ATOM     22  C   UNL     1      -3.101  -2.276   2.933  0.00  0.00    +0.218 C 
ATOM     23  O   UNL     1      -2.100  -2.193   3.613  0.00  0.00    -0.275 OA
ATOM     24  H   UNL     1      -3.998  -3.296   1.444  0.00  0.00    +0.149 HD
BRANCH  21  25
ATOM     25  C   UNL     1      -2.091  -4.168   1.779  0.00  0.00    +0.089 C 
BRANCH  25  30
ATOM     26  N   UNL     1      -2.816  -4.391  -0.561  0.00  0.00    +0.382 N 
ATOM     27  C   UNL     1      -1.892  -4.779  -1.648  0.00  0.00    -0.078 C 
ATOM     28  C   UNL     1      -0.621  -5.288  -0.923  0.00  0.00    -0.020 C 
ATOM     29  C   UNL     1      -1.230  -6.016   0.304  0.00  0.00    -0.016 C 
ATOM     30  C   UNL     1      -2.453  -5.142   0.655  0.00  0.00    -0.051 C 
ATOM     31  H   UNL     1      -2.734  -3.401  -0.386  0.00  0.00    -0.081 HD
BRANCH  26  33
ATOM     32  C   UNL     1      -4.612  -3.841  -2.133  0.00  0.00    -0.017 C 
ATOM     33  C   UNL     1      -4.196  -4.714  -0.946  0.00  0.00    -0.082 C 
ENDBRANCH  26  33
ENDBRANCH  25  30
ENDBRANCH  21  25
ENDBRANCH   1  22
TORSDOF 5
