REMARK  Name = ZINC02312112
REMARK  6 active torsions:
REMARK  status: ('A' for Active; 'I' for Inactive)
REMARK    1  A    between atoms: C_4  and  O_24
REMARK    2  A    between atoms: C_5  and  C_7
REMARK    3  A    between atoms: C_7  and  N_9
REMARK    4  A    between atoms: N_12  and  C_15
REMARK    5  A    between atoms: C_15  and  C_17
REMARK    6  A    between atoms: C_22  and  O_23
REMARK                            x       y       z     vdW  Elec       q    Type
REMARK                         _______ _______ _______ _____ _____    ______ ____
ROOT
ATOM      1  N   UNL     1       0.103  -2.856   0.086  0.00  0.00    -0.321 N 
ATOM      2  C   UNL     1      -1.193  -2.163   0.101  0.00  0.00    +0.124 C 
ATOM      3  C   UNL     1      -2.074  -2.747  -1.011  0.00  0.00    +0.124 C 
ATOM      4  N   UNL     1      -2.053  -4.213  -0.905  0.00  0.00    -0.321 N 
ATOM      5  C   UNL     1      -0.757  -4.906  -0.919  0.00  0.00    +0.124 C 
ATOM      6  C   UNL     1       0.124  -4.322   0.186  0.00  0.00    +0.124 C 
ENDROOT
BRANCH   1   7
ATOM      7  C   UNL     1       1.252  -2.160  -0.024  0.00  0.00    +0.086 C 
ATOM      8  S   UNL     1       2.743  -2.987  -0.178  0.00  0.00    -0.035 S 
BRANCH   7  13
ATOM      9  C   UNL     1       1.173   1.405  -1.192  0.00  0.00    +0.001 A 
ATOM     10  C   UNL     1       1.175   2.087   0.013  0.00  0.00    +0.004 A 
ATOM     11  C   UNL     1       1.202   1.394   1.208  0.00  0.00    +0.046 A 
ATOM     12  C   UNL     1       1.227   0.008   1.208  0.00  0.00    +0.126 A 
ATOM     13  C   UNL     1       1.225  -0.686  -0.010  0.00  0.00    +0.045 A 
ATOM     14  C   UNL     1       1.198   0.027  -1.212  0.00  0.00    +0.014 A 
BRANCH  12  15
ATOM     15  O   UNL     1       1.254  -0.674   2.380  0.00  0.00    -0.506 OA
ATOM     16  H   UNL     1       0.379  -0.887   2.731  0.00  0.00    +0.292 HD
ENDBRANCH  12  15
ENDBRANCH   7  13
ENDBRANCH   1   7
BRANCH   4  17
ATOM     17  C   UNL     1      -3.202  -4.909  -0.795  0.00  0.00    +0.086 C 
ATOM     18  S   UNL     1      -4.707  -4.100  -0.910  0.00  0.00    -0.035 S 
BRANCH  17  19
ATOM     19  C   UNL     1      -3.163  -6.365  -0.577  0.00  0.00    +0.045 A 
ATOM     20  C   UNL     1      -3.040  -6.879   0.717  0.00  0.00    +0.014 A 
ATOM     21  C   UNL     1      -3.005  -8.242   0.915  0.00  0.00    +0.001 A 
ATOM     22  C   UNL     1      -3.090  -9.107  -0.164  0.00  0.00    +0.004 A 
ATOM     23  C   UNL     1      -3.211  -8.613  -1.448  0.00  0.00    +0.046 A 
ATOM     24  C   UNL     1      -3.254  -7.244  -1.665  0.00  0.00    +0.126 A 
BRANCH  24  25
ATOM     25  O   UNL     1      -3.379  -6.758  -2.925  0.00  0.00    -0.506 OA
ATOM     26  H   UNL     1      -2.535  -6.606  -3.373  0.00  0.00    +0.292 HD
ENDBRANCH  24  25
ENDBRANCH  17  19
ENDBRANCH   4  17
TORSDOF 6
