REMARK  Name = ZINC20566024
REMARK  6 active torsions:
REMARK  status: ('A' for Active; 'I' for Inactive)
REMARK    1  A    between atoms: C_1  and  C_2
REMARK    2  A    between atoms: C_5  and  C_8
REMARK    3  A    between atoms: C_13  and  O_32
REMARK    4  A    between atoms: N_21  and  C_24
REMARK    5  A    between atoms: C_24  and  C_25
REMARK    6  A    between atoms: C_25  and  N_26
REMARK                            x       y       z     vdW  Elec       q    Type
REMARK                         _______ _______ _______ _____ _____    ______ ____
ROOT
ATOM      1  C   UNL     1       2.483   1.033  -0.014  0.00  0.00    +0.091 C 
ATOM      2  C   UNL     1       1.178   1.781   0.000  0.00  0.00    +0.007 A 
ATOM      3  C   UNL     1      -0.013   1.076   0.008  0.00  0.00    +0.012 A 
ATOM      4  C   UNL     1      -1.219   1.747   0.017  0.00  0.00    +0.046 A 
ATOM      5  C   UNL     1      -1.240   3.135   0.028  0.00  0.00    +0.120 A 
ATOM      6  C   UNL     1      -0.050   3.844   0.020  0.00  0.00    +0.092 A 
ATOM      7  C   UNL     1       1.163   3.167   0.006  0.00  0.00    +0.138 A 
ATOM      8  O   UNL     1       2.318   3.874  -0.000  0.00  0.00    -0.437 OA
ATOM      9  C   UNL     1       3.468   3.295  -0.409  0.00  0.00    +0.229 A 
ATOM     10  C   UNL     1       3.604   1.941  -0.436  0.00  0.00    +0.066 A 
ATOM     11  C   UNL     1       4.830   1.385  -0.871  0.00  0.00    +0.115 A 
ATOM     12  N   UNL     1       5.003   0.080  -0.911  0.00  0.00    -0.384 N 
ATOM     13  N   UNL     1       5.840   2.245  -1.251  0.00  0.00    -0.317 N 
ATOM     14  C   UNL     1       5.628   3.584  -1.197  0.00  0.00    +0.204 A 
ATOM     15  N   UNL     1       4.493   4.078  -0.795  0.00  0.00    -0.202 NA
ATOM     16  H   UNL     1       5.962  -0.338  -1.252  0.00  0.00    +0.157 HD
ATOM     17  H   UNL     1       4.188  -0.593  -0.605  0.00  0.00    +0.157 HD
ENDROOT
BRANCH   1  22
ATOM     18  C   UNL     1       3.574  -1.010   5.281  0.00  0.00    +0.044 C 
ATOM     19  C   UNL     1       3.289  -0.478   3.900  0.00  0.00    -0.050 A 
ATOM     20  C   UNL     1       3.165  -1.350   2.835  0.00  0.00    +0.003 A 
ATOM     21  C   UNL     1       2.904  -0.861   1.568  0.00  0.00    +0.005 A 
ATOM     22  C   UNL     1       2.767   0.500   1.367  0.00  0.00    -0.035 A 
ATOM     23  C   UNL     1       2.897   1.372   2.432  0.00  0.00    +0.005 A 
ATOM     24  C   UNL     1       3.152   0.883   3.699  0.00  0.00    +0.003 A 
ENDBRANCH   1  22
BRANCH   5  25
ATOM     25  O   UNL     1      -2.427   3.797   0.042  0.00  0.00    -0.507 OA
ATOM     26  H   UNL     1      -2.443   4.897   0.051  0.00  0.00    +0.292 HD
ENDBRANCH   5  25
BRANCH  13  27
ATOM     27  C   UNL     1       7.129   1.718  -1.706  0.00  0.00    +0.140 C 
BRANCH  27  28
ATOM     28  C   UNL     1       7.048   1.393  -3.199  0.00  0.00    +0.106 C 
BRANCH  28  29
ATOM     29  N   UNL     1       8.340   0.865  -3.656  0.00  0.00    -0.296 NA
ATOM     30  C   UNL     1       9.386   1.896  -3.586  0.00  0.00    +0.112 C 
ATOM     31  C   UNL     1      10.725   1.288  -4.013  0.00  0.00    +0.175 C 
ATOM     32  O   UNL     1      10.595   0.737  -5.326  0.00  0.00    -0.377 OA
ATOM     33  C   UNL     1       9.585  -0.271  -5.431  0.00  0.00    +0.175 C 
ATOM     34  C   UNL     1       8.236   0.322  -5.018  0.00  0.00    +0.112 C 
ENDBRANCH  28  29
ENDBRANCH  27  28
ENDBRANCH  13  27
TORSDOF 5
