REMARK  Name = ZINC13681201
REMARK  10 active torsions:
REMARK  status: ('A' for Active; 'I' for Inactive)
REMARK    1  A    between atoms: C_1  and  C_2
REMARK    2  A    between atoms: C_5  and  C_33
REMARK    3  A    between atoms: N_8  and  C_10
REMARK    4  A    between atoms: C_10  and  C_11
REMARK    5  A    between atoms: C_12  and  O_32
REMARK    6  A    between atoms: C_19  and  C_20
REMARK    7  A    between atoms: C_23  and  O_28
REMARK    8  A    between atoms: C_24  and  O_26
REMARK    9  A    between atoms: O_26  and  C_27
REMARK   10  A    between atoms: O_28  and  C_29
REMARK                            x       y       z     vdW  Elec       q    Type
REMARK                         _______ _______ _______ _____ _____    ______ ____
ROOT
ATOM      1  C   UNL     1       1.755   0.472   3.366  0.00  0.00    +0.020 A 
ATOM      2  C   UNL     1       2.249   1.668   3.862  0.00  0.00    +0.122 A 
ATOM      3  C   UNL     1       1.866   2.126   5.119  0.00  0.00    +0.046 A 
ATOM      4  C   UNL     1       0.996   1.396   5.879  0.00  0.00    +0.019 A 
ATOM      5  C   UNL     1       0.490   0.190   5.393  0.00  0.00    +0.068 A 
ATOM      6  C   UNL     1       0.865  -0.279   4.124  0.00  0.00    +0.144 A 
ATOM      7  O   UNL     1       0.247  -1.453   3.872  0.00  0.00    -0.451 OA
ATOM      8  C   UNL     1      -0.550  -1.833   4.898  0.00  0.00    +0.176 C 
ATOM      9  C   UNL     1      -1.304  -2.961   4.953  0.00  0.00    +0.058 C 
ATOM     10  C   UNL     1      -0.441  -0.809   5.947  0.00  0.00    +0.231 C 
ATOM     11  O   UNL     1      -1.005  -0.785   7.027  0.00  0.00    -0.283 OA
ENDROOT
BRANCH   9  12
ATOM     12  C   UNL     1      -1.194  -3.970   3.893  0.00  0.00    -0.018 A 
ATOM     13  C   UNL     1      -0.196  -3.857   2.917  0.00  0.00    +0.012 A 
ATOM     14  C   UNL     1      -0.095  -4.805   1.923  0.00  0.00    +0.050 A 
ATOM     15  C   UNL     1      -0.982  -5.873   1.884  0.00  0.00    +0.162 A 
ATOM     16  C   UNL     1      -1.979  -5.993   2.852  0.00  0.00    +0.162 A 
ATOM     17  C   UNL     1      -2.084  -5.051   3.856  0.00  0.00    +0.057 A 
BRANCH  16  18
ATOM     18  O   UNL     1      -2.846  -7.040   2.810  0.00  0.00    -0.491 OA
ATOM     19  C   UNL     1      -3.842  -7.099   3.833  0.00  0.00    +0.277 C 
ENDBRANCH  16  18
BRANCH  15  20
ATOM     20  O   UNL     1      -0.878  -6.805   0.901  0.00  0.00    -0.491 OA
ATOM     21  C   UNL     1       0.165  -6.622  -0.058  0.00  0.00    +0.277 C 
ENDBRANCH  15  20
ENDBRANCH   9  12
BRANCH   2  22
ATOM     22  O   UNL     1       3.115   2.399   3.115  0.00  0.00    -0.506 OA
ATOM     23  H   UNL     1       2.687   3.043   2.534  0.00  0.00    +0.292 HD
ENDBRANCH   2  22
BRANCH   1  24
ATOM     24  C   UNL     1       2.179  -0.011   2.003  0.00  0.00    -0.036 C 
BRANCH  24  30
ATOM     25  C   UNL     1      -1.115   2.076   0.391  0.00  0.00    +0.005 C 
ATOM     26  C   UNL     1      -1.067   0.558   0.207  0.00  0.00    -0.031 C 
ATOM     27  C   UNL     1      -0.603   0.230  -1.215  0.00  0.00    +0.003 C 
ATOM     28  C   UNL     1       0.822   0.755  -1.411  0.00  0.00    -0.031 C 
ATOM     29  C   UNL     1       1.736   0.142  -0.347  0.00  0.00    -0.075 C 
ATOM     30  N   UNL     1       1.255   0.513   0.989  0.00  0.00    +0.383 N 
ATOM     31  C   UNL     1      -0.084  -0.048   1.211  0.00  0.00    -0.075 C 
ATOM     32  C   UNL     1       1.323   0.365  -2.803  0.00  0.00    +0.005 C 
ATOM     33  H   UNL     1       1.214   1.519   1.063  0.00  0.00    -0.081 HD
ENDBRANCH  24  30
ENDBRANCH   1  24
TORSDOF 6
