REMARK  Name = ZINC64110484
REMARK  7 active torsions:
REMARK  status: ('A' for Active; 'I' for Inactive)
REMARK    1  A    between atoms: C_1  and  C_2
REMARK    2  A    between atoms: C_2  and  C_3
REMARK    3  A    between atoms: C_2  and  C_4
REMARK    4  A    between atoms: C_7  and  C_9
REMARK    5  A    between atoms: C_9  and  N_10
REMARK    6  A    between atoms: C_23  and  C_25
REMARK    7  A    between atoms: N_34  and  C_35
REMARK                            x       y       z     vdW  Elec       q    Type
REMARK                         _______ _______ _______ _____ _____    ______ ____
ROOT
ATOM      1  N   UNL     1      -3.349  -4.505  -0.337  0.00  0.00    -0.288 NA
ATOM      2  C   UNL     1      -4.053  -4.239   0.920  0.00  0.00    +0.090 C 
ATOM      3  C   UNL     1      -3.799  -5.378   1.925  0.00  0.00    +0.049 C 
ATOM      4  C   UNL     1      -4.088  -6.662   1.187  0.00  0.00    -0.036 C 
ATOM      5  C   UNL     1      -4.826  -7.720   1.492  0.00  0.00    -0.001 A 
ATOM      6  C   UNL     1      -5.533  -8.102   2.725  0.00  0.00    +0.010 A 
ATOM      7  C   UNL     1      -6.230  -9.268   2.680  0.00  0.00    +0.001 A 
ATOM      8  C   UNL     1      -6.294 -10.083   1.545  0.00  0.00    +0.002 A 
ATOM      9  C   UNL     1      -5.666  -9.815   0.373  0.00  0.00    +0.026 A 
ATOM     10  C   UNL     1      -4.893  -8.620   0.300  0.00  0.00    +0.043 A 
ATOM     11  N   UNL     1      -4.175  -8.141  -0.674  0.00  0.00    -0.376 N 
ATOM     12  C   UNL     1      -3.511  -6.929  -0.200  0.00  0.00    +0.127 C 
ATOM     13  C   UNL     1      -3.845  -5.697  -1.043  0.00  0.00    +0.122 C 
ATOM     14  H   UNL     1      -4.095  -8.522  -1.562  0.00  0.00    +0.160 HD
ENDROOT
BRANCH  13  15
ATOM     15  C   UNL     1      -3.166  -5.807  -2.410  0.00  0.00    +0.178 C 
ATOM     16  N   UNL     1      -3.693  -6.963  -3.146  0.00  0.00    -0.323 N 
ATOM     17  C   UNL     1      -2.618  -7.830  -3.386  0.00  0.00    +0.050 A 
ATOM     18  C   UNL     1      -2.576  -9.056  -4.039  0.00  0.00    +0.025 A 
ATOM     19  C   UNL     1      -1.382  -9.740  -4.155  0.00  0.00    +0.002 A 
ATOM     20  C   UNL     1      -0.223  -9.208  -3.622  0.00  0.00    +0.002 A 
ATOM     21  C   UNL     1      -0.254  -7.990  -2.971  0.00  0.00    +0.025 A 
ATOM     22  C   UNL     1      -1.451  -7.294  -2.849  0.00  0.00    +0.052 A 
ATOM     23  N   UNL     1      -1.730  -6.060  -2.242  0.00  0.00    -0.312 N 
ATOM     24  C   UNL     1      -0.767  -5.186  -1.567  0.00  0.00    +0.131 C 
ATOM     25  H   UNL     1      -4.614  -7.101  -3.416  0.00  0.00    +0.148 HD
ENDBRANCH  13  15
BRANCH   1  26
ATOM     26  C   UNL     1      -3.371  -3.326  -1.212  0.00  0.00    +0.147 C 
BRANCH  26  30
ATOM     27  C   UNL     1      -1.059  -0.746   0.172  0.00  0.00    +0.051 A 
ATOM     28  C   UNL     1      -1.998  -0.056   0.868  0.00  0.00    +0.070 A 
ATOM     29  S   UNL     1      -3.459  -1.009   0.484  0.00  0.00    -0.079 S 
ATOM     30  C   UNL     1      -2.730  -2.161  -0.503  0.00  0.00    +0.093 A 
ATOM     31  N   UNL     1      -1.472  -1.797  -0.509  0.00  0.00    -0.247 NA
BRANCH  27  33
ATOM     32  C   UNL     1       0.477   1.199   0.229  0.00  0.00    +0.014 C 
ATOM     33  C   UNL     1       0.388  -0.327   0.172  0.00  0.00    +0.032 C 
ATOM     34  C   UNL     1       1.092  -0.925   1.392  0.00  0.00    +0.014 C 
ENDBRANCH  27  33
ENDBRANCH  26  30
ENDBRANCH   1  26
TORSDOF 4
