REMARK  Name = ZINC39327038
REMARK  8 active torsions:
REMARK  status: ('A' for Active; 'I' for Inactive)
REMARK    1  A    between atoms: C_1  and  C_2
REMARK    2  A    between atoms: C_2  and  O_3
REMARK    3  A    between atoms: O_3  and  C_4
REMARK    4  A    between atoms: C_4  and  C_6
REMARK    5  A    between atoms: C_7  and  C_25
REMARK    6  A    between atoms: C_11  and  N_16
REMARK    7  A    between atoms: C_12  and  C_14
REMARK    8  A    between atoms: C_17  and  C_19
REMARK                            x       y       z     vdW  Elec       q    Type
REMARK                         _______ _______ _______ _____ _____    ______ ____
ROOT
ATOM      1  C   UNL     1       1.246  -2.359  -2.576  0.00  0.00    +0.065 C 
ATOM      2  C   UNL     1       1.589  -3.654  -2.541  0.00  0.00    +0.016 C 
ATOM      3  N   UNL     1       2.376  -4.221  -3.514  0.00  0.00    -0.312 N 
ATOM      4  C   UNL     1       2.581  -3.489  -4.660  0.00  0.00    +0.077 A 
ATOM      5  C   UNL     1       2.278  -2.153  -4.814  0.00  0.00    +0.015 A 
ATOM      6  C   UNL     1       2.550  -1.592  -6.050  0.00  0.00    +0.055 A 
ATOM      7  C   UNL     1       3.108  -2.389  -7.049  0.00  0.00    +0.111 A 
ATOM      8  S   UNL     1       3.252  -3.968  -6.224  0.00  0.00    -0.061 S 
ATOM      9  C   UNL     1       1.675  -1.393  -3.641  0.00  0.00    +0.092 C 
ATOM     10  C   UNL     1       1.099  -4.512  -1.403  0.00  0.00    +0.061 C 
ATOM     11  H   UNL     1       2.771  -5.099  -3.398  0.00  0.00    +0.152 HD
ENDROOT
BRANCH   9  12
ATOM     12  C   UNL     1       2.707  -0.450  -3.076  0.00  0.00    -0.032 A 
ATOM     13  C   UNL     1       3.908  -0.930  -2.576  0.00  0.00    +0.024 A 
ATOM     14  C   UNL     1       4.830  -0.036  -2.067  0.00  0.00    +0.111 A 
ATOM     15  N   UNL     1       4.578   1.258  -2.052  0.00  0.00    -0.263 NA
ATOM     16  C   UNL     1       3.447   1.750  -2.519  0.00  0.00    +0.111 A 
ATOM     17  C   UNL     1       2.480   0.917  -3.050  0.00  0.00    +0.024 A 
ENDBRANCH   9  12
BRANCH   6  18
ATOM     18  N   UNL     1       2.270  -0.248  -6.293  0.00  0.00    -0.356 N 
ATOM     19  H   UNL     1       1.882   0.300  -5.594  0.00  0.00    +0.142 HD
ATOM     20  H   UNL     1       2.464   0.138  -7.162  0.00  0.00    +0.142 HD
ENDBRANCH   6  18
BRANCH   1  21
ATOM     21  C   UNL     1       0.418  -1.871  -1.542  0.00  0.00    +0.338 C 
ATOM     22  O   UNL     1      -0.779  -1.750  -1.726  0.00  0.00    -0.245 OA
BRANCH  21  23
ATOM     23  O   UNL     1       0.954  -1.538  -0.349  0.00  0.00    -0.462 OA
BRANCH  23  25
ATOM     24  C   UNL     1       0.842  -0.728   1.926  0.00  0.00    +0.048 C 
ATOM     25  C   UNL     1       0.058  -1.051   0.652  0.00  0.00    +0.229 C 
ENDBRANCH  23  25
ENDBRANCH  21  23
ENDBRANCH   1  21
BRANCH   7  26
ATOM     26  C   UNL     1       3.471  -2.035  -8.388  0.00  0.00    +0.108 C 
ATOM     27  N   UNL     1       3.759  -1.754  -9.450  0.00  0.00    -0.190 NA
ENDBRANCH   7  26
TORSDOF 6
