REMARK  Name = ZINC05379475
REMARK  5 active torsions:
REMARK  status: ('A' for Active; 'I' for Inactive)
REMARK    1  A    between atoms: C_1  and  C_2
REMARK    2  A    between atoms: C_4  and  C_21
REMARK    3  A    between atoms: N_8  and  N_9
REMARK    4  A    between atoms: C_10  and  C_11
REMARK    5  A    between atoms: C_13  and  N_18
REMARK                            x       y       z     vdW  Elec       q    Type
REMARK                         _______ _______ _______ _____ _____    ______ ____
ROOT
ATOM      1  N   UNL     1      -1.212  -2.133   0.407  0.00  0.00    -0.187 NA
ATOM      2  C   UNL     1      -2.316  -2.747   0.107  0.00  0.00    +0.139 C 
ENDROOT
BRANCH   1  10
ATOM      3  C   UNL     1       3.524  -0.699   0.653  0.00  0.00    +0.066 C 
ATOM      4  C   UNL     1       2.215  -0.062   1.041  0.00  0.00    +0.044 A 
ATOM      5  C   UNL     1       2.190   1.206   1.603  0.00  0.00    +0.046 A 
ATOM      6  C   UNL     1       0.964   1.755   1.946  0.00  0.00    +0.044 A 
ATOM      7  N   UNL     1      -0.139   1.058   1.728  0.00  0.00    -0.218 NA
ATOM      8  C   UNL     1      -0.080  -0.151   1.189  0.00  0.00    +0.235 A 
ATOM      9  N   UNL     1       1.075  -0.705   0.850  0.00  0.00    -0.218 NA
ATOM     10  N   UNL     1      -1.255  -0.853   0.976  0.00  0.00    -0.205 N 
ATOM     11  C   UNL     1       0.889   3.130   2.558  0.00  0.00    +0.066 C 
ATOM     12  H   UNL     1      -2.107  -0.459   1.220  0.00  0.00    +0.177 HD
ENDBRANCH   1  10
BRANCH   2  13
ATOM     13  C   UNL     1      -3.595  -2.014   0.124  0.00  0.00    +0.015 A 
ATOM     14  C   UNL     1      -3.615  -0.631  -0.078  0.00  0.00    +0.043 A 
ATOM     15  C   UNL     1      -4.815   0.047  -0.066  0.00  0.00    +0.127 A 
ATOM     16  C   UNL     1      -5.998  -0.636   0.156  0.00  0.00    +0.034 A 
ATOM     17  C   UNL     1      -5.987  -2.004   0.361  0.00  0.00    +0.023 A 
ATOM     18  C   UNL     1      -4.794  -2.697   0.347  0.00  0.00    +0.050 A 
ATOM     19 CL   UNL     1      -4.781  -4.414   0.607  0.00  0.00    -0.083 Cl
BRANCH  15  20
ATOM     20  N   UNL     1      -4.838   1.511  -0.286  0.00  0.00    +0.056 N 
ATOM     21  O   UNL     1      -5.897   2.112  -0.271  0.00  0.00    -0.126 OA
ATOM     22  O   UNL     1      -3.798   2.114  -0.481  0.00  0.00    -0.126 OA
ENDBRANCH  15  20
ENDBRANCH   2  13
TORSDOF 3
