REMARK  Name = ZINC55104180
REMARK  5 active torsions:
REMARK  status: ('A' for Active; 'I' for Inactive)
REMARK    1  A    between atoms: C_10  and  C_11
REMARK    2  A    between atoms: C_11  and  N_12
REMARK    3  A    between atoms: C_13  and  C_15
REMARK    4  A    between atoms: C_15  and  O_33
REMARK    5  A    between atoms: N_25  and  C_26
REMARK                            x       y       z     vdW  Elec       q    Type
REMARK                         _______ _______ _______ _____ _____    ______ ____
ROOT
ATOM      1  C   UNL     1       6.231   1.411   2.729  0.00  0.00    +0.247 C 
ATOM      2  C   UNL     1       5.226   2.459   3.146  0.00  0.00    +0.033 A 
ATOM      3  C   UNL     1       4.609   3.268   2.219  0.00  0.00    +0.010 A 
ATOM      4  C   UNL     1       3.693   4.217   2.637  0.00  0.00    +0.001 A 
ATOM      5  C   UNL     1       3.400   4.351   3.982  0.00  0.00    +0.002 A 
ATOM      6  C   UNL     1       4.017   3.541   4.915  0.00  0.00    +0.024 A 
ATOM      7  C   UNL     1       4.937   2.587   4.500  0.00  0.00    +0.043 A 
ATOM      8  N   UNL     1       5.571   1.759   5.427  0.00  0.00    -0.269 N 
ATOM      9  C   UNL     1       6.465   0.825   5.077  0.00  0.00    +0.314 C 
ATOM     10  O   UNL     1       6.968   0.148   5.953  0.00  0.00    -0.252 OA
ATOM     11  N   UNL     1       6.831   0.600   3.802  0.00  0.00    -0.214 N 
ATOM     12  H   UNL     1       5.355   1.864   6.366  0.00  0.00    +0.156 HD
ENDROOT
BRANCH  11  13
ATOM     13  C   UNL     1       7.770  -0.392   3.499  0.00  0.00    +0.043 A 
ATOM     14  C   UNL     1       9.111  -0.060   3.353  0.00  0.00    +0.024 A 
ATOM     15  C   UNL     1      10.036  -1.041   3.054  0.00  0.00    +0.003 A 
ATOM     16  C   UNL     1       9.630  -2.354   2.902  0.00  0.00    +0.020 A 
ATOM     17  C   UNL     1       8.295  -2.689   3.047  0.00  0.00    +0.043 A 
ATOM     18  C   UNL     1       7.365  -1.712   3.351  0.00  0.00    +0.043 A 
ATOM     19 CL   UNL     1       7.788  -4.338   2.854  0.00  0.00    -0.083 Cl
ENDBRANCH  11  13
BRANCH   1  21
ATOM     20  N   UNL     1       4.558  -0.329   2.188  0.00  0.00    -0.307 N 
ATOM     21  C   UNL     1       5.553   0.475   1.762  0.00  0.00    +0.269 C 
ATOM     22  O   UNL     1       5.903   0.444   0.602  0.00  0.00    -0.270 OA
ATOM     23  H   UNL     1       4.279  -0.304   3.116  0.00  0.00    +0.149 HD
BRANCH  20  24
ATOM     24  C   UNL     1       3.899  -1.239   1.248  0.00  0.00    +0.140 C 
BRANCH  24  34
ATOM     25  C   UNL     1      -0.908  -0.324   2.751  0.00  0.00    +0.001 A 
ATOM     26  C   UNL     1       0.068   0.414   2.083  0.00  0.00    +0.001 A 
ATOM     27  C   UNL     1       1.292  -0.120   1.819  0.00  0.00    +0.009 A 
ATOM     28  C   UNL     1       1.579  -1.434   2.225  0.00  0.00    -0.013 A 
ATOM     29  C   UNL     1       0.587  -2.184   2.905  0.00  0.00    -0.018 A 
ATOM     30  C   UNL     1      -0.665  -1.599   3.159  0.00  0.00    +0.008 A 
ATOM     31  C   UNL     1       0.875  -3.498   3.311  0.00  0.00    +0.008 A 
ATOM     32  C   UNL     1       2.099  -4.032   3.047  0.00  0.00    +0.001 A 
ATOM     33  C   UNL     1       3.074  -3.295   2.379  0.00  0.00    +0.006 A 
ATOM     34  C   UNL     1       2.831  -2.019   1.970  0.00  0.00    -0.023 A 
ENDBRANCH  24  34
ENDBRANCH  20  24
ENDBRANCH   1  21
BRANCH   1  35
ATOM     35  O   UNL     1       7.290   2.069   2.030  0.00  0.00    -0.360 OA
ATOM     36  H   UNL     1       6.996   2.586   1.268  0.00  0.00    +0.213 HD
ENDBRANCH   1  35
TORSDOF 5
