REMARK  Name = ZINC06452242
REMARK  11 active torsions:
REMARK  status: ('A' for Active; 'I' for Inactive)
REMARK    1  A    between atoms: C_1  and  C_2
REMARK    2  A    between atoms: C_9  and  C_29
REMARK    3  A    between atoms: C_10  and  C_17
REMARK    4  A    between atoms: C_15  and  C_16
REMARK    5  A    between atoms: C_17  and  C_18
REMARK    6  A    between atoms: N_20  and  CA_21
REMARK    7  A    between atoms: CA_21  and  CB_23
REMARK    8  A    between atoms: CA_21  and  C_27
REMARK    9  A    between atoms: CB_23  and  CG_24
REMARK   10  A    between atoms: CG_24  and  CD1_25
REMARK   11  A    between atoms: CG_24  and  CD2_26
REMARK                            x       y       z     vdW  Elec       q    Type
REMARK                         _______ _______ _______ _____ _____    ______ ____
ROOT
ATOM      1  C   UNK A   0      -7.269   3.635   3.222  0.00  0.00    +0.047 C 
ATOM      2  C   UNK A   0      -6.033   3.696   4.082  0.00  0.00    -0.005 A 
ATOM      3  C   UNK A   0      -5.964   4.073   5.365  0.00  0.00    +0.199 A 
ATOM      4  O   UNK A   0      -4.695   4.002   5.804  0.00  0.00    -0.462 OA
ATOM      5  C   UNK A   0      -3.869   3.574   4.827  0.00  0.00    +0.141 A 
ATOM      6  C   UNK A   0      -4.661   3.354   3.682  0.00  0.00    +0.024 A 
ATOM      7  C   UNK A   0      -4.083   2.905   2.502  0.00  0.00    +0.023 A 
ATOM      8  C   UNK A   0      -2.708   2.671   2.462  0.00  0.00    +0.022 A 
ATOM      9  C   UNK A   0      -2.064   2.203   1.231  0.00  0.00    -0.029 A 
ATOM     10  C   UNK A   0      -0.724   1.989   1.250  0.00  0.00    +0.049 A 
ATOM     11  C   UNK A   0       0.008   2.228   2.433  0.00  0.00    +0.341 A 
ATOM     12  O   UNK A   0       1.211   2.036   2.434  0.00  0.00    -0.245 OA
ATOM     13  O   UNK A   0      -0.585   2.662   3.555  0.00  0.00    -0.422 OA
ATOM     14  C   UNK A   0      -1.917   2.891   3.608  0.00  0.00    +0.146 A 
ATOM     15  C   UNK A   0      -2.503   3.339   4.779  0.00  0.00    +0.035 A 
ATOM     16  C   UNK A   0      -1.656   3.572   6.003  0.00  0.00    +0.051 C 
ATOM     17  C   UNK A   0      -2.868   1.961  -0.020  0.00  0.00    +0.045 C 
ENDROOT
BRANCH  10  18
ATOM     18  C   UNK A   0      -0.018   1.503   0.010  0.00  0.00    +0.138 C 
BRANCH  18  19
ATOM     19  C   UNK A   0       0.002  -0.004   0.002  0.00  0.00    +0.218 C 
ATOM     20  O   UNK A   0      -0.506  -0.622   0.913  0.00  0.00    -0.275 OA
ATOM     21  N   LEU A   1       0.585  -0.664  -1.018  0.00  0.00    -0.302 N 
ATOM     22  H   LEU A   1       0.992  -0.170  -1.747  0.00  0.00    +0.150 HD
BRANCH  21  23
ATOM     23  CA  LEU A   1       0.605  -2.129  -1.026  0.00  0.00    +0.186 C 
BRANCH  23  24
ATOM     24  C   LEU A   1      -0.681  -2.646  -1.617  0.00  0.00    +0.376 C 
ATOM     25  O   LEU A   1      -1.528  -1.870  -1.993  0.00  0.00    -0.244 OA
ATOM     26  OXT LEU A   1      -0.887  -3.968  -1.726  0.00  0.00    -0.244 OA
ENDBRANCH  23  24
BRANCH  23  27
ATOM     27  CB  LEU A   1       1.785  -2.619  -1.867  0.00  0.00    +0.037 C 
BRANCH  27  28
ATOM     28  CG  LEU A   1       3.096  -2.200  -1.199  0.00  0.00    -0.015 C 
ATOM     29  CD1 LEU A   1       3.234  -2.915   0.146  0.00  0.00    +0.007 C 
ATOM     30  CD2 LEU A   1       4.273  -2.579  -2.101  0.00  0.00    +0.007 C 
ENDBRANCH  27  28
ENDBRANCH  23  27
ENDBRANCH  21  23
ENDBRANCH  18  19
ENDBRANCH  10  18
TORSDOF 6
