REMARK  Name = ZINC08642556
REMARK  6 active torsions:
REMARK  status: ('A' for Active; 'I' for Inactive)
REMARK    1  A    between atoms: C_1  and  C_2
REMARK    2  A    between atoms: C_3  and  C_8
REMARK    3  A    between atoms: C_4  and  C_7
REMARK    4  A    between atoms: C_8  and  S_9
REMARK    5  A    between atoms: S_9  and  C_10
REMARK    6  A    between atoms: N_20  and  C_21
REMARK                            x       y       z     vdW  Elec       q    Type
REMARK                         _______ _______ _______ _____ _____    ______ ____
ROOT
ATOM      1  C   UNL     1       1.598   1.121  -4.784  0.00  0.00    +0.179 A 
ATOM      2  N   UNL     1       0.393   1.305  -5.275  0.00  0.00    -0.204 NA
ATOM      3  C   UNL     1       0.125   1.058  -6.565  0.00  0.00    +0.164 A 
ATOM      4  C   UNL     1       1.149   0.596  -7.408  0.00  0.00    +0.103 A 
ATOM      5  C   UNL     1       0.586   0.425  -8.690  0.00  0.00    +0.149 A 
ATOM      6  N   UNL     1      -0.673   0.756  -8.633  0.00  0.00    -0.180 NA
ATOM      7  N   UNL     1      -0.996   1.154  -7.330  0.00  0.00    -0.260 N 
ATOM      8  H   UNL     1      -1.868   1.448  -7.025  0.00  0.00    +0.191 HD
ATOM      9  C   UNL     1       2.443   0.402  -6.864  0.00  0.00    +0.270 A 
ATOM     10  O   UNL     1       3.360   0.002  -7.560  0.00  0.00    -0.266 OA
ATOM     11  N   UNL     1       2.636   0.678  -5.555  0.00  0.00    -0.255 N 
ENDROOT
BRANCH  11  12
ATOM     12  C   UNL     1       3.904   0.504  -4.985  0.00  0.00    +0.052 A 
ATOM     13  C   UNL     1       4.254  -0.718  -4.427  0.00  0.00    +0.026 A 
ATOM     14  C   UNL     1       5.505  -0.887  -3.866  0.00  0.00    +0.002 A 
ATOM     15  C   UNL     1       6.408   0.160  -3.859  0.00  0.00    +0.000 A 
ATOM     16  C   UNL     1       6.062   1.378  -4.414  0.00  0.00    +0.002 A 
ATOM     17  C   UNL     1       4.815   1.552  -4.981  0.00  0.00    +0.026 A 
ENDBRANCH  11  12
BRANCH   1  18
ATOM     18  S   UNL     1       1.886   1.463  -3.079  0.00  0.00    -0.082 S 
BRANCH  18  19
ATOM     19  C   UNL     1       0.270   2.011  -2.463  0.00  0.00    +0.117 C 
BRANCH  19  22
ATOM     20  C   UNL     1       1.002   4.848  -1.237  0.00  0.00    +0.069 C 
ATOM     21  C   UNL     1       0.702   3.596  -0.453  0.00  0.00    +0.085 A 
ATOM     22  C   UNL     1       0.378   2.340  -0.996  0.00  0.00    +0.027 A 
ATOM     23  C   UNL     1       0.179   1.482   0.023  0.00  0.00    +0.138 A 
ATOM     24  O   UNL     1       0.366   2.151   1.171  0.00  0.00    -0.359 OA
ATOM     25  N   UNL     1       0.702   3.488   0.845  0.00  0.00    -0.083 NA
ATOM     26  C   UNL     1      -0.188   0.026  -0.103  0.00  0.00    +0.089 C 
ENDBRANCH  19  22
ENDBRANCH  18  19
ENDBRANCH   1  18
TORSDOF 4
