REMARK  Name = ZINC13127315
REMARK  5 active torsions:
REMARK  status: ('A' for Active; 'I' for Inactive)
REMARK    1  A    between atoms: C_1  and  O_2
REMARK    2  A    between atoms: O_2  and  C_3
REMARK    3  A    between atoms: C_6  and  C_9
REMARK    4  A    between atoms: C_12  and  C_28
REMARK    5  A    between atoms: C_21  and  C_23
REMARK                            x       y       z     vdW  Elec       q    Type
REMARK                         _______ _______ _______ _____ _____    ______ ____
ROOT
ATOM      1  C   UNL     1      -4.981  -2.629   0.035  0.00  0.00    +0.143 C 
ATOM      2  C   UNL     1      -5.106  -3.512  -1.213  0.00  0.00    +0.058 C 
ATOM      3  C   UNL     1      -6.324  -4.431  -1.077  0.00  0.00    +0.106 C 
ATOM      4  N   UNL     1      -6.117  -5.320   0.083  0.00  0.00    -0.307 N 
ATOM      5  C   UNL     1      -5.609  -4.723   1.229  0.00  0.00    +0.216 A 
ATOM      6  N   UNL     1      -5.082  -3.473   1.225  0.00  0.00    -0.224 N 
ATOM      7  N   UNL     1      -4.683  -3.201   2.534  0.00  0.00    -0.131 NA
ATOM      8  C   UNL     1      -4.977  -4.265   3.249  0.00  0.00    +0.243 A 
ATOM      9  N   UNL     1      -5.537  -5.190   2.447  0.00  0.00    -0.180 NA
ATOM     10  N   UNL     1      -4.741  -4.413   4.618  0.00  0.00    -0.247 N 
ATOM     11  C   UNL     1      -5.088  -5.556   5.242  0.00  0.00    +0.286 C 
ATOM     12  O   UNL     1      -5.607  -6.459   4.613  0.00  0.00    -0.266 OA
ATOM     13  H   UNL     1      -6.323  -6.267   0.046  0.00  0.00    +0.149 HD
ATOM     14  H   UNL     1      -4.327  -3.693   5.119  0.00  0.00    +0.158 HD
ENDROOT
BRANCH   1  18
ATOM     15  C   UNL     1      -1.200  -0.637   0.010  0.00  0.00    +0.120 A 
ATOM     16  C   UNL     1      -2.375   0.101   0.019  0.00  0.00    +0.046 A 
ATOM     17  C   UNL     1      -3.596  -0.545   0.027  0.00  0.00    +0.009 A 
ATOM     18  C   UNL     1      -3.648  -1.927   0.026  0.00  0.00    -0.023 A 
ATOM     19  C   UNL     1      -2.479  -2.665   0.017  0.00  0.00    +0.009 A 
ATOM     20  C   UNL     1      -1.255  -2.024   0.003  0.00  0.00    +0.046 A 
BRANCH  15  22
ATOM     21  C   UNL     1      -0.017   1.425   0.010  0.00  0.00    +0.277 C 
ATOM     22  O   UNL     1       0.002  -0.004   0.002  0.00  0.00    -0.495 OA
ENDBRANCH  15  22
ENDBRANCH   1  18
BRANCH   3  23
ATOM     23  C   UNL     1      -7.564  -3.601  -0.868  0.00  0.00    -0.027 A 
ATOM     24  C   UNL     1      -7.850  -3.089   0.384  0.00  0.00    +0.005 A 
ATOM     25  C   UNL     1      -8.987  -2.327   0.577  0.00  0.00    +0.000 A 
ATOM     26  C   UNL     1      -9.838  -2.076  -0.483  0.00  0.00    +0.000 A 
ATOM     27  C   UNL     1      -9.552  -2.587  -1.736  0.00  0.00    +0.000 A 
ATOM     28  C   UNL     1      -8.413  -3.346  -1.929  0.00  0.00    +0.005 A 
ENDBRANCH   3  23
BRANCH  11  29
ATOM     29  C   UNL     1      -4.840  -5.711   6.679  0.00  0.00    +0.189 A 
ATOM     30  C   UNL     1      -5.136  -6.812   7.430  0.00  0.00    +0.054 A 
ATOM     31  C   UNL     1      -4.731  -6.526   8.743  0.00  0.00    +0.042 A 
ATOM     32  C   UNL     1      -4.212  -5.278   8.736  0.00  0.00    +0.196 A 
ATOM     33  O   UNL     1      -4.274  -4.792   7.489  0.00  0.00    -0.458 OA
ENDBRANCH  11  29
TORSDOF 4
