REMARK  Name = ZINC53993855
REMARK  5 active torsions:
REMARK  status: ('A' for Active; 'I' for Inactive)
REMARK    1  A    between atoms: C_3  and  S_8
REMARK    2  A    between atoms: C_6  and  N_7
REMARK    3  A    between atoms: S_8  and  N_11
REMARK    4  A    between atoms: C_14  and  C_17
REMARK    5  A    between atoms: C_19  and  C_22
REMARK                            x       y       z     vdW  Elec       q    Type
REMARK                         _______ _______ _______ _____ _____    ______ ____
ROOT
ATOM      1  N   UNL     1       4.326   2.562   1.555  0.00  0.00    -0.177 NA
ATOM      2  C   UNL     1       3.870   3.754   2.282  0.00  0.00    +0.110 C 
ATOM      3  C   UNL     1       5.090   4.466   2.876  0.00  0.00    +0.030 C 
ATOM      4  C   UNL     1       5.888   3.476   3.728  0.00  0.00    +0.080 C 
ATOM      5  C   UNL     1       6.381   2.325   2.849  0.00  0.00    +0.030 C 
ATOM      6  C   UNL     1       5.172   1.586   2.256  0.00  0.00    +0.110 C 
ENDROOT
BRANCH   4   7
ATOM      7  C   UNL     1       7.070   4.182   4.342  0.00  0.00    +0.231 A 
ATOM      8  N   UNL     1       7.306   4.301   5.616  0.00  0.00    -0.188 NA
ATOM      9  C   UNL     1       8.448   4.989   5.811  0.00  0.00    +0.237 A 
ATOM     10  N   UNL     1       8.946   5.313   4.640  0.00  0.00    -0.053 NA
ATOM     11  O   UNL     1       8.057   4.786   3.667  0.00  0.00    -0.337 OA
BRANCH   9  12
ATOM     12  C   UNL     1       9.040   5.324   7.122  0.00  0.00    +0.177 A 
ATOM     13  C   UNL     1      10.189   6.023   7.324  0.00  0.00    +0.054 A 
ATOM     14  C   UNL     1      10.373   6.108   8.717  0.00  0.00    +0.057 A 
ATOM     15  C   UNL     1       9.337   5.462   9.293  0.00  0.00    +0.171 A 
ATOM     16  O   UNL     1       8.531   4.995   8.327  0.00  0.00    -0.445 OA
ATOM     17 BR   UNL     1       9.062   5.256  11.153  0.00  0.00    -0.008 Br
ENDBRANCH   9  12
ENDBRANCH   4   7
BRANCH   1  18
ATOM     18  S   UNL     1       3.890   2.319  -0.024  0.00  0.00    +0.061 S 
ATOM     19  O   UNL     1       4.872   1.461  -0.589  0.00  0.00    -0.153 OA
ATOM     20  O   UNL     1       3.595   3.599  -0.566  0.00  0.00    -0.153 OA
BRANCH  18  23
ATOM     21  C   UNL     1      -0.017   1.385   0.010  0.00  0.00    +0.024 A 
ATOM     22  C   UNL     1       1.171   2.090   0.002  0.00  0.00    +0.030 A 
ATOM     23  C   UNL     1       2.377   1.415  -0.013  0.00  0.00    +0.106 A 
ATOM     24  C   UNL     1       2.400   0.032  -0.021  0.00  0.00    +0.030 A 
ATOM     25  C   UNL     1       1.216  -0.679  -0.014  0.00  0.00    +0.024 A 
ATOM     26  C   UNL     1       0.002  -0.004   0.002  0.00  0.00    +0.025 A 
BRANCH  26  27
ATOM     27  N   UNL     1      -1.197  -0.720   0.010  0.00  0.00    -0.358 N 
ATOM     28  H   UNL     1      -2.044  -0.248   0.021  0.00  0.00    +0.142 HD
ATOM     29  H   UNL     1      -1.183  -1.690   0.005  0.00  0.00    +0.142 HD
ENDBRANCH  26  27
ENDBRANCH  18  23
ENDBRANCH   1  18
TORSDOF 5
