REMARK  Name = ZINC06720227
REMARK  6 active torsions:
REMARK  status: ('A' for Active; 'I' for Inactive)
REMARK    1  A    between atoms: C_6  and  C_11
REMARK    2  A    between atoms: C_17  and  C_25
REMARK    3  A    between atoms: C_19  and  C_23
REMARK    4  A    between atoms: C_20  and  N_22
REMARK    5  A    between atoms: C_28  and  O_32
REMARK    6  A    between atoms: C_29  and  O_31
REMARK                            x       y       z     vdW  Elec       q    Type
REMARK                         _______ _______ _______ _____ _____    ______ ____
ROOT
ATOM      1  C   UNL     1       4.970  -2.712  -0.060  0.00  0.00    +0.084 C 
ATOM      2  N   UNL     1       6.161  -2.184  -0.154  0.00  0.00    -0.150 NA
ATOM      3  N   UNL     1       7.171  -3.145  -0.106  0.00  0.00    -0.115 NA
ATOM      4  C   UNL     1       6.703  -4.328   0.079  0.00  0.00    +0.227 C 
ATOM      5  C   UNL     1       5.182  -4.206   0.036  0.00  0.00    +0.140 C 
ATOM      6  C   UNL     1       4.679  -4.745   1.380  0.00  0.00    +0.082 C 
ATOM      7  C   UNL     1       5.458  -5.983   1.736  0.00  0.00    +0.095 C 
ATOM      8  C   UNL     1       6.667  -6.294   1.225  0.00  0.00    +0.200 C 
ATOM      9  O   UNL     1       7.301  -5.517   0.304  0.00  0.00    -0.425 OA
ENDROOT
BRANCH   1  15
ATOM     10  C   UNL     1      -0.048   1.291   0.412  0.00  0.00    +0.001 A 
ATOM     11  C   UNL     1       1.102   1.954   0.836  0.00  0.00    +0.001 A 
ATOM     12  C   UNL     1       2.311   1.328   0.836  0.00  0.00    +0.008 A 
ATOM     13  C   UNL     1       2.403  -0.007   0.403  0.00  0.00    -0.017 A 
ATOM     14  C   UNL     1       3.633  -0.681   0.391  0.00  0.00    +0.018 A 
ATOM     15  C   UNL     1       3.684  -1.998  -0.043  0.00  0.00    -0.001 A 
ATOM     16  C   UNL     1       2.513  -2.656  -0.469  0.00  0.00    +0.010 A 
ATOM     17  C   UNL     1       1.317  -2.017  -0.463  0.00  0.00    +0.009 A 
ATOM     18  C   UNL     1       1.232  -0.681  -0.028  0.00  0.00    -0.018 A 
ATOM     19  C   UNL     1       0.004  -0.001  -0.014  0.00  0.00    +0.008 A 
ENDBRANCH   1  15
BRANCH   6  20
ATOM     20  C   UNL     1       3.214  -5.082   1.272  0.00  0.00    -0.034 A 
ATOM     21  C   UNL     1       2.790  -6.029   0.359  0.00  0.00    +0.008 A 
ATOM     22  C   UNL     1       1.447  -6.342   0.256  0.00  0.00    +0.049 A 
ATOM     23  C   UNL     1       0.523  -5.706   1.069  0.00  0.00    +0.158 A 
ATOM     24  C   UNL     1       0.950  -4.753   1.989  0.00  0.00    +0.158 A 
ATOM     25  C   UNL     1       2.298  -4.447   2.091  0.00  0.00    +0.053 A 
BRANCH  24  26
ATOM     26  O   UNL     1       0.047  -4.126   2.790  0.00  0.00    -0.503 OA
ATOM     27  H   UNL     1      -0.113  -4.577   3.630  0.00  0.00    +0.292 HD
ENDBRANCH  24  26
BRANCH  23  28
ATOM     28  O   UNL     1      -0.798  -6.012   0.969  0.00  0.00    -0.503 OA
ATOM     29  H   UNL     1      -1.079  -6.734   1.548  0.00  0.00    +0.292 HD
ENDBRANCH  23  28
ENDBRANCH   6  20
BRANCH   8  30
ATOM     30  N   UNL     1       7.281  -7.447   1.646  0.00  0.00    -0.328 N 
ATOM     31  H   UNL     1       6.846  -8.018   2.298  0.00  0.00    +0.145 HD
ATOM     32  H   UNL     1       8.151  -7.690   1.292  0.00  0.00    +0.145 HD
ENDBRANCH   8  30
BRANCH   7  33
ATOM     33  C   UNL     1       4.877  -6.890   2.679  0.00  0.00    +0.100 C 
ATOM     34  N   UNL     1       4.416  -7.610   3.427  0.00  0.00    -0.191 NA
ENDBRANCH   7  33
TORSDOF 6
