REMARK  Name = ZINC09949275
REMARK  5 active torsions:
REMARK  status: ('A' for Active; 'I' for Inactive)
REMARK    1  A    between atoms: C_1  and  C_2
REMARK    2  A    between atoms: C_10  and  C_13
REMARK    3  A    between atoms: C_13  and  N_14
REMARK    4  A    between atoms: C_17  and  C_21
REMARK    5  A    between atoms: C_17  and  C_22
REMARK                            x       y       z     vdW  Elec       q    Type
REMARK                         _______ _______ _______ _____ _____    ______ ____
ROOT
ATOM      1  N   UNL     1       4.003  -1.036  -1.421  0.00  0.00    -0.218 N 
ATOM      2  C   UNL     1       3.637  -2.118  -2.136  0.00  0.00    +0.254 C 
ATOM      3  O   UNL     1       2.938  -3.037  -1.767  0.00  0.00    -0.272 OA
ATOM      4  C   UNL     1       4.280  -1.947  -3.498  0.00  0.00    +0.168 C 
ATOM      5  N   UNL     1       5.008  -0.671  -3.379  0.00  0.00    -0.279 N 
ATOM      6  C   UNL     1       4.785  -0.216  -2.133  0.00  0.00    +0.310 C 
ATOM      7  O   UNL     1       5.244   0.823  -1.701  0.00  0.00    -0.252 OA
ATOM      8  C   UNL     1       3.216  -1.859  -4.593  0.00  0.00    +0.050 C 
ATOM      9  H   UNL     1       5.543  -0.243  -4.065  0.00  0.00    +0.152 HD
ENDROOT
BRANCH   4  10
ATOM     10  C   UNL     1       5.236  -3.079  -3.774  0.00  0.00    +0.137 A 
ATOM     11  C   UNL     1       6.388  -2.985  -4.462  0.00  0.00    +0.047 A 
ATOM     12  C   UNL     1       6.962  -4.277  -4.479  0.00  0.00    +0.041 A 
ATOM     13  C   UNL     1       6.125  -5.083  -3.800  0.00  0.00    +0.195 A 
ATOM     14  O   UNL     1       5.085  -4.351  -3.371  0.00  0.00    -0.465 OA
ENDBRANCH   4  10
BRANCH   1  15
ATOM     15  C   UNL     1       3.598  -0.789  -0.035  0.00  0.00    +0.174 C 
BRANCH  15  25
ATOM     16  C   UNL     1       1.234   3.619   0.009  0.00  0.00    +0.046 C 
ATOM     17  C   UNL     1       1.204   2.112   0.002  0.00  0.00    -0.021 A 
ATOM     18  C   UNL     1      -0.017   1.413   0.010  0.00  0.00    +0.005 A 
ATOM     19  C   UNL     1      -1.247   2.090   0.031  0.00  0.00    +0.010 A 
ATOM     20  C   UNL     1      -2.407   1.378   0.032  0.00  0.00    +0.001 A 
ATOM     21  C   UNL     1      -2.391  -0.016   0.025  0.00  0.00    +0.002 A 
ATOM     22  C   UNL     1      -1.217  -0.704   0.010  0.00  0.00    +0.028 A 
ATOM     23  C   UNL     1       0.002  -0.004   0.002  0.00  0.00    +0.072 A 
ATOM     24  N   UNL     1       1.170  -0.654  -0.012  0.00  0.00    -0.249 NA
ATOM     25  C   UNL     1       2.310  -0.007  -0.019  0.00  0.00    +0.078 A 
ATOM     26  C   UNL     1       2.362   1.387  -0.012  0.00  0.00    +0.067 A 
ATOM     27 CL   UNL     1       3.897   2.199  -0.021  0.00  0.00    -0.081 Cl
ENDBRANCH  15  25
ENDBRANCH   1  15
TORSDOF 3
