REMARK  Name = ZINC48619137
REMARK  3 active torsions:
REMARK  status: ('A' for Active; 'I' for Inactive)
REMARK    1  A    between atoms: C_5  and  S_6
REMARK    2  A    between atoms: S_6  and  N_9
REMARK    3  A    between atoms: C_10  and  C_12
REMARK                            x       y       z     vdW  Elec       q    Type
REMARK                         _______ _______ _______ _____ _____    ______ ____
ROOT
ATOM      1  N   UNL     1      -1.743  -1.437  -1.571  0.00  0.00    -0.085 NA
ATOM      2  C   UNL     1      -2.721  -2.248  -1.855  0.00  0.00    +0.297 C 
ATOM      3  O   UNL     1      -3.417  -2.841  -0.859  0.00  0.00    -0.264 OA
ENDROOT
BRANCH   2   4
ATOM      4  C   UNL     1      -3.070  -2.520  -3.264  0.00  0.00    +0.060 A 
ATOM      5  C   UNL     1      -2.341  -1.906  -4.310  0.00  0.00    +0.040 A 
ATOM      6  C   UNL     1      -2.683  -2.174  -5.599  0.00  0.00    +0.106 A 
ATOM      7  C   UNL     1      -3.751  -3.053  -5.865  0.00  0.00    +0.267 A 
ATOM      8  O   UNL     1      -4.062  -3.298  -7.019  0.00  0.00    -0.266 OA
ATOM      9  N   UNL     1      -4.430  -3.625  -4.854  0.00  0.00    -0.327 N 
ATOM     10  H   UNL     1      -5.163  -4.228  -5.052  0.00  0.00    +0.168 HD
ATOM     11  C   UNL     1      -4.104  -3.377  -3.570  0.00  0.00    +0.099 A 
ATOM     12 CL   UNL     1      -1.810  -1.438  -6.907  0.00  0.00    -0.078 Cl
ENDBRANCH   2   4
BRANCH   1  13
ATOM     13  S   UNL     1      -1.352  -1.132   0.009  0.00  0.00    +0.108 S 
ATOM     14  O   UNL     1      -0.861  -2.352   0.548  0.00  0.00    -0.146 OA
ATOM     15  O   UNL     1      -2.455  -0.438   0.574  0.00  0.00    -0.146 OA
BRANCH  13  20
ATOM     16  C   UNL     1      -0.016   1.351   0.009  0.00  0.00    +0.038 A 
ATOM     17  C   UNL     1       1.184   2.038   0.002  0.00  0.00    +0.030 A 
ATOM     18  C   UNL     1       2.343   1.335  -0.013  0.00  0.00    +0.080 A 
ATOM     19  S   UNL     1       1.753  -0.350  -0.017  0.00  0.00    -0.056 S 
ATOM     20  C   UNL     1       0.002  -0.004   0.002  0.00  0.00    +0.151 A 
ATOM     21 CL   UNL     1       3.977   1.921  -0.026  0.00  0.00    -0.076 Cl
ENDBRANCH  13  20
ENDBRANCH   1  13
TORSDOF 3
