REMARK  Name = ZINC64794714
REMARK  5 active torsions:
REMARK  status: ('A' for Active; 'I' for Inactive)
REMARK    1  A    between atoms: C_1  and  C_2
REMARK    2  A    between atoms: C_2  and  C_4
REMARK    3  A    between atoms: C_2  and  N_15
REMARK    4  A    between atoms: C_16  and  C_18
REMARK    5  A    between atoms: C_18  and  N_19
REMARK                            x       y       z     vdW  Elec       q    Type
REMARK                         _______ _______ _______ _____ _____    ______ ____
ROOT
ATOM      1  N   UNL     1       0.688  -0.476  -1.203  0.00  0.00    -0.307 N 
ATOM      2  C   UNL     1       0.006  -0.608  -2.358  0.00  0.00    +0.233 C 
ATOM      3  O   UNL     1      -1.175  -0.336  -2.400  0.00  0.00    -0.274 OA
ATOM      4  H   UNL     1       1.632  -0.695  -1.170  0.00  0.00    +0.149 HD
ENDROOT
BRANCH   1   6
ATOM      5  C   UNL     1      -0.019   1.526   0.010  0.00  0.00    +0.033 C 
ATOM      6  C   UNL     1       0.002  -0.004   0.002  0.00  0.00    +0.100 C 
BRANCH   6   7
ATOM      7  C   UNL     1       0.731  -0.503   1.223  0.00  0.00    -0.024 A 
ATOM      8  C   UNL     1       2.113  -0.513   1.244  0.00  0.00    +0.009 A 
ATOM      9  C   UNL     1       2.789  -0.969   2.362  0.00  0.00    +0.050 A 
ATOM     10  C   UNL     1       2.075  -1.417   3.460  0.00  0.00    +0.162 A 
ATOM     11  C   UNL     1       0.688  -1.407   3.439  0.00  0.00    +0.162 A 
ATOM     12  C   UNL     1       0.015  -0.945   2.321  0.00  0.00    +0.055 A 
ATOM     13  O   UNL     1      -0.006  -1.849   4.528  0.00  0.00    -0.488 OA
ATOM     14  C   UNL     1       0.085  -3.249   4.800  0.00  0.00    +0.232 C 
ATOM     15  C   UNL     1       1.334  -3.561   5.609  0.00  0.00    +0.082 C 
ATOM     16  C   UNL     1       2.611  -3.267   4.839  0.00  0.00    +0.232 C 
ATOM     17  O   UNL     1       2.730  -1.868   4.570  0.00  0.00    -0.488 OA
ENDBRANCH   6   7
ENDBRANCH   1   6
BRANCH   2  18
ATOM     18  C   UNL     1       0.712  -1.094  -3.598  0.00  0.00    +0.218 C 
BRANCH  18  19
ATOM     19  N   UNL     1      -0.240  -1.150  -4.711  0.00  0.00    -0.321 N 
ATOM     20  C   UNL     1      -0.946  -2.241  -5.115  0.00  0.00    +0.200 A 
ATOM     21  N   UNL     1      -1.696  -1.937  -6.133  0.00  0.00    -0.236 NA
ATOM     22  C   UNL     1      -1.523  -0.628  -6.453  0.00  0.00    +0.093 A 
ATOM     23  C   UNL     1      -0.591  -0.103  -5.542  0.00  0.00    +0.073 A 
ATOM     24  C   UNL     1      -0.219   1.231  -5.622  0.00  0.00    +0.077 A 
ATOM     25  C   UNL     1      -0.767   2.045  -6.597  0.00  0.00    +0.164 A 
ATOM     26  C   UNL     1      -1.693   1.529  -7.504  0.00  0.00    +0.164 A 
ATOM     27  C   UNL     1      -2.066   0.202  -7.438  0.00  0.00    +0.079 A 
ATOM     28  O   UNL     1      -2.232   2.321  -8.473  0.00  0.00    -0.485 OA
ATOM     29  C   UNL     1      -2.114   3.736  -8.288  0.00  0.00    +0.270 C 
ATOM     30  C   UNL     1      -0.669   4.048  -7.876  0.00  0.00    +0.270 C 
ATOM     31  O   UNL     1      -0.390   3.353  -6.656  0.00  0.00    -0.485 OA
ENDBRANCH  18  19
ENDBRANCH   2  18
TORSDOF 4
