REMARK  Name = ZINC04496014
REMARK  4 active torsions:
REMARK  status: ('A' for Active; 'I' for Inactive)
REMARK    1  A    between atoms: C_1  and  C_2
REMARK    2  A    between atoms: C_7  and  C_8
REMARK    3  A    between atoms: N_17  and  C_26
REMARK    4  A    between atoms: C_26  and  C_27
REMARK                            x       y       z     vdW  Elec       q    Type
REMARK                         _______ _______ _______ _____ _____    ______ ____
ROOT
ATOM      1  C   UNL     1       0.351   1.047   0.273  0.00  0.00    +0.096 C 
ATOM      2  C   UNL     1      -0.005   1.733  -1.022  0.00  0.00    +0.067 A 
ATOM      3  C   UNL     1      -1.204   1.372  -1.669  0.00  0.00    +0.260 A 
ATOM      4  O   UNL     1      -1.928   0.520  -1.184  0.00  0.00    -0.267 OA
ATOM      5  N   UNL     1      -1.548   1.972  -2.824  0.00  0.00    -0.275 N 
ATOM      6  H   UNL     1      -2.398   1.715  -3.283  0.00  0.00    +0.173 HD
ATOM      7  C   UNL     1      -0.755   2.914  -3.366  0.00  0.00    +0.331 A 
ATOM      8  O   UNL     1      -1.083   3.447  -4.408  0.00  0.00    -0.246 OA
ATOM      9  N   UNL     1       0.395   3.275  -2.769  0.00  0.00    -0.277 N 
ATOM     10  C   UNL     1       0.786   2.684  -1.589  0.00  0.00    +0.116 A 
ATOM     11  N   UNL     1       1.979   3.080  -1.017  0.00  0.00    -0.301 N 
ATOM     12  C   UNL     1       2.500   2.310  -0.016  0.00  0.00    +0.058 C 
ATOM     13  C   UNL     1       1.788   1.344   0.618  0.00  0.00    +0.069 C 
ATOM     14  C   UNL     1       2.601   0.730   1.583  0.00  0.00    +0.338 C 
ATOM     15  O   UNL     1       2.242  -0.177   2.310  0.00  0.00    -0.245 OA
ATOM     16  O   UNL     1       3.833   1.279   1.596  0.00  0.00    -0.455 OA
ATOM     17  C   UNL     1       3.869   2.311   0.598  0.00  0.00    +0.283 C 
ATOM     18  H   UNL     1       2.433   3.883  -1.316  0.00  0.00    +0.153 HD
ENDROOT
BRANCH   1  25
ATOM     19  C   UNL     1      -1.246  -0.810   1.806  0.00  0.00    +0.044 C 
ATOM     20  C   UNL     1      -1.308   0.665   2.108  0.00  0.00    -0.046 A 
ATOM     21  C   UNL     1      -2.130   1.130   3.118  0.00  0.00    +0.003 A 
ATOM     22  C   UNL     1      -2.188   2.483   3.394  0.00  0.00    +0.000 A 
ATOM     23  C   UNL     1      -1.423   3.372   2.661  0.00  0.00    +0.000 A 
ATOM     24  C   UNL     1      -0.599   2.906   1.654  0.00  0.00    +0.005 A 
ATOM     25  C   UNL     1      -0.545   1.554   1.374  0.00  0.00    -0.032 A 
ENDBRANCH   1  25
BRANCH   9  26
ATOM     26  C   UNL     1       1.239   4.304  -3.381  0.00  0.00    +0.163 C 
BRANCH  26  27
ATOM     27  C   UNL     1       2.221   3.655  -4.322  0.00  0.00    -0.028 A 
ATOM     28  C   UNL     1       3.459   3.251  -3.858  0.00  0.00    +0.005 A 
ATOM     29  C   UNL     1       4.358   2.651  -4.720  0.00  0.00    +0.000 A 
ATOM     30  C   UNL     1       4.022   2.465  -6.048  0.00  0.00    +0.000 A 
ATOM     31  C   UNL     1       2.787   2.874  -6.513  0.00  0.00    +0.000 A 
ATOM     32  C   UNL     1       1.886   3.469  -5.650  0.00  0.00    +0.005 A 
ENDBRANCH  26  27
ENDBRANCH   9  26
TORSDOF 3
