REMARK  Name = ZINC04151457
REMARK  3 active torsions:
REMARK  status: ('A' for Active; 'I' for Inactive)
REMARK    1  A    between atoms: C_1  and  C_2
REMARK    2  A    between atoms: C_5  and  N_25
REMARK    3  A    between atoms: C_9  and  C_18
REMARK                            x       y       z     vdW  Elec       q    Type
REMARK                         _______ _______ _______ _____ _____    ______ ____
ROOT
ATOM      1  C   UNL     1       3.667   2.178  -0.021  0.00  0.00    +0.045 C 
ATOM      2  C   UNL     1       2.372   1.407  -0.012  0.00  0.00    -0.029 A 
ATOM      3  C   UNL     1       1.171   2.084   0.002  0.00  0.00    +0.007 A 
ATOM      4  C   UNL     1      -0.017   1.376   0.010  0.00  0.00    +0.033 A 
ATOM      5  C   UNL     1       0.002  -0.004   0.002  0.00  0.00    +0.132 A 
ATOM      6  C   UNL     1       1.206  -0.695  -0.012  0.00  0.00    +0.011 A 
ATOM      7  C   UNL     1       2.395   0.013  -0.019  0.00  0.00    +0.037 A 
ATOM      8  N   UNL     1       3.637  -0.621  -0.002  0.00  0.00    -0.336 N 
ATOM      9  C   UNL     1       3.578  -1.954  -0.604  0.00  0.00    +0.105 C 
ATOM     10  C   UNL     1       2.561  -2.809   0.155  0.00  0.00    +0.029 C 
ATOM     11  C   UNL     1       1.156  -2.195  -0.023  0.00  0.00    +0.051 C 
ATOM     12  C   UNL     1       0.681  -2.703  -1.365  0.00  0.00    -0.023 C 
ATOM     13  C   UNL     1       1.372  -3.773  -1.710  0.00  0.00    -0.030 C 
ATOM     14  C   UNL     1       2.373  -4.137  -0.631  0.00  0.00    +0.033 C 
ATOM     15  H   UNL     1       4.336  -0.051  -0.454  0.00  0.00    +0.147 HD
ENDROOT
BRANCH   9  16
ATOM     16  C   UNL     1       4.936  -2.602  -0.527  0.00  0.00    -0.026 A 
ATOM     17  C   UNL     1       5.712  -2.447   0.607  0.00  0.00    +0.005 A 
ATOM     18  C   UNL     1       6.957  -3.045   0.680  0.00  0.00    +0.002 A 
ATOM     19  C   UNL     1       7.430  -3.789  -0.385  0.00  0.00    +0.020 A 
ATOM     20  C   UNL     1       6.656  -3.939  -1.522  0.00  0.00    +0.041 A 
ATOM     21  C   UNL     1       5.408  -3.345  -1.592  0.00  0.00    +0.025 A 
ATOM     22 CL   UNL     1       7.250  -4.872  -2.860  0.00  0.00    -0.084 Cl
ENDBRANCH   9  16
BRANCH   5  23
ATOM     23  N   UNL     1      -1.274  -0.754   0.010  0.00  0.00    +0.057 N 
ATOM     24  O   UNL     1      -2.333  -0.154   0.023  0.00  0.00    -0.126 OA
ATOM     25  O   UNL     1      -1.264  -1.972   0.003  0.00  0.00    -0.126 OA
ENDBRANCH   5  23
TORSDOF 2
