REMARK  Name = ZINC12702735
REMARK  11 active torsions:
REMARK  status: ('A' for Active; 'I' for Inactive)
REMARK    1  A    between atoms: C_1  and  C_2
REMARK    2  A    between atoms: C_5  and  C_7
REMARK    3  A    between atoms: N_10  and  C_12
REMARK    4  A    between atoms: C_12  and  C_13
REMARK    5  A    between atoms: N_15  and  C_16
REMARK    6  A    between atoms: N_15  and  C_23
REMARK    7  A    between atoms: C_16  and  C_17
REMARK    8  A    between atoms: C_23  and  C_25
REMARK    9  A    between atoms: C_23  and  C_32
REMARK   10  A    between atoms: C_28  and  O_31
REMARK   11  A    between atoms: N_34  and  C_35
REMARK                            x       y       z     vdW  Elec       q    Type
REMARK                         _______ _______ _______ _____ _____    ______ ____
ROOT
ATOM      1  C   UNL     1       5.965  -4.460  -1.349  0.00  0.00    +0.240 C 
ATOM      2  O   UNL     1       5.032  -4.967  -1.935  0.00  0.00    -0.273 OA
ATOM      3  N   UNL     1       7.181  -4.416  -1.929  0.00  0.00    -0.282 N 
ENDROOT
BRANCH   1   4
ATOM      4  C   UNL     1       5.764  -3.880   0.027  0.00  0.00    +0.264 C 
BRANCH   4   8
ATOM      5  C   UNL     1       2.307  -3.707   0.718  0.00  0.00    +0.239 A 
ATOM      6  N   UNL     1       2.631  -4.892   1.257  0.00  0.00    -0.105 NA
ATOM      7  N   UNL     1       3.894  -5.068   1.063  0.00  0.00    -0.045 NA
ATOM      8  N   UNL     1       4.366  -4.051   0.431  0.00  0.00    -0.154 N 
ATOM      9  N   UNL     1       3.417  -3.210   0.204  0.00  0.00    -0.127 NA
BRANCH   5  14
ATOM     10  C   UNL     1      -1.386  -0.420  -0.156  0.00  0.00    +0.086 C 
ATOM     11  C   UNL     1      -0.652  -1.648   0.318  0.00  0.00    +0.103 A 
ATOM     12  C   UNL     1      -1.200  -2.682   0.984  0.00  0.00    +0.045 A 
ATOM     13  C   UNL     1      -0.167  -3.608   1.231  0.00  0.00    +0.053 A 
ATOM     14  C   UNL     1       0.966  -3.082   0.697  0.00  0.00    +0.175 A 
ATOM     15  O   UNL     1       0.656  -1.895   0.141  0.00  0.00    -0.457 OA
ENDBRANCH   5  14
ENDBRANCH   4   8
ENDBRANCH   1   4
BRANCH   3  16
ATOM     16  C   UNL     1       8.307  -3.803  -1.221  0.00  0.00    +0.140 C 
BRANCH  16  17
ATOM     17  C   UNL     1       8.790  -4.746  -0.117  0.00  0.00    +0.136 C 
ATOM     18  C   UNL     1       9.987  -4.115   0.625  0.00  0.00    +0.035 C 
ATOM     19  C   UNL     1      10.911  -5.340   0.864  0.00  0.00    +0.031 C 
ATOM     20  C   UNL     1      10.636  -6.170  -0.416  0.00  0.00    +0.160 C 
ATOM     21  O   UNL     1       9.237  -5.979  -0.693  0.00  0.00    -0.375 OA
ENDBRANCH  16  17
ENDBRANCH   3  16
BRANCH   3  22
ATOM     22  C   UNL     1       7.375  -4.980  -3.266  0.00  0.00    +0.192 C 
BRANCH  22  23
ATOM     23  C   UNL     1       7.117  -6.464  -3.228  0.00  0.00    -0.018 A 
ATOM     24  C   UNL     1       7.172  -7.143  -2.025  0.00  0.00    +0.009 A 
ATOM     25  C   UNL     1       6.936  -8.504  -1.987  0.00  0.00    +0.046 A 
ATOM     26  C   UNL     1       6.643  -9.189  -3.158  0.00  0.00    +0.117 A 
ATOM     27  C   UNL     1       6.588  -8.505  -4.363  0.00  0.00    +0.046 A 
ATOM     28  C   UNL     1       6.820  -7.144  -4.395  0.00  0.00    +0.009 A 
BRANCH  26  29
ATOM     29  O   UNL     1       6.411 -10.527  -3.123  0.00  0.00    -0.507 OA
ATOM     30  H   UNL     1       5.483 -10.762  -2.987  0.00  0.00    +0.292 HD
ENDBRANCH  26  29
ENDBRANCH  22  23
BRANCH  22  31
ATOM     31  C   UNL     1       8.791  -4.728  -3.717  0.00  0.00    +0.238 C 
ATOM     32  O   UNL     1       9.720  -5.044  -3.003  0.00  0.00    -0.273 OA
ATOM     33  N   UNL     1       9.026  -4.152  -4.912  0.00  0.00    -0.311 N 
ATOM     34  H   UNL     1       8.283  -3.900  -5.483  0.00  0.00    +0.149 HD
BRANCH  33  35
ATOM     35  C   UNL     1      10.402  -3.907  -5.350  0.00  0.00    +0.073 C 
ATOM     36  C   UNL     1      10.883  -2.534  -4.838  0.00  0.00    +0.022 C 
ATOM     37  C   UNL     1      11.753  -1.981  -5.994  0.00  0.00    +0.002 C 
ATOM     38  C   UNL     1      10.981  -2.444  -7.255  0.00  0.00    +0.002 C 
ATOM     39  C   UNL     1      10.465  -3.850  -6.886  0.00  0.00    +0.022 C 
ENDBRANCH  33  35
ENDBRANCH  22  31
ENDBRANCH   3  22
TORSDOF 10
