REMARK  Name = ZINC55043467
REMARK  7 active torsions:
REMARK  status: ('A' for Active; 'I' for Inactive)
REMARK    1  A    between atoms: C_1  and  C_2
REMARK    2  A    between atoms: C_2  and  O_3
REMARK    3  A    between atoms: O_3  and  C_4
REMARK    4  A    between atoms: C_4  and  C_6
REMARK    5  A    between atoms: C_9  and  C_23
REMARK    6  A    between atoms: C_14  and  C_16
REMARK    7  A    between atoms: C_19  and  C_22
REMARK                            x       y       z     vdW  Elec       q    Type
REMARK                         _______ _______ _______ _____ _____    ______ ____
ROOT
ATOM      1  C   UNL     1       1.850  -2.247  -2.445  0.00  0.00    +0.269 C 
ATOM      2  O   UNL     1       2.527  -1.485  -3.336  0.00  0.00    -0.280 OA
ATOM      3  C   UNL     1       1.835  -3.595  -2.580  0.00  0.00    +0.055 C 
ATOM      4  C   UNL     1       2.423  -4.261  -3.755  0.00  0.00    +0.073 C 
ATOM      5  N   UNL     1       2.864  -5.502  -3.608  0.00  0.00    -0.192 NA
ATOM      6  C   UNL     1       2.768  -6.144  -2.442  0.00  0.00    +0.155 C 
ATOM      7  S   UNL     1       3.598  -7.630  -2.265  0.00  0.00    -0.017 S 
ATOM      8  N   UNL     1       2.056  -5.687  -1.402  0.00  0.00    -0.314 N 
ATOM      9  C   UNL     1       1.218  -4.493  -1.526  0.00  0.00    +0.138 C 
ATOM     10  H   UNL     1       2.100  -6.152  -0.552  0.00  0.00    +0.149 HD
ENDROOT
BRANCH   9  11
ATOM     11  C   UNL     1      -0.173  -4.893  -1.947  0.00  0.00    -0.023 A 
ATOM     12  C   UNL     1      -0.351  -5.915  -2.860  0.00  0.00    +0.006 A 
ATOM     13  C   UNL     1      -1.627  -6.282  -3.246  0.00  0.00    +0.004 A 
ATOM     14  C   UNL     1      -2.724  -5.627  -2.719  0.00  0.00    -0.050 A 
ATOM     15  C   UNL     1      -2.546  -4.605  -1.806  0.00  0.00    +0.004 A 
ATOM     16  C   UNL     1      -1.270  -4.241  -1.416  0.00  0.00    +0.006 A 
ATOM     17  C   UNL     1      -4.115  -6.027  -3.141  0.00  0.00    +0.044 C 
ENDBRANCH   9  11
BRANCH   4  18
ATOM     18  C   UNL     1       2.517  -3.568  -5.057  0.00  0.00    +0.017 A 
ATOM     19  C   UNL     1       3.603  -3.801  -5.912  0.00  0.00    +0.013 A 
ATOM     20  C   UNL     1       3.643  -3.127  -7.119  0.00  0.00    +0.020 A 
ATOM     21  C   UNL     1       2.619  -2.253  -7.441  0.00  0.00    +0.111 A 
ATOM     22  N   UNL     1       1.609  -2.053  -6.617  0.00  0.00    -0.263 NA
ATOM     23  C   UNL     1       1.522  -2.674  -5.459  0.00  0.00    +0.120 A 
ENDBRANCH   4  18
BRANCH   1  24
ATOM     24  C   UNL     1       1.127  -1.607  -1.325  0.00  0.00    +0.380 C 
ATOM     25  O   UNL     1       0.433  -2.278  -0.589  0.00  0.00    -0.241 OA
BRANCH  24  26
ATOM     26  O   UNL     1       1.240  -0.280  -1.120  0.00  0.00    -0.459 OA
BRANCH  26  28
ATOM     27  C   UNL     1       0.763   1.778   0.053  0.00  0.00    +0.048 C 
ATOM     28  C   UNL     1       0.514   0.270  -0.019  0.00  0.00    +0.229 C 
ENDBRANCH  26  28
ENDBRANCH  24  26
ENDBRANCH   1  24
TORSDOF 5
