REMARK  Name = ZINC39532076
REMARK  6 active torsions:
REMARK  status: ('A' for Active; 'I' for Inactive)
REMARK    1  A    between atoms: C_1  and  N_2
REMARK    2  A    between atoms: C_4  and  C_13
REMARK    3  A    between atoms: C_5  and  C_7
REMARK    4  A    between atoms: C_13  and  N_14
REMARK    5  A    between atoms: C_18  and  N_21
REMARK    6  A    between atoms: N_21  and  C_22
REMARK                            x       y       z     vdW  Elec       q    Type
REMARK                         _______ _______ _______ _____ _____    ______ ____
ROOT
ATOM      1  N   UNL     1      -1.160  -4.020  -1.488  0.00  0.00    +0.384 N 
ATOM      2  C   UNL     1      -2.111  -3.210  -2.258  0.00  0.00    -0.078 C 
ATOM      3  C   UNL     1      -3.497  -3.857  -2.207  0.00  0.00    -0.017 C 
ATOM      4  C   UNL     1      -3.420  -5.265  -2.806  0.00  0.00    +0.018 C 
ATOM      5  C   UNL     1      -2.371  -6.077  -2.041  0.00  0.00    +0.054 C 
ATOM      6  C   UNL     1      -1.027  -5.348  -2.099  0.00  0.00    -0.056 C 
ATOM      7  H   UNL     1      -1.495  -4.119  -0.541  0.00  0.00    -0.081 HD
ENDROOT
BRANCH   5   8
ATOM      8  N   UNL     1      -2.236  -7.402  -2.653  0.00  0.00    -0.343 N 
ATOM      9  H   UNL     1      -1.544  -7.563  -3.313  0.00  0.00    +0.146 HD
BRANCH   8  10
ATOM     10  C   UNL     1      -3.108  -8.434  -2.287  0.00  0.00    +0.031 A 
ATOM     11  C   UNL     1      -4.103  -8.201  -1.347  0.00  0.00    +0.027 A 
ATOM     12  C   UNL     1      -4.963  -9.220  -0.984  0.00  0.00    +0.051 A 
ATOM     13  C   UNL     1      -4.835 -10.477  -1.557  0.00  0.00    +0.162 A 
ATOM     14  C   UNL     1      -3.841 -10.712  -2.499  0.00  0.00    +0.164 A 
ATOM     15  C   UNL     1      -2.981  -9.688  -2.866  0.00  0.00    +0.072 A 
ATOM     16  O   UNL     1      -3.705 -11.936  -3.078  0.00  0.00    -0.485 OA
ATOM     17  C   UNL     1      -4.346 -13.034  -2.420  0.00  0.00    +0.270 C 
ATOM     18  C   UNL     1      -5.773 -12.607  -2.050  0.00  0.00    +0.270 C 
ATOM     19  O   UNL     1      -5.690 -11.470  -1.184  0.00  0.00    -0.485 OA
ENDBRANCH   8  10
ENDBRANCH   5   8
BRANCH   1  20
ATOM     20  C   UNL     1       0.150  -3.355  -1.475  0.00  0.00    -0.039 C 
BRANCH  20  24
ATOM     21  C   UNL     1      -0.131   1.534  -0.410  0.00  0.00    +0.172 C 
ATOM     22  N   UNL     1      -0.077   0.078  -0.260  0.00  0.00    -0.274 N 
ATOM     23  C   UNL     1       0.026  -0.819  -1.265  0.00  0.00    +0.110 A 
ATOM     24  C   UNL     1       0.045  -2.055  -0.720  0.00  0.00    -0.019 A 
ATOM     25  C   UNL     1      -0.050  -1.912   0.678  0.00  0.00    +0.094 A 
ATOM     26  N   UNL     1      -0.118  -0.626   0.950  0.00  0.00    -0.171 NA
BRANCH  25  27
ATOM     27  C   UNL     1      -0.064  -3.017   1.669  0.00  0.00    +0.002 A 
ATOM     28  C   UNL     1       0.816  -4.089   1.534  0.00  0.00    +0.010 A 
ATOM     29  C   UNL     1       0.798  -5.113   2.459  0.00  0.00    +0.001 A 
ATOM     30  C   UNL     1      -0.090  -5.077   3.518  0.00  0.00    +0.000 A 
ATOM     31  C   UNL     1      -0.966  -4.015   3.657  0.00  0.00    +0.001 A 
ATOM     32  C   UNL     1      -0.954  -2.983   2.741  0.00  0.00    +0.010 A 
ENDBRANCH  25  27
ENDBRANCH  20  24
ENDBRANCH   1  20
TORSDOF 5
