REMARK  Name = ZINC49937800
REMARK  4 active torsions:
REMARK  status: ('A' for Active; 'I' for Inactive)
REMARK    1  A    between atoms: C_7  and  C_21
REMARK    2  A    between atoms: N_17  and  C_20
REMARK    3  A    between atoms: C_24  and  S_27
REMARK    4  A    between atoms: S_27  and  C_28
REMARK                            x       y       z     vdW  Elec       q    Type
REMARK                         _______ _______ _______ _____ _____    ______ ____
ROOT
ATOM      1  C   UNL     1       0.212   1.330  -0.316  0.00  0.00    +0.033 C 
ATOM      2  C   UNL     1       0.159  -0.007  -0.220  0.00  0.00    +0.031 C 
ATOM      3  C   UNL     1      -1.131  -0.714  -0.120  0.00  0.00    +0.090 C 
ATOM      4  C   UNL     1      -1.129  -2.032   0.175  0.00  0.00    +0.249 C 
ATOM      5  O   UNL     1      -2.302  -2.696   0.305  0.00  0.00    -0.270 OA
ATOM      6  N   UNL     1       0.064  -2.705   0.344  0.00  0.00    -0.215 N 
ATOM      7  C   UNL     1       0.077  -4.166   0.482  0.00  0.00    +0.211 C 
ATOM      8  N   UNL     1       1.196  -4.560   1.342  0.00  0.00    -0.335 N 
ATOM      9  C   UNL     1       2.247  -3.797   1.469  0.00  0.00    +0.196 C 
ATOM     10  N   UNL     1       2.324  -2.588   0.885  0.00  0.00    -0.186 NA
ATOM     11  C   UNL     1       1.258  -2.033   0.349  0.00  0.00    +0.199 C 
ATOM     12  N   UNL     1       1.330  -0.784  -0.216  0.00  0.00    -0.287 N 
ATOM     13  N   UNL     1       3.311  -4.245   2.226  0.00  0.00    -0.299 N 
ATOM     14  C   UNL     1       4.098  -3.312   3.047  0.00  0.00    +0.123 C 
ATOM     15  C   UNL     1       5.583  -3.512   2.723  0.00  0.00    +0.103 C 
ATOM     16  N   UNL     1       5.930  -4.929   2.886  0.00  0.00    -0.302 NA
ATOM     17  C   UNL     1       5.189  -5.773   1.939  0.00  0.00    +0.103 C 
ATOM     18  C   UNL     1       3.685  -5.667   2.236  0.00  0.00    +0.123 C 
ATOM     19  C   UNL     1       7.379  -5.135   2.753  0.00  0.00    +0.105 C 
ATOM     20  H   UNL     1       2.156  -0.448  -0.597  0.00  0.00    +0.155 HD
ATOM     21  H   UNL     1       1.154  -5.401   1.824  0.00  0.00    +0.164 HD
ENDROOT
BRANCH   7  22
ATOM     22  C   UNL     1       0.237  -4.798  -0.876  0.00  0.00    -0.007 A 
ATOM     23  C   UNL     1      -0.250  -4.154  -1.999  0.00  0.00    +0.008 A 
ATOM     24  C   UNL     1      -0.105  -4.731  -3.245  0.00  0.00    +0.015 A 
ATOM     25  C   UNL     1       0.532  -5.960  -3.371  0.00  0.00    +0.008 A 
ATOM     26  C   UNL     1       1.021  -6.604  -2.240  0.00  0.00    +0.015 A 
ATOM     27  C   UNL     1       0.877  -6.019  -0.998  0.00  0.00    +0.008 A 
BRANCH  25  28
ATOM     28  S   UNL     1       0.719  -6.699  -4.959  0.00  0.00    -0.129 S 
ATOM     29  C   UNL     1       1.591  -8.254  -4.619  0.00  0.00    +0.090 C 
ENDBRANCH  25  28
ENDBRANCH   7  22
TORSDOF 2
