REMARK  Name = ZINC14544761
REMARK  4 active torsions:
REMARK  status: ('A' for Active; 'I' for Inactive)
REMARK    1  A    between atoms: C_1  and  O_2
REMARK    2  A    between atoms: O_2  and  C_3
REMARK    3  A    between atoms: C_3  and  C_5
REMARK    4  A    between atoms: C_18  and  C_21
REMARK                            x       y       z     vdW  Elec       q    Type
REMARK                         _______ _______ _______ _____ _____    ______ ____
ROOT
ATOM      1  C   UNL     1      -1.231   1.762   0.017  0.00  0.00    +0.059 A 
ATOM      2  C   UNL     1      -0.013   1.076   0.008  0.00  0.00    +0.017 A 
ATOM      3  C   UNL     1       1.158   1.778   0.001  0.00  0.00    +0.024 A 
ATOM      4  C   UNL     1       1.145   3.170   0.007  0.00  0.00    +0.031 A 
ATOM      5  C   UNL     1      -0.058   3.868   0.024  0.00  0.00    -0.019 A 
ATOM      6  C   UNL     1      -1.245   3.158   0.031  0.00  0.00    +0.021 A 
ATOM      7  C   UNL     1      -0.117   5.362   0.036  0.00  0.00    +0.049 C 
ATOM      8  C   UNL     1      -0.526   5.907  -1.312  0.00  0.00    -0.023 C 
ATOM      9  C   UNL     1       0.115   7.022  -1.565  0.00  0.00    -0.030 C 
ATOM     10  C   UNL     1       1.038   7.376  -0.414  0.00  0.00    +0.033 C 
ATOM     11  C   UNL     1       1.251   6.015   0.311  0.00  0.00    +0.029 C 
ATOM     12  C   UNL     1       2.350   5.262  -0.445  0.00  0.00    +0.107 C 
ATOM     13  N   UNL     1       2.353   3.862  -0.008  0.00  0.00    -0.336 N 
ATOM     14  H   UNL     1       3.177   3.429   0.265  0.00  0.00    +0.147 HD
ENDROOT
BRANCH  12  15
ATOM     15  C   UNL     1       2.079   5.327  -1.926  0.00  0.00    -0.002 A 
ATOM     16  C   UNL     1       1.437   4.406  -2.662  0.00  0.00    +0.089 A 
ATOM     17  N   UNL     1       1.381   4.809  -3.969  0.00  0.00    -0.360 N 
ATOM     18  H   UNL     1       0.967   4.309  -4.689  0.00  0.00    +0.165 HD
ATOM     19  C   UNL     1       2.002   6.030  -4.109  0.00  0.00    +0.047 A 
ATOM     20  C   UNL     1       2.461   6.411  -2.835  0.00  0.00    +0.005 A 
ATOM     21  C   UNL     1       3.143   7.618  -2.673  0.00  0.00    +0.010 A 
ATOM     22  C   UNL     1       3.352   8.430  -3.752  0.00  0.00    +0.001 A 
ATOM     23  C   UNL     1       2.896   8.061  -5.010  0.00  0.00    +0.002 A 
ATOM     24  C   UNL     1       2.225   6.872  -5.194  0.00  0.00    +0.026 A 
ENDBRANCH  12  15
BRANCH   1  25
ATOM     25  C   UNL     1      -2.500   1.012   0.018  0.00  0.00    +0.339 C 
ATOM     26  O   UNL     1      -3.558   1.608   0.026  0.00  0.00    -0.245 OA
BRANCH  25  28
ATOM     27  C   UNL     1      -3.772  -1.009   0.011  0.00  0.00    +0.280 C 
ATOM     28  O   UNL     1      -2.486  -0.336   0.010  0.00  0.00    -0.464 OA
ENDBRANCH  25  28
ENDBRANCH   1  25
TORSDOF 3
