REMARK  Name = ZINC01159086
REMARK  7 active torsions:
REMARK  status: ('A' for Active; 'I' for Inactive)
REMARK    1  A    between atoms: C_4  and  C_7
REMARK    2  A    between atoms: C_7  and  O_8
REMARK    3  A    between atoms: O_8  and  C_9
REMARK    4  A    between atoms: C_12  and  C_16
REMARK    5  A    between atoms: N_17  and  N_18
REMARK    6  A    between atoms: C_23  and  C_26
REMARK    7  A    between atoms: C_26  and  C_27
REMARK                            x       y       z     vdW  Elec       q    Type
REMARK                         _______ _______ _______ _____ _____    ______ ____
ROOT
ATOM      1  C   UNL     1       5.287  -1.589  -1.585  0.00  0.00    +0.135 A 
ATOM      2  C   UNL     1       6.037  -2.002  -0.491  0.00  0.00    +0.047 A 
ATOM      3  C   UNL     1       7.226  -2.672  -0.681  0.00  0.00    +0.013 A 
ATOM      4  C   UNL     1       7.683  -2.928  -1.979  0.00  0.00    -0.004 A 
ATOM      5  C   UNL     1       6.926  -2.506  -3.077  0.00  0.00    +0.028 A 
ATOM      6  C   UNL     1       5.736  -1.840  -2.876  0.00  0.00    +0.060 A 
ATOM      7 BR   UNL     1       4.711  -1.269  -4.359  0.00  0.00    -0.046 Br
ENDROOT
BRANCH   4   8
ATOM      8  C   UNL     1       8.954  -3.638  -2.187  0.00  0.00    +0.143 C 
ATOM      9  N   UNL     1       9.658  -4.031  -1.161  0.00  0.00    -0.155 NA
BRANCH   9  10
ATOM     10  N   UNL     1      10.773  -4.654  -1.344  0.00  0.00    -0.127 NA
ATOM     11  C   UNL     1      11.483  -5.050  -0.308  0.00  0.00    +0.183 C 
ATOM     12  N   UNL     1      11.200  -4.886   1.031  0.00  0.00    -0.263 N 
ATOM     13  C   UNL     1      11.999  -5.337   1.983  0.00  0.00    +0.233 C 
ATOM     14  O   UNL     1      11.743  -5.194   3.160  0.00  0.00    -0.274 OA
ATOM     15  C   UNL     1      13.260  -6.042   1.511  0.00  0.00    +0.151 C 
ATOM     16  S   UNL     1      13.043  -5.921  -0.309  0.00  0.00    -0.075 S 
ATOM     17  H   UNL     1      10.385  -4.425   1.284  0.00  0.00    +0.157 HD
BRANCH  15  18
ATOM     18  C   UNL     1      13.286  -7.501   1.970  0.00  0.00    +0.149 C 
BRANCH  18  19
ATOM     19  C   UNL     1      14.520  -8.176   1.428  0.00  0.00    +0.358 C 
ATOM     20  O   UNL     1      15.298  -7.554   0.744  0.00  0.00    -0.246 OA
ATOM     21  O   UNL     1      14.754  -9.469   1.705  0.00  0.00    -0.246 OA
ENDBRANCH  18  19
ENDBRANCH  15  18
ENDBRANCH   9  10
ENDBRANCH   4   8
BRANCH   1  22
ATOM     22  O   UNL     1       4.113  -0.932  -1.391  0.00  0.00    -0.486 OA
BRANCH  22  23
ATOM     23  C   UNL     1       3.711  -0.707  -0.039  0.00  0.00    +0.264 C 
BRANCH  23  27
ATOM     24  C   UNL     1      -0.017   1.378   0.010  0.00  0.00    +0.000 A 
ATOM     25  C   UNL     1       1.171   2.086   0.002  0.00  0.00    +0.000 A 
ATOM     26  C   UNL     1       2.377   1.411  -0.014  0.00  0.00    +0.007 A 
ATOM     27  C   UNL     1       2.396   0.029  -0.022  0.00  0.00    -0.010 A 
ATOM     28  C   UNL     1       1.208  -0.679  -0.014  0.00  0.00    +0.007 A 
ATOM     29  C   UNL     1       0.002  -0.004   0.002  0.00  0.00    +0.000 A 
ENDBRANCH  23  27
ENDBRANCH  22  23
ENDBRANCH   1  22
TORSDOF 7
