REMARK  Name = ZINC01096028
REMARK  6 active torsions:
REMARK  status: ('A' for Active; 'I' for Inactive)
REMARK    1  A    between atoms: C_1  and  C_2
REMARK    2  A    between atoms: C_5  and  C_8
REMARK    3  A    between atoms: N_10  and  C_11
REMARK    4  A    between atoms: C_12  and  C_20
REMARK    5  A    between atoms: N_22  and  C_23
REMARK    6  A    between atoms: C_23  and  C_24
REMARK                            x       y       z     vdW  Elec       q    Type
REMARK                         _______ _______ _______ _____ _____    ______ ____
ROOT
ATOM      1  C   UNL     1       0.091  -6.316   1.135  0.00  0.00    +0.085 A 
ATOM      2  C   UNL     1       0.102  -7.175   2.223  0.00  0.00    +0.069 A 
ATOM      3  C   UNL     1       0.120  -8.600   1.945  0.00  0.00    -0.023 A 
ATOM      4  C   UNL     1       0.124  -8.906   0.629  0.00  0.00    -0.004 A 
ATOM      5  S   UNL     1       0.097  -7.341  -0.196  0.00  0.00    -0.077 S 
ATOM      6  C   UNL     1       0.143 -10.276   0.024  0.00  0.00    +0.043 C 
ATOM      7  C   UNL     1       0.538 -11.280   1.117  0.00  0.00    +0.005 C 
ATOM      8  C   UNL     1      -0.302 -11.007   2.368  0.00  0.00    +0.005 C 
ATOM      9  C   UNL     1       0.133  -9.687   3.009  0.00  0.00    +0.037 C 
ENDROOT
BRANCH   1  12
ATOM     10  C   UNL     1       0.058  -4.251  -0.021  0.00  0.00    +0.249 C 
ATOM     11  O   UNL     1       0.061  -4.853  -1.077  0.00  0.00    -0.270 OA
ATOM     12  N   UNL     1       0.073  -4.931   1.142  0.00  0.00    -0.275 N 
ATOM     13  H   UNL     1       0.071  -4.451   1.985  0.00  0.00    +0.156 HD
BRANCH  10  18
ATOM     14  C   UNL     1      -0.018   1.503   0.010  0.00  0.00    +0.044 C 
ATOM     15  C   UNL     1       0.002  -0.004   0.002  0.00  0.00    -0.050 A 
ATOM     16  C   UNL     1       0.006  -0.686  -1.202  0.00  0.00    +0.004 A 
ATOM     17  C   UNL     1       0.024  -2.066  -1.216  0.00  0.00    +0.013 A 
ATOM     18  C   UNL     1       0.039  -2.773  -0.013  0.00  0.00    +0.037 A 
ATOM     19  C   UNL     1       0.036  -2.079   1.198  0.00  0.00    +0.013 A 
ATOM     20  C   UNL     1       0.023  -0.699   1.198  0.00  0.00    +0.004 A 
ENDBRANCH  10  18
ENDBRANCH   1  12
BRANCH   2  21
ATOM     21  C   UNL     1       0.096  -6.665   3.598  0.00  0.00    +0.247 C 
ATOM     22  O   UNL     1      -0.961  -6.467   4.169  0.00  0.00    -0.270 OA
ATOM     23  N   UNL     1       1.260  -6.416   4.229  0.00  0.00    -0.304 N 
ATOM     24  H   UNL     1       2.102  -6.574   3.774  0.00  0.00    +0.149 HD
BRANCH  23  25
ATOM     25  C   UNL     1       1.254  -5.906   5.603  0.00  0.00    +0.179 C 
BRANCH  25  26
ATOM     26  C   UNL     1       2.673  -5.713   6.073  0.00  0.00    +0.122 A 
ATOM     27  C   UNL     1       3.399  -4.588   5.944  0.00  0.00    +0.046 A 
ATOM     28  C   UNL     1       4.664  -4.848   6.519  0.00  0.00    +0.041 A 
ATOM     29  C   UNL     1       4.636  -6.117   6.965  0.00  0.00    +0.195 A 
ATOM     30  O   UNL     1       3.426  -6.634   6.697  0.00  0.00    -0.466 OA
ENDBRANCH  25  26
ENDBRANCH  23  25
ENDBRANCH   2  21
TORSDOF 5
