REMARK  Name = ZINC67332135
REMARK  5 active torsions:
REMARK  status: ('A' for Active; 'I' for Inactive)
REMARK    1  A    between atoms: C_8  and  C_13
REMARK    2  A    between atoms: N_15  and  C_16
REMARK    3  A    between atoms: C_16  and  C_17
REMARK    4  A    between atoms: N_22  and  C_23
REMARK    5  A    between atoms: C_23  and  C_24
REMARK                            x       y       z     vdW  Elec       q    Type
REMARK                         _______ _______ _______ _____ _____    ______ ____
ROOT
ATOM      1  C   UNL     1       2.585  -4.212  -0.047  0.00  0.00    +0.260 C 
ATOM      2  O   UNL     1       1.560  -4.867  -0.040  0.00  0.00    -0.269 OA
ATOM      3  N   UNL     1       3.781  -4.832  -0.062  0.00  0.00    -0.312 N 
ATOM      4  H   UNL     1       4.598  -4.310  -0.068  0.00  0.00    +0.149 HD
ENDROOT
BRANCH   1  12
ATOM      5  C   UNL     1      -0.017   1.374   0.010  0.00  0.00    +0.001 A 
ATOM      6  C   UNL     1       1.167   2.099   0.002  0.00  0.00    +0.001 A 
ATOM      7  C   UNL     1       2.387   1.456  -0.013  0.00  0.00    +0.014 A 
ATOM      8  C   UNL     1       2.431   0.064  -0.021  0.00  0.00    +0.046 A 
ATOM      9  C   UNL     1       1.226  -0.676  -0.013  0.00  0.00    -0.011 A 
ATOM     10  C   UNL     1       0.002  -0.004   0.002  0.00  0.00    +0.009 A 
ATOM     11  C   UNL     1       1.303  -2.137  -0.022  0.00  0.00    +0.039 A 
ATOM     12  C   UNL     1       2.518  -2.739  -0.038  0.00  0.00    +0.105 A 
ATOM     13  N   UNL     1       3.692  -2.018  -0.046  0.00  0.00    -0.318 N 
ATOM     14  H   UNL     1       4.536  -2.495  -0.057  0.00  0.00    +0.169 HD
ATOM     15  C   UNL     1       3.704  -0.670  -0.038  0.00  0.00    +0.257 A 
ATOM     16  O   UNL     1       4.761  -0.066  -0.046  0.00  0.00    -0.267 OA
ENDBRANCH   1  12
BRANCH   3  17
ATOM     17  C   UNL     1       3.847  -6.296  -0.071  0.00  0.00    +0.089 C 
BRANCH  17  18
ATOM     18  C   UNL     1       5.311  -6.740  -0.088  0.00  0.00    -0.051 C 
ATOM     19  C   UNL     1       5.397  -8.272   0.073  0.00  0.00    -0.016 C 
ATOM     20  C   UNL     1       6.641  -8.459   0.981  0.00  0.00    -0.020 C 
ATOM     21  C   UNL     1       6.534  -7.229   1.915  0.00  0.00    -0.078 C 
ATOM     22  N   UNL     1       6.032  -6.137   1.048  0.00  0.00    +0.383 N 
ATOM     23  H   UNL     1       5.405  -5.546   1.573  0.00  0.00    -0.081 HD
BRANCH  22  24
ATOM     24  C   UNL     1       7.160  -5.338   0.550  0.00  0.00    -0.075 C 
BRANCH  24  25
ATOM     25  C   UNL     1       7.829  -4.615   1.721  0.00  0.00    -0.028 C 
ATOM     26  C   UNL     1       6.851  -3.604   2.321  0.00  0.00    +0.002 C 
ATOM     27  C   UNL     1       7.519  -2.880   3.492  0.00  0.00    +0.000 C 
ATOM     28  C   UNL     1       8.767  -2.149   2.994  0.00  0.00    +0.000 C 
ATOM     29  C   UNL     1       9.746  -3.160   2.393  0.00  0.00    +0.000 C 
ATOM     30  C   UNL     1       9.077  -3.884   1.222  0.00  0.00    +0.002 C 
ENDBRANCH  24  25
ENDBRANCH  22  24
ENDBRANCH  17  18
ENDBRANCH   3  17
TORSDOF 5
