REMARK  Name = ZINC39449583
REMARK  5 active torsions:
REMARK  status: ('A' for Active; 'I' for Inactive)
REMARK    1  A    between atoms: C_1  and  O_2
REMARK    2  A    between atoms: O_2  and  C_3
REMARK    3  A    between atoms: C_13  and  S_16
REMARK    4  A    between atoms: S_16  and  C_19
REMARK    5  A    between atoms: N_27  and  C_28
REMARK                            x       y       z     vdW  Elec       q    Type
REMARK                         _______ _______ _______ _____ _____    ______ ____
ROOT
ATOM      1  C   UNL     1       0.673  -0.582   1.123  0.00  0.00    +0.210 C 
ATOM      2  C   UNL     1       0.954  -2.064   0.850  0.00  0.00    +0.132 C 
ATOM      3  C   UNL     1       1.455  -2.719   2.111  0.00  0.00    +0.186 C 
ATOM      4  O   UNL     1       2.218  -3.661   2.037  0.00  0.00    -0.290 OA
ATOM      5  C   UNL     1       1.046  -2.246   3.379  0.00  0.00    +0.116 A 
ATOM      6  C   UNL     1       0.225  -1.137   3.467  0.00  0.00    +0.083 A 
ATOM      7  C   UNL     1      -0.206  -0.650   4.784  0.00  0.00    +0.099 A 
ATOM      8  C   UNL     1       0.250  -1.338   5.930  0.00  0.00    +0.069 A 
ATOM      9  C   UNL     1      -0.145  -0.894   7.194  0.00  0.00    +0.044 A 
ATOM     10  C   UNL     1      -0.975   0.212   7.263  0.00  0.00    +0.112 A 
ATOM     11  C   UNL     1      -1.383   0.837   6.093  0.00  0.00    +0.138 A 
ATOM     12  N   UNL     1      -1.000   0.405   4.911  0.00  0.00    -0.251 NA
ATOM     13  C   UNL     1       1.128  -2.503   5.758  0.00  0.00    +0.266 A 
ATOM     14  O   UNL     1       1.534  -3.108   6.733  0.00  0.00    -0.267 OA
ATOM     15  N   UNL     1       1.484  -2.901   4.523  0.00  0.00    -0.268 N 
ATOM     16  N   UNL     1      -0.182  -0.488   2.316  0.00  0.00    -0.315 N 
ATOM     17  H   UNL     1      -1.010   0.017   2.296  0.00  0.00    +0.149 HD
ENDROOT
BRANCH  15  18
ATOM     18  C   UNL     1       2.323  -4.014   4.386  0.00  0.00    +0.097 A 
ATOM     19  C   UNL     1       3.701  -3.848   4.369  0.00  0.00    +0.030 A 
ATOM     20  C   UNL     1       4.527  -4.947   4.234  0.00  0.00    +0.002 A 
ATOM     21  C   UNL     1       3.984  -6.214   4.116  0.00  0.00    +0.004 A 
ATOM     22  C   UNL     1       2.613  -6.387   4.132  0.00  0.00    +0.053 A 
ATOM     23  C   UNL     1       1.777  -5.291   4.273  0.00  0.00    +0.203 A 
ATOM     24  O   UNL     1       0.429  -5.460   4.296  0.00  0.00    -0.286 OA
ENDBRANCH  15  18
BRANCH  10  25
ATOM     25  S   UNL     1      -1.510   0.822   8.827  0.00  0.00    +0.027 S 
ATOM     26  O   UNL     1      -2.717   1.533   8.594  0.00  0.00    -0.164 OA
ATOM     27  O   UNL     1      -1.430  -0.267   9.736  0.00  0.00    -0.164 OA
BRANCH  25  28
ATOM     28  C   UNL     1      -0.320   2.009   9.357  0.00  0.00    +0.094 A 
ATOM     29  C   UNL     1       0.768   1.608  10.110  0.00  0.00    +0.027 A 
ATOM     30  C   UNL     1       1.701   2.540  10.526  0.00  0.00    +0.002 A 
ATOM     31  C   UNL     1       1.546   3.871  10.190  0.00  0.00    +0.000 A 
ATOM     32  C   UNL     1       0.458   4.272   9.436  0.00  0.00    +0.002 A 
ATOM     33  C   UNL     1      -0.473   3.340   9.016  0.00  0.00    +0.027 A 
ENDBRANCH  25  28
ENDBRANCH  10  25
BRANCH   1  35
ATOM     34  C   UNL     1      -0.017   1.425   0.010  0.00  0.00    +0.196 C 
ATOM     35  O   UNL     1       0.002  -0.004   0.002  0.00  0.00    -0.362 OA
ENDBRANCH   1  35
TORSDOF 4
