REMARK  Name = ZINC63761412
REMARK  13 active torsions:
REMARK  status: ('A' for Active; 'I' for Inactive)
REMARK    1  A    between atoms: C_1  and  C_2
REMARK    2  A    between atoms: C_5  and  S_8
REMARK    3  A    between atoms: S_8  and  N_11
REMARK    4  A    between atoms: N_11  and  C_12
REMARK    5  A    between atoms: C_12  and  C_14
REMARK    6  A    between atoms: C_12  and  C_21
REMARK    7  A    between atoms: C_14  and  C_15
REMARK    8  A    between atoms: N_23  and  C_24
REMARK    9  A    between atoms: C_24  and  C_26
REMARK   10  A    between atoms: C_24  and  C_36
REMARK   11  A    between atoms: C_26  and  C_27
REMARK   12  A    between atoms: C_36  and  O_38
REMARK   13  A    between atoms: O_38  and  C_39
REMARK                            x       y       z     vdW  Elec       q    Type
REMARK                         _______ _______ _______ _____ _____    ______ ____
ROOT
ATOM      1  C   UNL     1       2.512  -4.699   1.113  0.00  0.00    +0.166 C 
ENDROOT
BRANCH   1   2
ATOM      2  C   UNL     1       3.908  -4.404   0.629  0.00  0.00    +0.233 C 
ATOM      3  O   UNL     1       4.160  -4.442  -0.557  0.00  0.00    -0.274 OA
ATOM      4  N   UNL     1       4.878  -4.099   1.514  0.00  0.00    -0.301 N 
ATOM      5  H   UNL     1       4.676  -4.069   2.462  0.00  0.00    +0.150 HD
BRANCH   4   6
ATOM      6  C   UNL     1       6.235  -3.813   1.044  0.00  0.00    +0.186 C 
BRANCH   6   7
ATOM      7  C   UNL     1       6.993  -5.105   0.878  0.00  0.00    +0.328 C 
ATOM      8  O   UNL     1       6.454  -6.157   1.128  0.00  0.00    -0.249 OA
BRANCH   7   9
ATOM      9  O   UNL     1       8.266  -5.087   0.454  0.00  0.00    -0.467 OA
ATOM     10  C   UNL     1       8.923  -6.349   0.320  0.00  0.00    +0.280 C 
ENDBRANCH   7   9
ENDBRANCH   6   7
BRANCH   6  11
ATOM     11  C   UNL     1       6.953  -2.928   2.065  0.00  0.00    +0.067 C 
BRANCH  11  12
ATOM     12  C   UNL     1       6.266  -1.589   2.140  0.00  0.00    -0.039 C 
ATOM     13  C   UNL     1       5.316  -1.210   3.026  0.00  0.00    -0.001 A 
ATOM     14  C   UNL     1       4.663  -1.906   4.141  0.00  0.00    +0.010 A 
ATOM     15  C   UNL     1       3.727  -1.251   4.865  0.00  0.00    +0.001 A 
ATOM     16  C   UNL     1       3.365   0.072   4.576  0.00  0.00    +0.002 A 
ATOM     17  C   UNL     1       3.920   0.777   3.568  0.00  0.00    +0.026 A 
ATOM     18  C   UNL     1       4.917   0.187   2.742  0.00  0.00    +0.043 A 
ATOM     19  N   UNL     1       5.593   0.653   1.721  0.00  0.00    -0.380 N 
ATOM     20  C   UNL     1       6.503  -0.394   1.244  0.00  0.00    +0.144 C 
ATOM     21  H   UNL     1       5.508   1.544   1.345  0.00  0.00    +0.160 HD
ENDBRANCH  11  12
ENDBRANCH   6  11
ENDBRANCH   4   6
ENDBRANCH   1   2
BRANCH   1  22
ATOM     22  N   UNL     1       1.651  -4.999  -0.034  0.00  0.00    -0.178 NA
ATOM     23  H   UNL     1       2.011  -5.473  -0.800  0.00  0.00    +0.149 HD
BRANCH  22  24
ATOM     24  S   UNL     1       0.063  -4.530  -0.023  0.00  0.00    +0.059 S 
ATOM     25  O   UNL     1      -0.476  -4.950   1.223  0.00  0.00    -0.153 OA
ATOM     26  O   UNL     1      -0.490  -4.937  -1.267  0.00  0.00    -0.153 OA
BRANCH  24  31
ATOM     27  C   UNL     1      -0.018   1.503   0.010  0.00  0.00    +0.044 C 
ATOM     28  C   UNL     1       0.002  -0.004   0.002  0.00  0.00    -0.050 A 
ATOM     29  C   UNL     1       0.006  -0.689  -1.199  0.00  0.00    +0.005 A 
ATOM     30  C   UNL     1       0.025  -2.071  -1.206  0.00  0.00    +0.029 A 
ATOM     31  C   UNL     1       0.040  -2.768  -0.013  0.00  0.00    +0.105 A 
ATOM     32  C   UNL     1       0.037  -2.084   1.188  0.00  0.00    +0.029 A 
ATOM     33  C   UNL     1       0.023  -0.702   1.195  0.00  0.00    +0.005 A 
ENDBRANCH  24  31
ENDBRANCH  22  24
ENDBRANCH   1  22
BRANCH   1  34
ATOM     34  C   UNL     1       2.542  -5.903   2.056  0.00  0.00    +0.065 C 
BRANCH  34  35
ATOM     35  C   UNL     1       1.168  -6.122   2.636  0.00  0.00    -0.045 A 
ATOM     36  C   UNL     1       0.806  -5.494   3.813  0.00  0.00    +0.004 A 
ATOM     37  C   UNL     1      -0.454  -5.695   4.344  0.00  0.00    +0.000 A 
ATOM     38  C   UNL     1      -1.352  -6.524   3.698  0.00  0.00    +0.000 A 
ATOM     39  C   UNL     1      -0.991  -7.151   2.521  0.00  0.00    +0.000 A 
ATOM     40  C   UNL     1       0.268  -6.946   1.987  0.00  0.00    +0.004 A 
ENDBRANCH  34  35
ENDBRANCH   1  34
TORSDOF 11
