REMARK  Name = ZINC40743694
REMARK  9 active torsions:
REMARK  status: ('A' for Active; 'I' for Inactive)
REMARK    1  A    between atoms: C_4  and  C_7
REMARK    2  A    between atoms: C_7  and  O_8
REMARK    3  A    between atoms: O_8  and  C_9
REMARK    4  A    between atoms: C_12  and  C_16
REMARK    5  A    between atoms: C_16  and  N_17
REMARK    6  A    between atoms: N_17  and  C_18
REMARK    7  A    between atoms: C_18  and  C_19
REMARK    8  A    between atoms: C_19  and  C_20
REMARK    9  A    between atoms: C_20  and  O_21
REMARK                            x       y       z     vdW  Elec       q    Type
REMARK                         _______ _______ _______ _____ _____    ______ ____
ROOT
ATOM      1  C   UNL     1       5.319  -1.605   1.467  0.00  0.00    +0.149 A 
ATOM      2  C   UNL     1       5.335  -2.991   1.545  0.00  0.00    +0.061 A 
ATOM      3  C   UNL     1       6.535  -3.658   1.710  0.00  0.00    +0.020 A 
ATOM      4  C   UNL     1       7.717  -2.946   1.797  0.00  0.00    -0.062 A 
ATOM      5  C   UNL     1       7.704  -1.566   1.720  0.00  0.00    +0.020 A 
ATOM      6  C   UNL     1       6.508  -0.894   1.549  0.00  0.00    +0.061 A 
ATOM      7 BR   UNL     1       6.491   0.994   1.435  0.00  0.00    -0.046 Br
ATOM      8 BR   UNL     1       3.719  -3.965   1.427  0.00  0.00    -0.046 Br
ENDROOT
BRANCH   1   9
ATOM      9  O   UNL     1       4.141  -0.946   1.304  0.00  0.00    -0.485 OA
BRANCH   9  10
ATOM     10  C   UNL     1       3.711  -0.707  -0.038  0.00  0.00    +0.264 C 
BRANCH  10  14
ATOM     11  C   UNL     1      -0.017   1.378   0.010  0.00  0.00    +0.000 A 
ATOM     12  C   UNL     1       1.171   2.086   0.002  0.00  0.00    +0.000 A 
ATOM     13  C   UNL     1       2.377   1.411  -0.013  0.00  0.00    +0.007 A 
ATOM     14  C   UNL     1       2.396   0.029  -0.020  0.00  0.00    -0.010 A 
ATOM     15  C   UNL     1       1.208  -0.679  -0.012  0.00  0.00    +0.007 A 
ATOM     16  C   UNL     1       0.002  -0.004   0.002  0.00  0.00    +0.000 A 
ENDBRANCH  10  14
ENDBRANCH   9  10
ENDBRANCH   1   9
BRANCH   4  17
ATOM     17  C   UNL     1       9.023  -3.677   1.977  0.00  0.00    -0.047 C 
BRANCH  17  18
ATOM     18  N   UNL     1       9.595  -3.990   0.660  0.00  0.00    +0.382 N 
ATOM     19  H   UNL     1       8.952  -4.572   0.145  0.00  0.00    -0.085 HD
ATOM     20  H   UNL     1       9.755  -3.134   0.151  0.00  0.00    -0.085 HD
BRANCH  18  21
ATOM     21  C   UNL     1      10.867  -4.702   0.836  0.00  0.00    -0.080 C 
BRANCH  21  22
ATOM     22  C   UNL     1      11.463  -5.028  -0.535  0.00  0.00    +0.009 C 
BRANCH  22  23
ATOM     23  C   UNL     1      12.789  -5.769  -0.352  0.00  0.00    +0.154 C 
BRANCH  23  24
ATOM     24  O   UNL     1      13.344  -6.074  -1.633  0.00  0.00    -0.395 OA
ATOM     25  H   UNL     1      14.188  -6.545  -1.594  0.00  0.00    +0.209 HD
ENDBRANCH  23  24
ENDBRANCH  22  23
ENDBRANCH  21  22
ENDBRANCH  18  21
ENDBRANCH  17  18
ENDBRANCH   4  17
TORSDOF 9
