REMARK  Name = ZINC43477114
REMARK  6 active torsions:
REMARK  status: ('A' for Active; 'I' for Inactive)
REMARK    1  A    between atoms: C_1  and  C_2
REMARK    2  A    between atoms: C_2  and  C_4
REMARK    3  A    between atoms: C_2  and  N_12
REMARK    4  A    between atoms: N_12  and  C_13
REMARK    5  A    between atoms: C_13  and  C_14
REMARK    6  A    between atoms: C_17  and  O_21
REMARK                            x       y       z     vdW  Elec       q    Type
REMARK                         _______ _______ _______ _____ _____    ______ ____
ROOT
ATOM      1  N   UNL     1       0.690  -0.478  -1.207  0.00  0.00    +0.386 N 
ATOM      2  H   UNL     1       1.608  -0.063  -1.256  0.00  0.00    -0.085 HD
ATOM      3  H   UNL     1       0.776  -1.482  -1.172  0.00  0.00    -0.085 HD
ENDROOT
BRANCH   1   5
ATOM      4  C   UNL     1      -0.019   1.526   0.010  0.00  0.00    -0.009 C 
ATOM      5  C   UNL     1       0.002  -0.004   0.002  0.00  0.00    -0.044 C 
BRANCH   5   6
ATOM      6  C   UNL     1       0.731  -0.503   1.223  0.00  0.00    -0.060 A 
ATOM      7  C   UNL     1       2.113  -0.514   1.246  0.00  0.00    +0.003 A 
ATOM      8  C   UNL     1       2.783  -0.972   2.365  0.00  0.00    +0.021 A 
ATOM      9  C   UNL     1       2.070  -1.420   3.463  0.00  0.00    +0.059 A 
ATOM     10  C   UNL     1       0.686  -1.409   3.440  0.00  0.00    +0.059 A 
ATOM     11  C   UNL     1       0.017  -0.945   2.321  0.00  0.00    +0.023 A 
ATOM     12 CL   UNL     1      -0.210  -1.971   4.816  0.00  0.00    -0.082 Cl
ATOM     13 CL   UNL     1       2.911  -1.996   4.868  0.00  0.00    -0.082 Cl
ENDBRANCH   5   6
ENDBRANCH   1   5
BRANCH   1  14
ATOM     14  C   UNL     1      -0.086  -0.093  -2.394  0.00  0.00    -0.046 C 
BRANCH  14  15
ATOM     15  C   UNL     1       0.620  -0.579  -3.634  0.00  0.00    -0.063 A 
ATOM     16  C   UNL     1       1.552   0.229  -4.259  0.00  0.00    +0.005 A 
ATOM     17  C   UNL     1       2.200  -0.214  -5.396  0.00  0.00    +0.047 A 
ATOM     18  C   UNL     1       1.915  -1.470  -5.910  0.00  0.00    +0.135 A 
ATOM     19  C   UNL     1       0.980  -2.280  -5.281  0.00  0.00    +0.082 A 
ATOM     20  C   UNL     1       0.338  -1.834  -4.141  0.00  0.00    +0.025 A 
ATOM     21 CL   UNL     1       0.620  -3.853  -5.922  0.00  0.00    -0.080 Cl
BRANCH  18  22
ATOM     22  O   UNL     1       2.551  -1.907  -7.029  0.00  0.00    -0.505 OA
ATOM     23  H   UNL     1       3.374  -2.384  -6.853  0.00  0.00    +0.292 HD
ENDBRANCH  18  22
ENDBRANCH  14  15
ENDBRANCH   1  14
TORSDOF 5
