REMARK  Name = ZINC58033870
REMARK  4 active torsions:
REMARK  status: ('A' for Active; 'I' for Inactive)
REMARK    1  A    between atoms: C_4  and  N_13
REMARK    2  A    between atoms: C_6  and  N_7
REMARK    3  A    between atoms: N_16  and  C_17
REMARK    4  A    between atoms: C_17  and  C_18
REMARK                            x       y       z     vdW  Elec       q    Type
REMARK                         _______ _______ _______ _____ _____    ______ ____
ROOT
ATOM      1  N   UNL     1       3.829  -0.574  -0.046  0.00  0.00    -0.268 N 
ATOM      2  C   UNL     1       4.019  -1.802  -0.569  0.00  0.00    +0.304 C 
ATOM      3  O   UNL     1       3.099  -2.377  -1.119  0.00  0.00    -0.252 OA
ATOM      4  N   UNL     1       5.227  -2.392  -0.483  0.00  0.00    -0.293 N 
ATOM      5  H   UNL     1       4.581  -0.081   0.318  0.00  0.00    +0.156 HD
ATOM      6  H   UNL     1       5.961  -1.933  -0.044  0.00  0.00    +0.151 HD
ENDROOT
BRANCH   1  10
ATOM      7  C   UNL     1       0.014   1.114   0.002  0.00  0.00    +0.025 A 
ATOM      8  C   UNL     1       1.131   1.928   0.023  0.00  0.00    +0.023 A 
ATOM      9  C   UNL     1       2.396   1.371   0.007  0.00  0.00    +0.062 A 
ATOM     10  C   UNL     1       2.548  -0.010  -0.030  0.00  0.00    +0.055 A 
ATOM     11  C   UNL     1       1.429  -0.830  -0.050  0.00  0.00    +0.048 A 
ATOM     12  C   UNL     1       0.160  -0.267  -0.034  0.00  0.00    +0.038 A 
ATOM     13 CL   UNL     1       3.796   2.397   0.033  0.00  0.00    -0.082 Cl
BRANCH  12  14
ATOM     14  N   UNL     1      -0.971  -1.091  -0.055  0.00  0.00    -0.271 N 
ATOM     15  C   UNL     1      -0.931  -2.556   0.025  0.00  0.00    +0.114 C 
ATOM     16  C   UNL     1      -2.365  -2.987   0.404  0.00  0.00    +0.029 C 
ATOM     17  C   UNL     1      -3.203  -1.804  -0.133  0.00  0.00    +0.098 C 
ATOM     18  C   UNL     1      -2.235  -0.641  -0.144  0.00  0.00    +0.220 C 
ATOM     19  O   UNL     1      -2.553   0.526  -0.224  0.00  0.00    -0.275 OA
ENDBRANCH  12  14
ENDBRANCH   1  10
BRANCH   4  20
ATOM     20  C   UNL     1       5.433  -3.727  -1.051  0.00  0.00    +0.162 C 
BRANCH  20  21
ATOM     21  C   UNL     1       6.860  -4.155  -0.822  0.00  0.00    +0.078 A 
ATOM     22  C   UNL     1       7.298  -4.913   0.197  0.00  0.00    +0.118 A 
ATOM     23  N   UNL     1       8.672  -5.078   0.041  0.00  0.00    -0.300 N 
ATOM     24  C   UNL     1       9.712  -5.708   0.688  0.00  0.00    +0.100 A 
ATOM     25  C   UNL     1      10.955  -5.637   0.213  0.00  0.00    +0.067 A 
ATOM     26  S   UNL     1      10.735  -4.632  -1.246  0.00  0.00    -0.058 S 
ATOM     27  C   UNL     1       8.980  -4.386  -1.101  0.00  0.00    +0.178 A 
ATOM     28  N   UNL     1       7.906  -3.850  -1.605  0.00  0.00    -0.225 NA
ENDBRANCH  20  21
ENDBRANCH   4  20
TORSDOF 4
