REMARK  Name = ZINC41675425
REMARK  10 active torsions:
REMARK  status: ('A' for Active; 'I' for Inactive)
REMARK    1  A    between atoms: C_1  and  C_2
REMARK    2  A    between atoms: C_7  and  C_8
REMARK    3  A    between atoms: C_8  and  C_9
REMARK    4  A    between atoms: C_8  and  C_10
REMARK    5  A    between atoms: C_8  and  N_11
REMARK    6  A    between atoms: C_12  and  C_14
REMARK    7  A    between atoms: C_14  and  C_24
REMARK    8  A    between atoms: C_15  and  C_16
REMARK    9  A    between atoms: C_19  and  O_23
REMARK   10  A    between atoms: C_20  and  O_22
REMARK                            x       y       z     vdW  Elec       q    Type
REMARK                         _______ _______ _______ _____ _____    ______ ____
ROOT
ATOM      1  N   UNL     1       0.371  -0.663   3.667  0.00  0.00    -0.302 N 
ATOM      2  C   UNL     1       0.342  -0.207   4.934  0.00  0.00    +0.255 C 
ATOM      3  O   UNL     1       0.212   0.983   5.150  0.00  0.00    -0.269 OA
ATOM      4  H   UNL     1       0.474  -1.612   3.495  0.00  0.00    +0.150 HD
ENDROOT
BRANCH   1   5
ATOM      5  C   UNL     1       0.245   0.275   2.548  0.00  0.00    +0.055 C 
ATOM      6  C   UNL     1       1.394   1.285   2.598  0.00  0.00    +0.036 C 
ATOM      7  C   UNL     1      -1.090   1.015   2.650  0.00  0.00    +0.036 C 
BRANCH   5  14
ATOM      8  C   UNL     1      -1.730  -1.754   1.975  0.00  0.00    +0.044 C 
ATOM      9  C   UNL     1      -0.645  -1.455   0.973  0.00  0.00    -0.045 A 
ATOM     10  C   UNL     1      -0.598  -2.148  -0.222  0.00  0.00    +0.004 A 
ATOM     11  C   UNL     1       0.398  -1.874  -1.141  0.00  0.00    +0.000 A 
ATOM     12  C   UNL     1       1.346  -0.906  -0.865  0.00  0.00    +0.000 A 
ATOM     13  C   UNL     1       1.299  -0.213   0.330  0.00  0.00    +0.006 A 
ATOM     14  C   UNL     1       0.300  -0.485   1.247  0.00  0.00    -0.022 A 
ENDBRANCH   5  14
ENDBRANCH   1   5
BRANCH   2  15
ATOM     15  C   UNL     1       0.468  -1.149   6.058  0.00  0.00    +0.114 C 
ATOM     16  C   UNL     1       0.439  -0.682   7.354  0.00  0.00    +0.032 C 
BRANCH  16  17
ATOM     17  C   UNL     1       0.719  -1.593   8.466  0.00  0.00    -0.020 A 
ATOM     18  C   UNL     1       0.125  -1.378   9.719  0.00  0.00    +0.012 A 
ATOM     19  C   UNL     1       0.391  -2.236  10.761  0.00  0.00    +0.050 A 
ATOM     20  C   UNL     1       1.245  -3.316  10.578  0.00  0.00    +0.158 A 
ATOM     21  C   UNL     1       1.840  -3.538   9.335  0.00  0.00    +0.159 A 
ATOM     22  C   UNL     1       1.576  -2.687   8.281  0.00  0.00    +0.057 A 
BRANCH  21  23
ATOM     23  O   UNL     1       2.675  -4.597   9.161  0.00  0.00    -0.503 OA
ATOM     24  H   UNL     1       2.231  -5.405   8.872  0.00  0.00    +0.292 HD
ENDBRANCH  21  23
BRANCH  20  25
ATOM     25  O   UNL     1       1.503  -4.158  11.611  0.00  0.00    -0.503 OA
ATOM     26  H   UNL     1       0.891  -4.904  11.672  0.00  0.00    +0.292 HD
ENDBRANCH  20  25
ENDBRANCH  16  17
BRANCH  15  27
ATOM     27  C   UNL     1       0.621  -2.550   5.804  0.00  0.00    +0.104 C 
ATOM     28  N   UNL     1       0.742  -3.661   5.603  0.00  0.00    -0.191 NA
ENDBRANCH  15  27
ENDBRANCH   2  15
TORSDOF 7
