REMARK  Name = ZINC64526066
REMARK  6 active torsions:
REMARK  status: ('A' for Active; 'I' for Inactive)
REMARK    1  A    between atoms: C_1  and  N_2
REMARK    2  A    between atoms: N_2  and  C_3
REMARK    3  A    between atoms: C_3  and  C_4
REMARK    4  A    between atoms: C_4  and  C_5
REMARK    5  A    between atoms: C_8  and  C_11
REMARK    6  A    between atoms: C_22  and  C_24
REMARK                            x       y       z     vdW  Elec       q    Type
REMARK                         _______ _______ _______ _____ _____    ______ ____
ROOT
ATOM      1  C   UNL     1      -0.379  -1.506   3.302  0.00  0.00    +0.139 C 
ATOM      2  N   UNL     1       0.611  -2.284   3.550  0.00  0.00    -0.072 NA
ATOM      3  O   UNL     1       0.463  -2.910   4.810  0.00  0.00    -0.367 OA
ATOM      4  C   UNL     1      -0.775  -2.428   5.357  0.00  0.00    +0.318 C 
ATOM      5  N   UNL     1      -1.289  -1.505   4.333  0.00  0.00    -0.291 N 
ATOM      6  H   UNL     1      -2.113  -0.994   4.377  0.00  0.00    +0.151 HD
ENDROOT
BRANCH   4   7
ATOM      7  C   UNL     1      -1.748  -3.587   5.580  0.00  0.00    +0.165 C 
ATOM      8  C   UNL     1      -1.965  -4.343   4.288  0.00  0.00    +0.012 C 
ATOM      9  C   UNL     1      -1.543  -5.607   4.517  0.00  0.00    -0.002 A 
ATOM     10  C   UNL     1      -1.490  -6.806   3.673  0.00  0.00    +0.029 A 
ATOM     11  C   UNL     1      -1.004  -7.956   4.195  0.00  0.00    +0.042 A 
ATOM     12  C   UNL     1      -0.549  -8.029   5.520  0.00  0.00    +0.022 A 
ATOM     13  C   UNL     1      -0.566  -6.970   6.356  0.00  0.00    +0.027 A 
ATOM     14  C   UNL     1      -1.057  -5.711   5.912  0.00  0.00    +0.043 A 
ATOM     15  N   UNL     1      -1.175  -4.555   6.522  0.00  0.00    -0.373 N 
ATOM     16 CL   UNL     1      -0.941  -9.377   3.199  0.00  0.00    -0.084 Cl
ATOM     17  H   UNL     1      -0.925  -4.371   7.441  0.00  0.00    +0.160 HD
ENDBRANCH   4   7
BRANCH   1  18
ATOM     18  C   UNL     1      -0.523  -0.691   2.043  0.00  0.00    +0.094 C 
BRANCH  18  19
ATOM     19  C   UNL     1       0.677  -0.948   1.129  0.00  0.00    +0.115 C 
BRANCH  19  21
ATOM     20  C   UNL     1       1.089   1.200  -0.158  0.00  0.00    +0.132 C 
ATOM     21  N   UNL     1       0.536  -0.155  -0.095  0.00  0.00    -0.300 N 
ATOM     22  C   UNL     1      -0.102  -0.673  -1.163  0.00  0.00    +0.249 C 
ATOM     23  O   UNL     1      -0.659  -1.750  -1.076  0.00  0.00    -0.270 OA
BRANCH  22  24
ATOM     24  C   UNL     1      -0.124   0.067  -2.438  0.00  0.00    +0.074 A 
ATOM     25  C   UNL     1       0.614   1.295  -2.766  0.00  0.00    +0.054 A 
ATOM     26  C   UNL     1       0.284   1.597  -4.031  0.00  0.00    +0.195 A 
ATOM     27  O   UNL     1      -0.576   0.676  -4.493  0.00  0.00    -0.470 OA
ATOM     28  C   UNL     1      -0.829  -0.249  -3.562  0.00  0.00    +0.207 A 
ENDBRANCH  22  24
ENDBRANCH  19  21
ENDBRANCH  18  19
ENDBRANCH   1  18
TORSDOF 5
