REMARK  Name = ZINC33536659
REMARK  5 active torsions:
REMARK  status: ('A' for Active; 'I' for Inactive)
REMARK    1  A    between atoms: C_3  and  C_6
REMARK    2  A    between atoms: C_15  and  C_19
REMARK    3  A    between atoms: N_21  and  C_22
REMARK    4  A    between atoms: C_22  and  C_23
REMARK    5  A    between atoms: C_23  and  C_24
REMARK                            x       y       z     vdW  Elec       q    Type
REMARK                         _______ _______ _______ _____ _____    ______ ____
ROOT
ATOM      1  C   UNL     1      -7.985   3.090  -1.492  0.00  0.00    +0.253 C 
ATOM      2  O   UNL     1      -8.045   3.194  -2.703  0.00  0.00    -0.269 OA
ATOM      3  N   UNL     1      -7.133   2.208  -0.933  0.00  0.00    -0.297 N 
ATOM      4  C   UNL     1      -6.324   1.315  -1.774  0.00  0.00    +0.107 C 
ATOM      5  C   UNL     1      -6.568  -0.132  -1.332  0.00  0.00    +0.017 C 
ATOM      6  C   UNL     1      -6.327  -0.253   0.165  0.00  0.00    -0.016 C 
ATOM      7  C   UNL     1      -7.240   0.670   0.958  0.00  0.00    +0.017 C 
ATOM      8  C   UNL     1      -6.998   2.121   0.527  0.00  0.00    +0.107 C 
ATOM      9  N   UNL     1      -4.909  -0.009   0.498  0.00  0.00    +0.397 N 
ATOM     10  C   UNL     1      -4.105  -1.246   0.436  0.00  0.00    +0.028 C 
ATOM     11  C   UNL     1      -4.853  -2.366   1.221  0.00  0.00    +0.061 C 
ATOM     12  S   UNL     1      -6.584  -1.991   0.699  0.00  0.00    -0.174 S 
ATOM     13  H   UNL     1      -4.484   0.713  -0.214  0.00  0.00    -0.083 HD
ATOM     14  H   UNL     1      -4.837   0.397   1.518  0.00  0.00    -0.083 HD
ENDROOT
BRANCH   1  17
ATOM     15  C   UNL     1     -10.715   5.125   0.117  0.00  0.00    +0.008 A 
ATOM     16  C   UNL     1     -10.142   4.344  -0.855  0.00  0.00    +0.021 A 
ATOM     17  C   UNL     1      -8.838   3.925  -0.641  0.00  0.00    +0.074 A 
ATOM     18  S   UNL     1      -8.468   4.671   0.936  0.00  0.00    -0.092 S 
ATOM     19  C   UNL     1      -9.989   5.454   1.217  0.00  0.00    +0.046 A 
ENDBRANCH   1  17
BRANCH  10  20
ATOM     20  C   UNL     1      -2.755  -1.005   1.061  0.00  0.00    +0.200 C 
ATOM     21  O   UNL     1      -2.485   0.085   1.520  0.00  0.00    -0.278 OA
ATOM     22  N   UNL     1      -1.848  -2.000   1.110  0.00  0.00    -0.316 N 
ATOM     23  H   UNL     1      -2.095  -2.990   0.698  0.00  0.00    +0.149 HD
BRANCH  22  24
ATOM     24  C   UNL     1      -0.533  -1.764   1.712  0.00  0.00    +0.109 C 
BRANCH  24  25
ATOM     25  C   UNL     1       0.301  -3.044   1.634  0.00  0.00    +0.055 C 
BRANCH  25  26
ATOM     26  C   UNL     1       1.653  -2.801   2.253  0.00  0.00    -0.027 A 
ATOM     27  C   UNL     1       1.907  -3.223   3.545  0.00  0.00    +0.006 A 
ATOM     28  C   UNL     1       3.147  -3.001   4.113  0.00  0.00    +0.020 A 
ATOM     29  C   UNL     1       4.135  -2.356   3.390  0.00  0.00    +0.042 A 
ATOM     30  C   UNL     1       3.881  -1.933   2.098  0.00  0.00    +0.040 A 
ATOM     31  C   UNL     1       2.641  -2.160   1.528  0.00  0.00    +0.046 A 
ATOM     32 CL   UNL     1       2.323  -1.636  -0.097  0.00  0.00    -0.083 Cl
ATOM     33 CL   UNL     1       5.692  -2.076   4.104  0.00  0.00    -0.083 Cl
ENDBRANCH  25  26
ENDBRANCH  24  25
ENDBRANCH  22  24
ENDBRANCH  10  20
TORSDOF 5
