REMARK  Name = ZINC43221159
REMARK  11 active torsions:
REMARK  status: ('A' for Active; 'I' for Inactive)
REMARK    1  A    between atoms: C_1  and  C_2
REMARK    2  A    between atoms: C_2  and  C_3
REMARK    3  A    between atoms: C_3  and  C_4
REMARK    4  A    between atoms: C_4  and  N_5
REMARK    5  A    between atoms: C_10  and  C_28
REMARK    6  A    between atoms: C_13  and  C_18
REMARK    7  A    between atoms: C_13  and  C_25
REMARK    8  A    between atoms: C_18  and  C_19
REMARK    9  A    between atoms: C_32  and  O_35
REMARK   10  A    between atoms: C_33  and  O_34
REMARK   11  A    between atoms: O_35  and  C_36
REMARK                            x       y       z     vdW  Elec       q    Type
REMARK                         _______ _______ _______ _____ _____    ______ ____
ROOT
ATOM      1  N   UNL     1       1.546  -2.572   2.483  0.00  0.00    -0.242 N 
ATOM      2  C   UNL     1       2.897  -2.814   2.466  0.00  0.00    +0.224 C 
ATOM      3  O   UNL     1       3.703  -2.461   1.632  0.00  0.00    -0.275 OA
ATOM      4  C   UNL     1       3.145  -3.583   3.663  0.00  0.00    +0.077 C 
ATOM      5  C   UNL     1       4.255  -3.971   4.545  0.00  0.00    -0.023 C 
ATOM      6  N   UNL     1       3.585  -4.396   5.819  0.00  0.00    +0.396 N 
ATOM      7  C   UNL     1       2.119  -4.122   5.670  0.00  0.00    +0.052 C 
ATOM      8  C   UNL     1       2.110  -2.944   4.673  0.00  0.00    +0.086 C 
ATOM      9  C   UNL     1       0.974  -2.851   3.692  0.00  0.00    +0.225 C 
ATOM     10  O   UNL     1      -0.206  -2.996   3.926  0.00  0.00    -0.275 OA
ATOM     11  H   UNL     1       3.736  -5.383   5.971  0.00  0.00    -0.083 HD
ATOM     12  H   UNL     1       3.956  -3.868   6.594  0.00  0.00    -0.083 HD
ENDROOT
BRANCH   5  13
ATOM     13  C   UNL     1       5.166  -2.796   4.793  0.00  0.00    -0.015 A 
ATOM     14  C   UNL     1       4.949  -1.971   5.882  0.00  0.00    +0.006 A 
ATOM     15  C   UNL     1       5.783  -0.893   6.112  0.00  0.00    +0.004 A 
ATOM     16  C   UNL     1       6.836  -0.634   5.255  0.00  0.00    +0.049 A 
ATOM     17  C   UNL     1       7.059  -1.456   4.162  0.00  0.00    +0.161 A 
ATOM     18  C   UNL     1       6.223  -2.546   3.934  0.00  0.00    +0.160 A 
BRANCH  18  19
ATOM     19  O   UNL     1       6.441  -3.360   2.866  0.00  0.00    -0.503 OA
ATOM     20  H   UNL     1       5.980  -3.085   2.062  0.00  0.00    +0.292 HD
ENDBRANCH  18  19
BRANCH  17  21
ATOM     21  O   UNL     1       8.094  -1.203   3.318  0.00  0.00    -0.491 OA
ATOM     22  C   UNL     1       8.914  -0.071   3.618  0.00  0.00    +0.277 C 
ENDBRANCH  17  21
ENDBRANCH   5  13
BRANCH   7  23
ATOM     23  C   UNL     1       1.518  -3.702   6.987  0.00  0.00    +0.347 C 
ATOM     24  O   UNL     1       2.215  -3.652   7.987  0.00  0.00    -0.248 OA
ATOM     25  O   UNL     1       0.336  -3.411   7.053  0.00  0.00    -0.248 OA
ENDBRANCH   7  23
BRANCH   1  26
ATOM     26  C   UNL     1       0.798  -2.064   1.330  0.00  0.00    +0.116 C 
BRANCH  26  27
ATOM     27  C   UNL     1       0.792  -0.534   1.361  0.00  0.00    +0.019 C 
BRANCH  27  29
ATOM     28  C   UNL     1       0.005   1.526   0.188  0.00  0.00    +0.004 C 
ATOM     29  C   UNL     1       0.011  -0.004   0.157  0.00  0.00    -0.002 C 
ENDBRANCH  27  29
ENDBRANCH  26  27
ENDBRANCH   1  26
BRANCH   7  30
ATOM     30  C   UNL     1       1.393  -5.346   5.108  0.00  0.00    +0.035 C 
BRANCH  30  31
ATOM     31  C   UNL     1       1.503  -6.488   6.085  0.00  0.00    -0.048 A 
ATOM     32  C   UNL     1       2.568  -7.366   6.006  0.00  0.00    +0.003 A 
ATOM     33  C   UNL     1       2.669  -8.413   6.902  0.00  0.00    +0.000 A 
ATOM     34  C   UNL     1       1.704  -8.584   7.877  0.00  0.00    +0.000 A 
ATOM     35  C   UNL     1       0.639  -7.706   7.957  0.00  0.00    +0.000 A 
ATOM     36  C   UNL     1       0.541  -6.656   7.064  0.00  0.00    +0.003 A 
ENDBRANCH  30  31
ENDBRANCH   7  30
TORSDOF 9
