REMARK  Name = ZINC04794094
REMARK  6 active torsions:
REMARK  status: ('A' for Active; 'I' for Inactive)
REMARK    1  A    between atoms: C_1  and  C_2
REMARK    2  A    between atoms: C_5  and  N_8
REMARK    3  A    between atoms: C_13  and  C_15
REMARK    4  A    between atoms: C_16  and  C_18
REMARK    5  A    between atoms: N_21  and  S_24
REMARK    6  A    between atoms: S_24  and  C_27
REMARK                            x       y       z     vdW  Elec       q    Type
REMARK                         _______ _______ _______ _____ _____    ______ ____
ROOT
ATOM      1  N   UNL     1      -2.753  -5.959  -3.172  0.00  0.00    -0.324 N 
ATOM      2  C   UNL     1      -1.976  -4.713  -3.198  0.00  0.00    +0.124 C 
ATOM      3  C   UNL     1      -1.434  -4.423  -1.800  0.00  0.00    +0.126 C 
ATOM      4  N   UNL     1      -2.553  -4.439  -0.846  0.00  0.00    -0.298 N 
ATOM      5  C   UNL     1      -3.460  -5.597  -0.856  0.00  0.00    +0.130 C 
ATOM      6  C   UNL     1      -3.926  -5.838  -2.296  0.00  0.00    +0.088 C 
ATOM      7  C   UNL     1      -4.745  -7.128  -2.358  0.00  0.00    +0.029 C 
ATOM      8  C   UNL     1      -2.746  -3.417   0.011  0.00  0.00    +0.219 C 
ATOM      9  O   UNL     1      -2.028  -2.441  -0.037  0.00  0.00    -0.275 OA
ENDROOT
BRANCH   1  14
ATOM     10  C   UNL     1      -4.282  -7.509  -8.409  0.00  0.00    +0.044 C 
ATOM     11  C   UNL     1      -3.876  -7.097  -7.017  0.00  0.00    -0.050 A 
ATOM     12  C   UNL     1      -4.276  -5.872  -6.516  0.00  0.00    +0.005 A 
ATOM     13  C   UNL     1      -3.905  -5.491  -5.241  0.00  0.00    +0.023 A 
ATOM     14  C   UNL     1      -3.130  -6.341  -4.462  0.00  0.00    +0.030 A 
ATOM     15  C   UNL     1      -2.726  -7.569  -4.971  0.00  0.00    +0.023 A 
ATOM     16  C   UNL     1      -3.104  -7.945  -6.244  0.00  0.00    +0.005 A 
ENDBRANCH   1  14
BRANCH   8  17
ATOM     17  C   UNL     1      -3.854  -3.487   1.030  0.00  0.00    +0.078 C 
ATOM     18  C   UNL     1      -3.984  -2.135   1.736  0.00  0.00    +0.030 C 
ATOM     19  C   UNL     1      -5.134  -2.199   2.747  0.00  0.00    +0.110 C 
ATOM     20  N   UNL     1      -4.905  -3.334   3.652  0.00  0.00    -0.176 NA
ATOM     21  C   UNL     1      -4.672  -4.664   3.073  0.00  0.00    +0.110 C 
ATOM     22  C   UNL     1      -3.533  -4.573   2.059  0.00  0.00    +0.030 C 
BRANCH  20  23
ATOM     23  S   UNL     1      -4.902  -3.116   5.293  0.00  0.00    +0.067 S 
ATOM     24  O   UNL     1      -4.135  -4.178   5.843  0.00  0.00    -0.152 OA
ATOM     25  O   UNL     1      -4.584  -1.750   5.521  0.00  0.00    -0.152 OA
BRANCH  23  26
ATOM     26  C   UNL     1      -6.557  -3.347   5.853  0.00  0.00    +0.144 A 
ATOM     27  C   UNL     1      -7.170  -4.487   6.254  0.00  0.00    +0.037 A 
ATOM     28  C   UNL     1      -8.491  -4.431   6.660  0.00  0.00    +0.025 A 
ATOM     29  C   UNL     1      -9.136  -3.239   6.633  0.00  0.00    +0.057 A 
ATOM     30  S   UNL     1      -7.863  -2.143   6.029  0.00  0.00    -0.062 S 
ATOM     31 BR   UNL     1     -10.921  -2.840   7.113  0.00  0.00    -0.043 Br
ENDBRANCH  23  26
ENDBRANCH  20  23
ENDBRANCH   8  17
TORSDOF 4
