REMARK  Name = ZINC60361368
REMARK  7 active torsions:
REMARK  status: ('A' for Active; 'I' for Inactive)
REMARK    1  A    between atoms: C_1  and  C_2
REMARK    2  A    between atoms: C_2  and  C_4
REMARK    3  A    between atoms: C_2  and  N_14
REMARK    4  A    between atoms: N_9  and  C_10
REMARK    5  A    between atoms: C_10  and  C_11
REMARK    6  A    between atoms: C_10  and  C_12
REMARK    7  A    between atoms: C_10  and  C_13
REMARK                            x       y       z     vdW  Elec       q    Type
REMARK                         _______ _______ _______ _____ _____    ______ ____
ROOT
ATOM      1  N   UNL     1       0.365  -0.910   1.100  0.00  0.00    +0.392 N 
ATOM      2  C   UNL     1       0.098  -2.289   0.691  0.00  0.00    -0.041 C 
ATOM      3  C   UNL     1      -1.371  -2.602   0.724  0.00  0.00    -0.056 A 
ATOM      4  C   UNL     1      -2.119  -2.638  -0.433  0.00  0.00    +0.002 A 
ATOM      5  C   UNL     1      -3.467  -2.947  -0.375  0.00  0.00    +0.000 A 
ATOM      6  C   UNL     1      -4.072  -3.224   0.838  0.00  0.00    +0.001 A 
ATOM      7  C   UNL     1      -3.333  -3.185   2.006  0.00  0.00    +0.009 A 
ATOM      8  C   UNL     1      -1.984  -2.865   1.951  0.00  0.00    -0.016 A 
ATOM      9  C   UNL     1      -1.157  -2.761   3.178  0.00  0.00    -0.016 A 
ATOM     10  C   UNL     1      -1.170  -3.751   4.152  0.00  0.00    +0.009 A 
ATOM     11  C   UNL     1      -0.367  -3.618   5.269  0.00  0.00    +0.001 A 
ATOM     12  C   UNL     1       0.443  -2.505   5.412  0.00  0.00    +0.000 A 
ATOM     13  C   UNL     1       0.452  -1.514   4.446  0.00  0.00    +0.002 A 
ATOM     14  C   UNL     1      -0.352  -1.632   3.333  0.00  0.00    -0.056 A 
ATOM     15  C   UNL     1      -0.403  -0.549   2.292  0.00  0.00    -0.041 C 
ATOM     16  H   UNL     1       1.349  -0.810   1.298  0.00  0.00    -0.080 HD
ENDROOT
BRANCH   1  18
ATOM     17  C   UNL     1       0.195   1.446   0.452  0.00  0.00    -0.004 C 
ATOM     18  C   UNL     1       0.002  -0.004   0.002  0.00  0.00    +0.017 C 
BRANCH  18  19
ATOM     19  C   UNL     1       0.882  -0.282  -1.190  0.00  0.00    +0.207 C 
ATOM     20  O   UNL     1       1.991  -0.743  -1.030  0.00  0.00    -0.277 OA
ATOM     21  N   UNL     1       0.435  -0.017  -2.433  0.00  0.00    -0.242 N 
ATOM     22  C   UNL     1       1.222  -0.265  -3.499  0.00  0.00    +0.306 C 
ATOM     23  O   UNL     1       2.334  -0.728  -3.339  0.00  0.00    -0.252 OA
ATOM     24  N   UNL     1       0.775   0.000  -4.743  0.00  0.00    -0.294 N 
ATOM     25  H   UNL     1      -0.453   0.353  -2.561  0.00  0.00    +0.159 HD
ATOM     26  H   UNL     1      -0.113   0.370  -4.871  0.00  0.00    +0.151 HD
BRANCH  24  27
ATOM     27  C   UNL     1       1.630  -0.269  -5.901  0.00  0.00    +0.028 C 
ATOM     28  C   UNL     1       1.977  -1.759  -5.943  0.00  0.00    +0.031 C 
ATOM     29  C   UNL     1       0.889   0.118  -7.183  0.00  0.00    +0.031 C 
ATOM     30  C   UNL     1       2.916   0.551  -5.788  0.00  0.00    +0.031 C 
ENDBRANCH  24  27
ENDBRANCH  18  19
ENDBRANCH   1  18
TORSDOF 3
