REMARK  Name = ZINC13127105
REMARK  5 active torsions:
REMARK  status: ('A' for Active; 'I' for Inactive)
REMARK    1  A    between atoms: C_4  and  C_7
REMARK    2  A    between atoms: C_10  and  C_24
REMARK    3  A    between atoms: N_17  and  C_18
REMARK    4  A    between atoms: C_18  and  C_19
REMARK    5  A    between atoms: C_29  and  O_30
REMARK                            x       y       z     vdW  Elec       q    Type
REMARK                         _______ _______ _______ _____ _____    ______ ____
ROOT
ATOM      1  C   UNL     1       3.711  -0.707  -0.038  0.00  0.00    +0.142 C 
ATOM      2  C   UNL     1       4.047  -1.198   1.344  0.00  0.00    +0.035 A 
ATOM      3  C   UNL     1       4.308  -0.887   2.640  0.00  0.00    +0.075 A 
ATOM      4  N   UNL     1       4.533  -2.067   3.289  0.00  0.00    -0.276 N 
ATOM      5  H   UNL     1       4.745  -2.154   4.231  0.00  0.00    +0.189 HD
ATOM      6  N   UNL     1       4.422  -3.048   2.465  0.00  0.00    -0.168 NA
ATOM      7  C   UNL     1       4.127  -2.606   1.258  0.00  0.00    +0.153 A 
ATOM      8  C   UNL     1       3.849  -2.991  -0.137  0.00  0.00    +0.268 C 
ATOM      9  O   UNL     1       3.838  -4.133  -0.553  0.00  0.00    -0.268 OA
ATOM     10  N   UNL     1       3.610  -1.900  -0.887  0.00  0.00    -0.278 N 
ENDROOT
BRANCH   1  14
ATOM     11  C   UNL     1      -0.017   1.378   0.010  0.00  0.00    +0.000 A 
ATOM     12  C   UNL     1       1.171   2.086   0.002  0.00  0.00    +0.000 A 
ATOM     13  C   UNL     1       2.377   1.411  -0.013  0.00  0.00    +0.006 A 
ATOM     14  C   UNL     1       2.396   0.029  -0.020  0.00  0.00    -0.022 A 
ATOM     15  C   UNL     1       1.208  -0.679  -0.012  0.00  0.00    +0.006 A 
ATOM     16  C   UNL     1       0.002  -0.004   0.002  0.00  0.00    +0.000 A 
ENDBRANCH   1  14
BRANCH   3  17
ATOM     17  C   UNL     1       4.343   0.468   3.235  0.00  0.00    +0.042 A 
ATOM     18  C   UNL     1       5.539   0.985   3.732  0.00  0.00    +0.013 A 
ATOM     19  C   UNL     1       5.566   2.248   4.284  0.00  0.00    +0.001 A 
ATOM     20  C   UNL     1       4.409   3.006   4.348  0.00  0.00    +0.004 A 
ATOM     21  C   UNL     1       3.218   2.504   3.858  0.00  0.00    +0.046 A 
ATOM     22  C   UNL     1       3.177   1.239   3.295  0.00  0.00    +0.126 A 
BRANCH  22  23
ATOM     23  O   UNL     1       2.008   0.747   2.808  0.00  0.00    -0.506 OA
ATOM     24  H   UNL     1       1.484   0.262   3.460  0.00  0.00    +0.292 HD
ENDBRANCH  22  23
ENDBRANCH   3  17
BRANCH  10  25
ATOM     25  C   UNL     1       3.299  -1.901  -2.318  0.00  0.00    +0.183 C 
BRANCH  25  26
ATOM     26  C   UNL     1       4.577  -1.803  -3.111  0.00  0.00    +0.122 A 
ATOM     27  C   UNL     1       5.314  -2.841  -3.544  0.00  0.00    +0.046 A 
ATOM     28  C   UNL     1       6.419  -2.297  -4.239  0.00  0.00    +0.041 A 
ATOM     29  C   UNL     1       6.290  -0.959  -4.189  0.00  0.00    +0.195 A 
ATOM     30  O   UNL     1       5.169  -0.666  -3.509  0.00  0.00    -0.466 OA
ENDBRANCH  25  26
ENDBRANCH  10  25
TORSDOF 5
