REMARK  Name = ZINC08156410
REMARK  6 active torsions:
REMARK  status: ('A' for Active; 'I' for Inactive)
REMARK    1  A    between atoms: C_1  and  N_48
REMARK    2  A    between atoms: C_2  and  C_3
REMARK    3  A    between atoms: C_2  and  N_48
REMARK    4  A    between atoms: C_9  and  C_14
REMARK    5  A    between atoms: C_19  and  C_20
REMARK    6  A    between atoms: C_19  and  N_48
REMARK                            x       y       z     vdW  Elec       q    Type
REMARK                         _______ _______ _______ _____ _____    ______ ____
ROOT
ATOM      1  C   UNL     1       1.425   9.877   0.768  0.00  0.00    +0.094 A 
ATOM      2  N   UNL     1       1.840  11.120   0.412  0.00  0.00    -0.312 N 
ATOM      3  H   UNL     1       1.286  11.658  -0.222  0.00  0.00    +0.170 HD
ATOM      4  C   UNL     1       2.982  11.641   0.898  0.00  0.00    +0.260 A 
ATOM      5  O   UNL     1       3.338  12.761   0.573  0.00  0.00    -0.267 OA
ATOM      6  C   UNL     1       3.774  10.859   1.797  0.00  0.00    +0.083 A 
ATOM      7  C   UNL     1       5.037  11.196   2.446  0.00  0.00    +0.039 A 
ATOM      8  C   UNL     1       5.610  10.282   3.269  0.00  0.00    +0.059 A 
ATOM      9  S   UNL     1       4.474   8.909   3.216  0.00  0.00    -0.076 S 
ATOM     10  C   UNL     1       3.269   9.585   2.103  0.00  0.00    +0.116 A 
ATOM     11  N   UNL     1       2.127   9.139   1.586  0.00  0.00    -0.229 NA
ENDROOT
BRANCH   7  12
ATOM     12  C   UNL     1       5.679  12.505   2.211  0.00  0.00    +0.136 A 
ATOM     13  C   UNL     1       6.128  13.358   3.171  0.00  0.00    +0.050 A 
ATOM     14  C   UNL     1       6.666  14.476   2.501  0.00  0.00    +0.042 A 
ATOM     15  C   UNL     1       6.513  14.257   1.181  0.00  0.00    +0.196 A 
ATOM     16  O   UNL     1       5.916  13.065   1.009  0.00  0.00    -0.463 OA
ENDBRANCH   7  12
BRANCH   1  17
ATOM     17  C   UNL     1       0.137   9.336   0.203  0.00  0.00    -0.003 C 
BRANCH  17  19
ATOM     18  C   UNL     1      -0.334   8.009   2.173  0.00  0.00    -0.095 C 
ATOM     19  N   UNL     1      -0.072   7.966   0.719  0.00  0.00    +0.385 N 
ATOM     20  H   UNL     1       0.775   7.413   0.548  0.00  0.00    -0.081 HD
BRANCH  19  21
ATOM     21  C   UNL     1      -1.209   7.332   0.019  0.00  0.00    -0.030 C 
BRANCH  21  22
ATOM     22  C   UNL     1      -1.263   5.852   0.407  0.00  0.00    +0.194 C 
ATOM     23  C   UNL     1      -2.424   5.167  -0.326  0.00  0.00    +0.271 C 
ATOM     24  O   UNL     1      -2.437   3.785   0.048  0.00  0.00    -0.485 OA
ATOM     25  C   UNL     1      -1.241   3.136   0.030  0.00  0.00    +0.162 A 
ATOM     26  C   UNL     1      -1.219   1.749   0.017  0.00  0.00    +0.049 A 
ATOM     27  C   UNL     1      -0.013   1.076   0.008  0.00  0.00    +0.004 A 
ATOM     28  C   UNL     1       1.176   1.782   0.000  0.00  0.00    +0.004 A 
ATOM     29  C   UNL     1       1.161   3.164   0.007  0.00  0.00    +0.049 A 
ATOM     30  C   UNL     1      -0.046   3.846   0.020  0.00  0.00    +0.162 A 
ATOM     31  O   UNL     1      -0.045   5.207   0.019  0.00  0.00    -0.484 OA
ENDBRANCH  21  22
ENDBRANCH  19  21
ENDBRANCH  17  19
ENDBRANCH   1  17
TORSDOF 5
