REMARK  Name = ZINC41584718
REMARK  5 active torsions:
REMARK  status: ('A' for Active; 'I' for Inactive)
REMARK    1  A    between atoms: C_1  and  C_2
REMARK    2  A    between atoms: C_4  and  O_37
REMARK    3  A    between atoms: C_5  and  C_20
REMARK    4  A    between atoms: C_11  and  C_12
REMARK    5  A    between atoms: C_20  and  N_21
REMARK                            x       y       z     vdW  Elec       q    Type
REMARK                         _______ _______ _______ _____ _____    ______ ____
ROOT
ATOM      1  C   UNL     1      -0.653   1.598   0.132  0.00  0.00    +0.045 C 
ATOM      2  C   UNL     1      -0.758   0.095   0.111  0.00  0.00    -0.033 A 
ATOM      3  C   UNL     1      -1.036  -0.556  -1.058  0.00  0.00    +0.050 A 
ATOM      4  C   UNL     1      -1.133  -1.944  -1.079  0.00  0.00    +0.122 A 
ATOM      5  C   UNL     1      -0.951  -2.681   0.080  0.00  0.00    +0.020 A 
ATOM      6  C   UNL     1      -0.668  -2.035   1.277  0.00  0.00    +0.145 A 
ATOM      7  C   UNL     1      -0.567  -0.634   1.285  0.00  0.00    +0.071 A 
ATOM      8  C   UNL     1      -0.256  -0.248   2.673  0.00  0.00    +0.232 C 
ATOM      9  O   UNL     1      -0.090   0.875   3.116  0.00  0.00    -0.283 OA
ATOM     10  C   UNL     1      -0.192  -1.522   3.405  0.00  0.00    +0.176 C 
ATOM     11  C   UNL     1       0.069  -1.675   4.728  0.00  0.00    +0.061 C 
ATOM     12  O   UNL     1      -0.452  -2.515   2.521  0.00  0.00    -0.451 OA
ENDROOT
BRANCH  11  13
ATOM     13  C   UNL     1      -0.018  -3.005   5.345  0.00  0.00    +0.014 A 
ATOM     14  C   UNL     1      -0.009  -4.154   4.545  0.00  0.00    +0.011 A 
ATOM     15  C   UNL     1      -0.090  -5.398   5.132  0.00  0.00    +0.001 A 
ATOM     16  C   UNL     1      -0.180  -5.516   6.509  0.00  0.00    +0.003 A 
ATOM     17  C   UNL     1      -0.189  -4.388   7.309  0.00  0.00    +0.039 A 
ATOM     18  C   UNL     1      -0.103  -3.132   6.738  0.00  0.00    +0.131 A 
ATOM     19  F   UNL     1      -0.106  -2.030   7.520  0.00  0.00    -0.205 F 
ENDBRANCH  11  13
BRANCH   4  20
ATOM     20  O   UNL     1      -1.409  -2.581  -2.245  0.00  0.00    -0.506 OA
ATOM     21  H   UNL     1      -0.625  -2.824  -2.756  0.00  0.00    +0.292 HD
ENDBRANCH   4  20
BRANCH   5  22
ATOM     22  C   UNL     1      -1.060  -4.184   0.043  0.00  0.00    -0.036 C 
BRANCH  22  23
ATOM     23  N   UNL     1       0.260  -4.764  -0.241  0.00  0.00    +0.383 N 
ATOM     24  C   UNL     1       0.180  -6.224  -0.151  0.00  0.00    -0.073 C 
ATOM     25  C   UNL     1       1.527  -6.868  -0.441  0.00  0.00    -0.007 C 
ATOM     26  C   UNL     1       2.051  -6.433  -1.813  0.00  0.00    +0.011 C 
ATOM     27  C   UNL     1       2.112  -4.901  -1.816  0.00  0.00    +0.020 C 
ATOM     28  C   UNL     1       0.686  -4.370  -1.592  0.00  0.00    -0.069 C 
ATOM     29  C   UNL     1       2.970  -4.438  -0.660  0.00  0.00    +0.023 A 
ATOM     30  C   UNL     1       3.631  -3.259  -0.802  0.00  0.00    +0.022 A 
ATOM     31  C   UNL     1       4.391  -2.740   0.252  0.00  0.00    +0.007 A 
ATOM     32  C   UNL     1       4.436  -3.424   1.431  0.00  0.00    +0.070 A 
ATOM     33  C   UNL     1       3.740  -4.635   1.545  0.00  0.00    +0.251 A 
ATOM     34  O   UNL     1       3.722  -5.223   2.614  0.00  0.00    -0.268 OA
ATOM     35  N   UNL     1       3.085  -5.158   0.480  0.00  0.00    -0.312 N 
ATOM     36  C   UNL     1       2.560  -6.514   0.616  0.00  0.00    +0.126 C 
ATOM     37  H   UNL     1       0.928  -4.423   0.434  0.00  0.00    -0.081 HD
ENDBRANCH  22  23
ENDBRANCH   5  22
TORSDOF 4
