REMARK  Name = ZINC04427969
REMARK  8 active torsions:
REMARK  status: ('A' for Active; 'I' for Inactive)
REMARK    1  A    between atoms: C_1  and  C_2
REMARK    2  A    between atoms: C_17  and  C_29
REMARK    3  A    between atoms: C_22  and  C_23
REMARK    4  A    between atoms: C_22  and  O_28
REMARK    5  A    between atoms: C_23  and  N_24
REMARK    6  A    between atoms: N_24  and  C_25
REMARK    7  A    between atoms: C_25  and  C_26
REMARK    8  A    between atoms: C_26  and  O_27
REMARK                            x       y       z     vdW  Elec       q    Type
REMARK                         _______ _______ _______ _____ _____    ______ ____
ROOT
ATOM      1  C   UNL     1      -0.241   1.484  -0.106  0.00  0.00    +0.012 C 
ATOM      2  C   UNL     1      -0.190  -0.039  -0.108  0.00  0.00    -0.026 C 
ATOM      3  C   UNL     1      -1.614  -0.600  -0.179  0.00  0.00    +0.007 C 
ATOM      4  C   UNL     1      -2.403  -0.225   1.074  0.00  0.00    +0.001 C 
ATOM      5  C   UNL     1      -1.696  -0.750   2.324  0.00  0.00    +0.000 C 
ATOM      6  C   UNL     1      -0.283  -0.162   2.399  0.00  0.00    +0.004 C 
ATOM      7  C   UNL     1       0.492  -0.577   1.152  0.00  0.00    -0.005 C 
ATOM      8  C   UNL     1       1.946  -0.130   1.240  0.00  0.00    +0.004 C 
ATOM      9  C   UNL     1       2.720  -0.606   0.002  0.00  0.00    +0.004 C 
ATOM     10  C   UNL     1       2.040  -0.032  -1.240  0.00  0.00    -0.004 C 
ATOM     11  C   UNL     1       0.609  -0.554  -1.313  0.00  0.00    -0.001 C 
ATOM     12  C   UNL     1      -0.057  -0.234  -2.636  0.00  0.00    +0.005 C 
ATOM     13  C   UNL     1       0.724  -0.768  -3.844  0.00  0.00    +0.010 C 
ATOM     14  C   UNL     1       2.083  -1.280  -3.449  0.00  0.00    -0.002 C 
ATOM     15  C   UNL     1       2.789  -0.281  -2.511  0.00  0.00    +0.001 C 
ATOM     16  C   UNL     1       4.198  -0.880  -2.410  0.00  0.00    +0.007 C 
ATOM     17  C   UNL     1       4.478  -1.353  -3.864  0.00  0.00    +0.034 C 
ATOM     18  C   UNL     1       3.114  -1.343  -4.599  0.00  0.00    +0.057 C 
ATOM     19  C   UNL     1       2.003  -2.691  -2.868  0.00  0.00    +0.014 C 
ENDROOT
BRANCH  18  20
ATOM     20  O   UNL     1       2.997  -0.194  -5.431  0.00  0.00    -0.390 OA
ATOM     21  H   UNL     1       3.620  -0.179  -6.170  0.00  0.00    +0.210 HD
ENDBRANCH  18  20
BRANCH  18  22
ATOM     22  C   UNL     1       2.922  -2.627  -5.399  0.00  0.00    -0.047 C 
BRANCH  22  23
ATOM     23  N   UNL     1       3.980  -2.736  -6.412  0.00  0.00    +0.382 N 
ATOM     24  H   UNL     1       3.933  -1.942  -7.033  0.00  0.00    -0.086 HD
ATOM     25  H   UNL     1       4.881  -2.754  -5.957  0.00  0.00    -0.086 HD
BRANCH  23  26
ATOM     26  C   UNL     1       3.795  -3.973  -7.183  0.00  0.00    -0.054 C 
BRANCH  26  27
ATOM     27  C   UNL     1       4.897  -4.085  -8.238  0.00  0.00    +0.137 C 
BRANCH  27  28
ATOM     28  O   UNL     1       6.163  -4.229  -7.591  0.00  0.00    -0.397 OA
ATOM     29  H   UNL     1       6.910  -4.306  -8.200  0.00  0.00    +0.209 HD
ENDBRANCH  27  28
ENDBRANCH  26  27
ENDBRANCH  23  26
ENDBRANCH  22  23
ENDBRANCH  18  22
TORSDOF 6
