REMARK  Name = ZINC19866549
REMARK  9 active torsions:
REMARK  status: ('A' for Active; 'I' for Inactive)
REMARK    1  A    between atoms: C_1  and  C_2
REMARK    2  A    between atoms: C_2  and  C_3
REMARK    3  A    between atoms: C_3  and  N_4
REMARK    4  A    between atoms: C_7  and  N_10
REMARK    5  A    between atoms: C_13  and  N_30
REMARK    6  A    between atoms: C_15  and  C_18
REMARK    7  A    between atoms: C_18  and  C_19
REMARK    8  A    between atoms: C_19  and  C_20
REMARK    9  A    between atoms: N_22  and  C_23
REMARK                            x       y       z     vdW  Elec       q    Type
REMARK                         _______ _______ _______ _____ _____    ______ ____
ROOT
ATOM      1  N   UNL     1      -2.018  -6.069   0.950  0.00  0.00    -0.299 NA
ATOM      2  C   UNL     1      -1.237  -6.457  -0.232  0.00  0.00    +0.086 C 
ATOM      3  C   UNL     1      -1.039  -7.974  -0.239  0.00  0.00    +0.034 C 
ATOM      4  C   UNL     1      -2.406  -8.662  -0.260  0.00  0.00    +0.062 C 
ATOM      5  C   UNL     1      -3.217  -8.205   0.956  0.00  0.00    +0.021 C 
ATOM      6  C   UNL     1      -3.352  -6.680   0.928  0.00  0.00    +0.089 C 
ENDROOT
BRANCH   1  10
ATOM      7  N   UNL     1      -1.413  -2.002   0.005  0.00  0.00    +0.380 N 
ATOM      8  C   UNL     1      -0.802  -2.489   1.247  0.00  0.00    -0.077 C 
ATOM      9  C   UNL     1      -0.705  -4.016   1.209  0.00  0.00    +0.000 C 
ATOM     10  C   UNL     1      -2.110  -4.607   1.064  0.00  0.00    +0.053 C 
ATOM     11  C   UNL     1      -2.766  -4.036  -0.196  0.00  0.00    +0.000 C 
ATOM     12  C   UNL     1      -2.787  -2.508  -0.105  0.00  0.00    -0.077 C 
ATOM     13  H   UNL     1      -0.873  -2.326  -0.783  0.00  0.00    -0.082 HD
BRANCH   7  14
ATOM     14  C   UNL     1      -1.433  -0.534   0.013  0.00  0.00    -0.079 C 
BRANCH  14  16
ATOM     15  C   UNL     1      -0.019   1.526   0.010  0.00  0.00    +0.002 C 
ATOM     16  C   UNL     1       0.002  -0.004   0.002  0.00  0.00    -0.022 C 
ENDBRANCH  14  16
ENDBRANCH   7  14
ENDBRANCH   1  10
BRANCH   4  17
ATOM     17  N   UNL     1      -2.224 -10.119  -0.209  0.00  0.00    -0.295 NA
ATOM     18  C   UNL     1      -3.519 -10.810  -0.140  0.00  0.00    +0.113 C 
ATOM     19  C   UNL     1      -3.281 -12.319  -0.029  0.00  0.00    +0.175 C 
ATOM     20  O   UNL     1      -2.493 -12.755  -1.140  0.00  0.00    -0.377 OA
ATOM     21  C   UNL     1      -1.224 -12.102  -1.237  0.00  0.00    +0.175 C 
ATOM     22  C   UNL     1      -1.441 -10.592  -1.361  0.00  0.00    +0.113 C 
ENDBRANCH   4  17
BRANCH   5  23
ATOM     23  C   UNL     1      -2.501  -8.632   2.238  0.00  0.00    +0.015 C 
BRANCH  23  24
ATOM     24  C   UNL     1      -3.371  -8.285   3.448  0.00  0.00    +0.096 C 
BRANCH  24  25
ATOM     25  C   UNL     1      -2.665  -8.706   4.712  0.00  0.00    +0.213 C 
ATOM     26  O   UNL     1      -1.574  -9.231   4.650  0.00  0.00    -0.276 OA
ATOM     27  N   UNL     1      -3.247  -8.498   5.909  0.00  0.00    -0.312 N 
ATOM     28  H   UNL     1      -4.120  -8.078   5.958  0.00  0.00    +0.149 HD
BRANCH  27  29
ATOM     29  C   UNL     1      -2.561  -8.907   7.138  0.00  0.00    +0.073 C 
ATOM     30  C   UNL     1      -2.803 -10.413   7.367  0.00  0.00    +0.022 C 
ATOM     31  C   UNL     1      -1.730 -10.935   8.284  0.00  0.00    +0.002 C 
ATOM     32  C   UNL     1      -2.166 -10.932   9.762  0.00  0.00    +0.000 C 
ATOM     33  C   UNL     1      -2.935  -9.657  10.155  0.00  0.00    +0.000 C 
ATOM     34  C   UNL     1      -2.326  -8.412   9.568  0.00  0.00    +0.002 C 
ATOM     35  C   UNL     1      -3.046  -8.093   8.242  0.00  0.00    +0.022 C 
ENDBRANCH  27  29
ENDBRANCH  24  25
ENDBRANCH  23  24
ENDBRANCH   5  23
TORSDOF 8
