REMARK  Name = ZINC05450658
REMARK  5 active torsions:
REMARK  status: ('A' for Active; 'I' for Inactive)
REMARK    1  A    between atoms: C_4  and  C_7
REMARK    2  A    between atoms: C_12  and  O_27
REMARK    3  A    between atoms: C_14  and  O_18
REMARK    4  A    between atoms: O_18  and  C_19
REMARK    5  A    between atoms: C_19  and  C_20
REMARK                            x       y       z     vdW  Elec       q    Type
REMARK                         _______ _______ _______ _____ _____    ______ ____
ROOT
ATOM      1  C   UNL     1       1.254  -7.732  -4.508  0.00  0.00    +0.139 A 
ATOM      2  C   UNL     1       1.275  -8.645  -3.502  0.00  0.00    +0.098 A 
ATOM      3  C   UNL     1       1.283  -8.201  -2.157  0.00  0.00    +0.197 A 
ATOM      4  O   UNL     1       1.302  -8.992  -1.228  0.00  0.00    -0.287 OA
ATOM      5  C   UNL     1       1.267  -6.747  -1.923  0.00  0.00    +0.105 A 
ATOM      6  C   UNL     1       1.272  -6.218  -0.626  0.00  0.00    +0.135 A 
ATOM      7  C   UNL     1       1.263  -4.847  -0.450  0.00  0.00    +0.092 A 
ATOM      8  C   UNL     1       1.236  -4.001  -1.554  0.00  0.00    +0.128 A 
ATOM      9  C   UNL     1       1.230  -4.518  -2.840  0.00  0.00    +0.092 A 
ATOM     10  C   UNL     1       1.245  -5.890  -3.037  0.00  0.00    +0.146 A 
ATOM     11  O   UNL     1       1.239  -6.409  -4.283  0.00  0.00    -0.454 OA
ENDROOT
BRANCH   1  15
ATOM     12  C   UNL     1       1.230  -9.120  -8.521  0.00  0.00    +0.000 A 
ATOM     13  C   UNL     1       1.217  -7.761  -8.262  0.00  0.00    +0.001 A 
ATOM     14  C   UNL     1       1.224  -7.303  -6.961  0.00  0.00    +0.011 A 
ATOM     15  C   UNL     1       1.246  -8.215  -5.904  0.00  0.00    +0.017 A 
ATOM     16  C   UNL     1       1.266  -9.585  -6.173  0.00  0.00    +0.011 A 
ATOM     17  C   UNL     1       1.251 -10.029  -7.478  0.00  0.00    +0.001 A 
ENDBRANCH   1  15
BRANCH   6  18
ATOM     18  O   UNL     1       1.294  -7.046   0.449  0.00  0.00    -0.506 OA
ATOM     19  H   UNL     1       1.298  -6.626   1.466  0.00  0.00    +0.292 HD
ENDBRANCH   6  18
BRANCH   8  20
ATOM     20  O   UNL     1       1.220  -2.656  -1.369  0.00  0.00    -0.487 OA
BRANCH  20  21
ATOM     21  C   UNL     1       1.227  -2.186  -0.020  0.00  0.00    +0.264 C 
BRANCH  21  22
ATOM     22  C   UNL     1       1.208  -0.679  -0.013  0.00  0.00    -0.010 A 
ATOM     23  C   UNL     1       0.002  -0.004   0.002  0.00  0.00    +0.010 A 
ATOM     24  C   UNL     1      -0.017   1.378   0.010  0.00  0.00    +0.039 A 
ATOM     25  C   UNL     1       1.173   2.086   0.002  0.00  0.00    +0.123 A 
ATOM     26  C   UNL     1       2.381   1.408  -0.013  0.00  0.00    +0.039 A 
ATOM     27  C   UNL     1       2.397   0.026  -0.020  0.00  0.00    +0.010 A 
ATOM     28  F   UNL     1       1.156   3.437   0.009  0.00  0.00    -0.205 F 
ENDBRANCH  21  22
ENDBRANCH  20  21
ENDBRANCH   8  20
TORSDOF 5
