REMARK  Name = ZINC35806993
REMARK  16 active torsions:
REMARK  status: ('A' for Active; 'I' for Inactive)
REMARK    1  A    between atoms: CD1_1  and  CG1_2
REMARK    2  A    between atoms: CG1_2  and  CB_3
REMARK    3  A    between atoms: CB_3  and  CG2_5
REMARK    4  A    between atoms: CB_3  and  CA_6
REMARK    5  A    between atoms: CA_6  and  C_8
REMARK    6  A    between atoms: CA_6  and  N_22
REMARK    7  A    between atoms: N_10  and  CA_11
REMARK    8  A    between atoms: CA_11  and  C_13
REMARK    9  A    between atoms: CA_11  and  C_19
REMARK   10  A    between atoms: C_23  and  C_25
REMARK   11  A    between atoms: C_25  and  C_26
REMARK   12  A    between atoms: C_26  and  C_27
REMARK   13  A    between atoms: C_28  and  C_41
REMARK   14  A    between atoms: C_32  and  O_39
REMARK   15  A    between atoms: C_33  and  C_38
REMARK   16  A    between atoms: O_39  and  C_40
REMARK                            x       y       z     vdW  Elec       q    Type
REMARK                         _______ _______ _______ _____ _____    ______ ____
ROOT
ATOM      1  N   UNL     1      -3.465  -0.367  -1.302  0.00  0.00    -0.304 N 
ATOM      2  C   UNL     1      -3.741  -1.614  -1.731  0.00  0.00    +0.214 C 
ATOM      3  O   UNL     1      -2.852  -2.433  -1.827  0.00  0.00    -0.276 OA
ATOM      4  H   UNL     1      -4.176   0.288  -1.225  0.00  0.00    +0.149 HD
ENDROOT
BRANCH   1   5
ATOM      5  CA  UNL     1      -2.091  -0.001  -0.951  0.00  0.00    +0.162 C 
BRANCH   5   6
ATOM      6  C   UNL     1      -1.914   1.488  -1.102  0.00  0.00    +0.234 C 
ATOM      7  O   UNL     1      -2.882   2.218  -1.090  0.00  0.00    -0.274 OA
ATOM      8  N   UNL     1      -0.679   2.009  -1.249  0.00  0.00    -0.297 N 
ATOM      9  H   UNL     1       0.088   1.422  -1.335  0.00  0.00    +0.150 HD
BRANCH   8  10
ATOM     10  CA  UNL     1      -0.496   3.462  -1.280  0.00  0.00    +0.217 C 
BRANCH  10  11
ATOM     11  C   UNL     1       0.900   3.802  -0.825  0.00  0.00    -0.016 A 
ATOM     12  C   UNL     1       1.981   3.107  -1.332  0.00  0.00    +0.006 A 
ATOM     13  C   UNL     1       3.261   3.419  -0.915  0.00  0.00    +0.000 A 
ATOM     14  C   UNL     1       3.460   4.427   0.010  0.00  0.00    +0.000 A 
ATOM     15  C   UNL     1       2.379   5.123   0.517  0.00  0.00    +0.000 A 
ATOM     16  C   UNL     1       1.099   4.814   0.096  0.00  0.00    +0.006 A 
ENDBRANCH  10  11
BRANCH  10  17
ATOM     17  C   UNL     1      -0.703   3.965  -2.686  0.00  0.00    +0.380 C 
ATOM     18  O   UNL     1      -1.135   5.089  -2.874  0.00  0.00    -0.244 OA
ATOM     19  OXT UNL     1      -0.437   3.247  -3.635  0.00  0.00    -0.244 OA
ENDBRANCH  10  17
ENDBRANCH   8  10
ENDBRANCH   5   6
BRANCH   5  20
ATOM     20  CB  UNL     1      -1.809  -0.404   0.498  0.00  0.00    +0.015 C 
ATOM     21  CG2 UNL     1      -2.876   0.202   1.412  0.00  0.00    +0.010 C 
BRANCH  20  23
ATOM     22  CD1 UNL     1      -0.667  -2.526  -0.162  0.00  0.00    +0.004 C 
ATOM     23  CG1 UNL     1      -1.840  -1.929   0.618  0.00  0.00    +0.002 C 
ENDBRANCH  20  23
ENDBRANCH   5  20
ENDBRANCH   1   5
BRANCH   2  24
ATOM     24  C   UNL     1      -5.155  -1.992  -2.092  0.00  0.00    +0.100 C 
BRANCH  24  25
ATOM     25  C   UNL     1      -5.193  -3.452  -2.546  0.00  0.00    +0.052 C 
BRANCH  25  26
ATOM     26  C   UNL     1      -6.607  -3.829  -2.906  0.00  0.00    +0.041 A 
ATOM     27  C   UNL     1      -7.021  -3.762  -4.198  0.00  0.00    -0.030 A 
ATOM     28  C   UNL     1      -8.403  -4.138  -4.503  0.00  0.00    +0.021 A 
ATOM     29  C   UNL     1      -8.891  -4.091  -5.814  0.00  0.00    +0.015 A 
ATOM     30  C   UNL     1     -10.183  -4.448  -6.069  0.00  0.00    +0.047 A 
ATOM     31  C   UNL     1     -11.020  -4.859  -5.034  0.00  0.00    +0.127 A 
ATOM     32  C   UNL     1     -10.554  -4.912  -3.730  0.00  0.00    +0.034 A 
ATOM     33  C   UNL     1      -9.243  -4.553  -3.453  0.00  0.00    +0.146 A 
ATOM     34  O   UNL     1      -8.769  -4.598  -2.189  0.00  0.00    -0.422 OA
ATOM     35  C   UNL     1      -7.501  -4.258  -1.905  0.00  0.00    +0.341 A 
ATOM     36  O   UNL     1      -7.116  -4.319  -0.751  0.00  0.00    -0.245 OA
ATOM     37  C   UNL     1     -11.468  -5.357  -2.618  0.00  0.00    +0.051 C 
ATOM     38  C   UNL     1      -6.083  -3.312  -5.289  0.00  0.00    +0.045 C 
BRANCH  31  39
ATOM     39  O   UNL     1     -12.303  -5.210  -5.304  0.00  0.00    -0.495 OA
ATOM     40  C   UNL     1     -12.723  -5.134  -6.668  0.00  0.00    +0.277 C 
ENDBRANCH  31  39
ENDBRANCH  25  26
ENDBRANCH  24  25
ENDBRANCH   2  24
TORSDOF 11
