REMARK  Name = ZINC05025075
REMARK  9 active torsions:
REMARK  status: ('A' for Active; 'I' for Inactive)
REMARK    1  A    between atoms: C_1  and  C_2
REMARK    2  A    between atoms: C_5  and  C_8
REMARK    3  A    between atoms: C_11  and  C_24
REMARK    4  A    between atoms: C_11  and  O_32
REMARK    5  A    between atoms: C_12  and  C_23
REMARK    6  A    between atoms: C_14  and  C_16
REMARK    7  A    between atoms: C_19  and  C_22
REMARK    8  A    between atoms: C_29  and  O_30
REMARK    9  A    between atoms: O_30  and  C_31
REMARK                            x       y       z     vdW  Elec       q    Type
REMARK                         _______ _______ _______ _____ _____    ______ ____
ROOT
ATOM      1  C   UNL     1       3.370   1.529  -1.378  0.00  0.00    -0.037 C 
ATOM      2  C   UNL     1       1.947   0.980  -1.255  0.00  0.00    +0.029 C 
ATOM      3  C   UNL     1       1.286   1.562  -0.002  0.00  0.00    +0.094 C 
ATOM      4  C   UNL     1       1.296   3.090  -0.093  0.00  0.00    +0.012 C 
ATOM      5  C   UNL     1       2.737   3.578  -0.249  0.00  0.00    -0.034 C 
ATOM      6  C   UNL     1       0.472   3.535  -1.303  0.00  0.00    +0.009 C 
ATOM      7  N   UNL     1       3.329   3.001  -1.471  0.00  0.00    +0.388 N 
ATOM      8  H   UNL     1       2.760   3.273  -2.282  0.00  0.00    -0.084 HD
ATOM      9  H   UNL     1       4.284   3.360  -1.587  0.00  0.00    -0.084 HD
ENDROOT
BRANCH   1  14
ATOM     10  C   UNL     1       5.851  -0.597  -6.143  0.00  0.00    +0.044 C 
ATOM     11  C   UNL     1       5.203  -0.043  -4.901  0.00  0.00    -0.050 A 
ATOM     12  C   UNL     1       5.487  -0.598  -3.667  0.00  0.00    +0.003 A 
ATOM     13  C   UNL     1       4.894  -0.090  -2.527  0.00  0.00    +0.002 A 
ATOM     14  C   UNL     1       4.017   0.975  -2.620  0.00  0.00    -0.061 A 
ATOM     15  C   UNL     1       3.728   1.526  -3.855  0.00  0.00    +0.002 A 
ATOM     16  C   UNL     1       4.325   1.020  -4.994  0.00  0.00    +0.003 A 
ENDBRANCH   1  14
BRANCH   5  17
ATOM     17  C   UNL     1       2.749   5.081  -0.359  0.00  0.00    -0.061 A 
ATOM     18  C   UNL     1       2.456   5.689  -1.565  0.00  0.00    +0.002 A 
ATOM     19  C   UNL     1       2.462   7.067  -1.665  0.00  0.00    +0.003 A 
ATOM     20  C   UNL     1       2.772   7.839  -0.560  0.00  0.00    -0.050 A 
ATOM     21  C   UNL     1       3.071   7.231   0.645  0.00  0.00    +0.003 A 
ATOM     22  C   UNL     1       3.059   5.853   0.746  0.00  0.00    +0.002 A 
ATOM     23  C   UNL     1       2.784   9.342  -0.670  0.00  0.00    +0.044 C 
ENDBRANCH   5  17
BRANCH   3  24
ATOM     24  C   UNL     1       2.052   1.124   1.220  0.00  0.00    +0.026 A 
ATOM     25  C   UNL     1       2.500   2.063   2.129  0.00  0.00    +0.010 A 
ATOM     26  C   UNL     1       3.202   1.662   3.250  0.00  0.00    +0.001 A 
ATOM     27  C   UNL     1       3.458   0.321   3.466  0.00  0.00    +0.004 A 
ATOM     28  C   UNL     1       3.011  -0.623   2.561  0.00  0.00    +0.046 A 
ATOM     29  C   UNL     1       2.302  -0.223   1.437  0.00  0.00    +0.126 A 
BRANCH  29  30
ATOM     30  O   UNL     1       1.858  -1.150   0.547  0.00  0.00    -0.495 OA
ATOM     31  C   UNL     1       2.152  -2.518   0.835  0.00  0.00    +0.277 C 
ENDBRANCH  29  30
ENDBRANCH   3  24
BRANCH   3  32
ATOM     32  O   UNL     1      -0.062   1.097   0.087  0.00  0.00    -0.384 OA
ATOM     33  H   UNL     1      -0.143   0.135   0.143  0.00  0.00    +0.211 HD
ENDBRANCH   3  32
TORSDOF 5
