REMARK  Name = ZINC64776014
REMARK  8 active torsions:
REMARK  status: ('A' for Active; 'I' for Inactive)
REMARK    1  A    between atoms: C_1  and  C_2
REMARK    2  A    between atoms: C_2  and  N_3
REMARK    3  A    between atoms: C_7  and  C_9
REMARK    4  A    between atoms: C_9  and  N_10
REMARK    5  A    between atoms: C_11  and  C_13
REMARK    6  A    between atoms: C_13  and  C_15
REMARK    7  A    between atoms: C_13  and  N_16
REMARK    8  A    between atoms: N_27  and  C_30
REMARK                            x       y       z     vdW  Elec       q    Type
REMARK                         _______ _______ _______ _____ _____    ______ ____
ROOT
ATOM      1  C   UNL     1      -3.506  -1.252  -3.864  0.00  0.00    +0.170 C 
ATOM      2  C   UNL     1      -3.313   0.265  -3.854  0.00  0.00    +0.041 C 
ENDROOT
BRANCH   1   3
ATOM      3  N   UNL     1      -4.159  -1.653  -5.113  0.00  0.00    -0.324 N 
ATOM      4  C   UNL     1      -3.644  -1.442  -6.375  0.00  0.00    +0.051 A 
ATOM      5  C   UNL     1      -2.469  -0.846  -6.826  0.00  0.00    +0.026 A 
ATOM      6  C   UNL     1      -2.211  -0.774  -8.177  0.00  0.00    +0.002 A 
ATOM      7  C   UNL     1      -3.113  -1.290  -9.097  0.00  0.00    +0.001 A 
ATOM      8  C   UNL     1      -4.272  -1.878  -8.676  0.00  0.00    +0.010 A 
ATOM      9  C   UNL     1      -4.553  -1.963  -7.312  0.00  0.00    +0.009 A 
ATOM     10  C   UNL     1      -5.674  -2.515  -6.539  0.00  0.00    +0.033 A 
ATOM     11  C   UNL     1      -5.372  -2.301  -5.195  0.00  0.00    +0.119 A 
ATOM     12  C   UNL     1      -6.292  -2.747  -4.216  0.00  0.00    +0.291 A 
ATOM     13  O   UNL     1      -6.063  -2.573  -3.030  0.00  0.00    -0.264 OA
ATOM     14  N   UNL     1      -7.425  -3.365  -4.608  0.00  0.00    -0.231 N 
ATOM     15  N   UNL     1      -7.699  -3.570  -5.963  0.00  0.00    -0.176 NA
ATOM     16  C   UNL     1      -6.877  -3.163  -6.890  0.00  0.00    +0.143 A 
ATOM     17  C   UNL     1      -8.380  -3.829  -3.599  0.00  0.00    +0.176 C 
ENDBRANCH   1   3
BRANCH   1  19
ATOM     18  N   UNL     1      -1.379  -1.708  -2.686  0.00  0.00    -0.315 N 
ATOM     19  C   UNL     1      -2.164  -1.930  -3.759  0.00  0.00    +0.236 C 
ATOM     20  O   UNL     1      -1.789  -2.674  -4.641  0.00  0.00    -0.274 OA
ATOM     21  H   UNL     1      -1.678  -1.113  -1.981  0.00  0.00    +0.149 HD
BRANCH  18  22
ATOM     22  C   UNL     1      -0.074  -2.367  -2.584  0.00  0.00    +0.089 C 
BRANCH  22  27
ATOM     23  N   UNL     1       0.690  -0.478  -1.207  0.00  0.00    +0.382 N 
ATOM     24  C   UNL     1       2.115  -0.088  -1.153  0.00  0.00    -0.078 C 
ATOM     25  C   UNL     1       2.844  -1.331  -0.584  0.00  0.00    -0.020 C 
ATOM     26  C   UNL     1       2.053  -2.489  -1.246  0.00  0.00    -0.016 C 
ATOM     27  C   UNL     1       0.608  -1.948  -1.280  0.00  0.00    -0.051 C 
ATOM     28  H   UNL     1       0.259  -0.072  -2.024  0.00  0.00    -0.081 HD
BRANCH  23  30
ATOM     29  C   UNL     1      -0.019   1.526   0.010  0.00  0.00    -0.017 C 
ATOM     30  C   UNL     1       0.002  -0.004   0.002  0.00  0.00    -0.082 C 
ENDBRANCH  23  30
ENDBRANCH  22  27
ENDBRANCH  18  22
ENDBRANCH   1  19
TORSDOF 5
