REMARK  Name = ZINC08325260
REMARK  4 active torsions:
REMARK  status: ('A' for Active; 'I' for Inactive)
REMARK    1  A    between atoms: C_1  and  C_2
REMARK    2  A    between atoms: C_2  and  C_4
REMARK    3  A    between atoms: C_2  and  N_16
REMARK    4  A    between atoms: N_6  and  C_7
REMARK                            x       y       z     vdW  Elec       q    Type
REMARK                         _______ _______ _______ _____ _____    ______ ____
ROOT
ATOM      1  N   UNL     1       5.500   0.139  -1.234  0.00  0.00    -0.212 N 
ATOM      2  C   UNL     1       4.360  -0.556  -1.419  0.00  0.00    +0.252 C 
ATOM      3  O   UNL     1       3.928  -0.993  -2.465  0.00  0.00    -0.272 OA
ATOM      4  C   UNL     1       3.733  -0.679  -0.048  0.00  0.00    +0.138 C 
ATOM      5  C   UNL     1       3.622  -2.144   0.354  0.00  0.00    +0.040 C 
ATOM      6  C   UNL     1       2.499  -2.790  -0.468  0.00  0.00    +0.008 C 
ATOM      7  C   UNL     1       1.165  -2.209  -0.004  0.00  0.00    +0.035 C 
ATOM      8  C   UNL     1       1.209  -0.703  -0.013  0.00  0.00    -0.042 A 
ATOM      9  C   UNL     1       2.393   0.001  -0.027  0.00  0.00    -0.012 A 
ATOM     10  C   UNL     1       2.367   1.389  -0.025  0.00  0.00    +0.006 A 
ATOM     11  C   UNL     1       1.165   2.068  -0.014  0.00  0.00    +0.000 A 
ATOM     12  C   UNL     1      -0.023   1.361  -0.002  0.00  0.00    +0.000 A 
ATOM     13  C   UNL     1       0.001  -0.019  -0.001  0.00  0.00    +0.004 A 
ATOM     14  N   UNL     1       4.674   0.024   0.835  0.00  0.00    -0.281 N 
ATOM     15  C   UNL     1       5.675   0.467   0.051  0.00  0.00    +0.310 C 
ATOM     16  O   UNL     1       6.630   1.094   0.465  0.00  0.00    -0.252 OA
ATOM     17  H   UNL     1       4.591   0.144   1.794  0.00  0.00    +0.152 HD
ENDROOT
BRANCH   1  19
ATOM     18  C   UNL     1       6.561   2.015  -2.391  0.00  0.00    +0.038 C 
ATOM     19  C   UNL     1       6.432   0.492  -2.308  0.00  0.00    +0.168 C 
BRANCH  19  20
ATOM     20  C   UNL     1       7.783  -0.111  -2.020  0.00  0.00    +0.238 C 
ATOM     21  O   UNL     1       7.950  -0.771  -1.016  0.00  0.00    -0.273 OA
ATOM     22  N   UNL     1       8.804   0.082  -2.877  0.00  0.00    -0.284 N 
ATOM     23  H   UNL     1       8.654   0.553  -3.712  0.00  0.00    +0.155 HD
BRANCH  22  24
ATOM     24  C   UNL     1      10.083  -0.396  -2.562  0.00  0.00    +0.037 A 
ATOM     25  C   UNL     1      11.207   0.321  -2.950  0.00  0.00    +0.027 A 
ATOM     26  C   UNL     1      12.469  -0.147  -2.636  0.00  0.00    +0.051 A 
ATOM     27  C   UNL     1      12.616  -1.337  -1.942  0.00  0.00    +0.166 A 
ATOM     28  C   UNL     1      11.491  -2.061  -1.557  0.00  0.00    +0.168 A 
ATOM     29  C   UNL     1      10.226  -1.589  -1.868  0.00  0.00    +0.072 A 
ATOM     30  O   UNL     1      11.899  -3.183  -0.895  0.00  0.00    -0.453 OA
ATOM     31  C   UNL     1      13.267  -2.934  -0.523  0.00  0.00    +0.466 C 
ATOM     32  O   UNL     1      13.730  -2.007  -1.522  0.00  0.00    -0.453 OA
ENDBRANCH  22  24
ENDBRANCH  19  20
ENDBRANCH   1  19
TORSDOF 3
