REMARK  Name = ZINC12591166
REMARK  5 active torsions:
REMARK  status: ('A' for Active; 'I' for Inactive)
REMARK    1  A    between atoms: C_1  and  C_2
REMARK    2  A    between atoms: C_4  and  C_31
REMARK    3  A    between atoms: N_5  and  C_7
REMARK    4  A    between atoms: C_7  and  C_8
REMARK    5  A    between atoms: C_23  and  C_25
REMARK                            x       y       z     vdW  Elec       q    Type
REMARK                         _______ _______ _______ _____ _____    ______ ____
ROOT
ATOM      1  C   UNL     1      -2.257   4.838  -2.273  0.00  0.00    +0.238 C 
ATOM      2  O   UNL     1      -1.970   3.663  -2.189  0.00  0.00    -0.274 OA
ATOM      3  N   UNL     1      -2.115   5.645  -1.203  0.00  0.00    -0.291 N 
ATOM      4  C   UNL     1      -2.567   7.043  -1.247  0.00  0.00    +0.113 C 
ATOM      5  C   UNL     1      -3.705   7.230  -0.237  0.00  0.00    +0.056 C 
ATOM      6  C   UNL     1      -3.324   6.564   1.060  0.00  0.00    -0.016 A 
ATOM      7  C   UNL     1      -3.898   6.765   2.375  0.00  0.00    +0.003 A 
ATOM      8  C   UNL     1      -4.925   7.590   2.845  0.00  0.00    +0.010 A 
ATOM      9  C   UNL     1      -5.212   7.521   4.186  0.00  0.00    +0.001 A 
ATOM     10  C   UNL     1      -4.524   6.677   5.043  0.00  0.00    +0.002 A 
ATOM     11  C   UNL     1      -3.504   5.851   4.606  0.00  0.00    +0.026 A 
ATOM     12  C   UNL     1      -3.191   5.899   3.249  0.00  0.00    +0.047 A 
ATOM     13  N   UNL     1      -2.264   5.234   2.499  0.00  0.00    -0.356 N 
ATOM     14  H   UNL     1      -1.639   4.575   2.839  0.00  0.00    +0.166 HD
ATOM     15  C   UNL     1      -2.350   5.638   1.193  0.00  0.00    +0.041 A 
ATOM     16  C   UNL     1      -1.501   5.149   0.041  0.00  0.00    +0.126 C 
ENDROOT
BRANCH  16  17
ATOM     17  C   UNL     1      -1.470   3.619   0.031  0.00  0.00    +0.015 C 
ATOM     18  C   UNL     1      -0.683   3.117   1.243  0.00  0.00    +0.006 C 
ATOM     19  C   UNL     1      -0.652   1.587   1.233  0.00  0.00    +0.000 C 
ATOM     20  C   UNL     1      -2.083   1.048   1.295  0.00  0.00    +0.000 C 
ATOM     21  C   UNL     1      -2.870   1.550   0.083  0.00  0.00    +0.000 C 
ATOM     22  C   UNL     1      -2.901   3.080   0.093  0.00  0.00    +0.006 C 
ENDBRANCH  16  17
BRANCH   1  23
ATOM     23  C   UNL     1      -2.773   5.396  -3.574  0.00  0.00    +0.241 C 
BRANCH  23  28
ATOM     24  C   UNL     1      -1.548   2.229  -7.266  0.00  0.00    +0.090 C 
ATOM     25  C   UNL     1      -2.292   2.958  -6.177  0.00  0.00    +0.148 A 
ATOM     26  N   UNL     1      -3.538   2.698  -5.784  0.00  0.00    -0.217 NA
ATOM     27  C   UNL     1      -3.879   3.515  -4.820  0.00  0.00    +0.125 A 
ATOM     28  N   UNL     1      -2.836   4.327  -4.574  0.00  0.00    -0.240 N 
ATOM     29  N   UNL     1      -1.822   3.951  -5.469  0.00  0.00    -0.155 NA
ATOM     30  C   UNL     1      -5.207   3.539  -4.109  0.00  0.00    +0.088 C 
ENDBRANCH  23  28
ENDBRANCH   1  23
TORSDOF 3
