REMARK  Name = ZINC04697835
REMARK  7 active torsions:
REMARK  status: ('A' for Active; 'I' for Inactive)
REMARK    1  A    between atoms: C_1  and  C_2
REMARK    2  A    between atoms: C_2  and  N_3
REMARK    3  A    between atoms: N_3  and  N_4
REMARK    4  A    between atoms: C_5  and  C_7
REMARK    5  A    between atoms: C_12  and  O_13
REMARK    6  A    between atoms: C_14  and  C_15
REMARK    7  A    between atoms: N_17  and  C_18
REMARK                            x       y       z     vdW  Elec       q    Type
REMARK                         _______ _______ _______ _____ _____    ______ ____
ROOT
ATOM      1  C   UNL     1       0.247   1.697   0.200  0.00  0.00    +0.062 C 
ATOM      2  C   UNL     1      -0.551   2.157  -0.993  0.00  0.00    +0.024 C 
ATOM      3  C   UNL     1      -1.895   2.036  -0.992  0.00  0.00    +0.087 C 
ENDROOT
BRANCH   3   4
ATOM      4  C   UNL     1      -2.654   2.579  -2.055  0.00  0.00    +0.243 C 
ATOM      5  O   UNL     1      -2.091   3.061  -3.021  0.00  0.00    -0.270 OA
ATOM      6  N   UNL     1      -4.000   2.562  -1.998  0.00  0.00    -0.282 N 
ATOM      7  H   UNL     1      -4.448   2.242  -1.200  0.00  0.00    +0.155 HD
BRANCH   6   8
ATOM      8  C   UNL     1      -4.751   3.005  -3.091  0.00  0.00    +0.037 A 
ATOM      9  C   UNL     1      -4.167   3.075  -4.346  0.00  0.00    +0.023 A 
ATOM     10  C   UNL     1      -4.911   3.514  -5.424  0.00  0.00    +0.002 A 
ATOM     11  C   UNL     1      -6.228   3.883  -5.244  0.00  0.00    +0.004 A 
ATOM     12  C   UNL     1      -6.819   3.817  -3.988  0.00  0.00    -0.042 A 
ATOM     13  C   UNL     1      -6.086   3.369  -2.913  0.00  0.00    -0.023 A 
ATOM     14  C   UNL     1      -6.668   3.250  -1.529  0.00  0.00    +0.037 C 
ATOM     15  C   UNL     1      -7.951   4.069  -1.412  0.00  0.00    +0.005 C 
ATOM     16  C   UNL     1      -8.873   3.692  -2.578  0.00  0.00    +0.005 C 
ATOM     17  C   UNL     1      -8.258   4.243  -3.867  0.00  0.00    +0.035 C 
ENDBRANCH   6   8
ENDBRANCH   3   4
BRANCH   2  18
ATOM     18  N   UNL     1       0.086   2.698  -2.074  0.00  0.00    -0.268 N 
ATOM     19  H   UNL     1      -0.431   3.070  -2.806  0.00  0.00    +0.170 HD
BRANCH  18  20
ATOM     20  N   UNL     1       1.486   2.715  -2.126  0.00  0.00    -0.233 N 
ATOM     21  C   UNL     1       2.115   3.340  -3.141  0.00  0.00    +0.264 C 
ATOM     22  O   UNL     1       1.471   3.811  -4.058  0.00  0.00    -0.269 OA
ATOM     23  H   UNL     1       2.003   2.276  -1.432  0.00  0.00    +0.173 HD
BRANCH  21  24
ATOM     24  C   UNL     1       3.586   3.454  -3.139  0.00  0.00    +0.079 A 
ATOM     25  C   UNL     1       4.339   2.819  -2.147  0.00  0.00    +0.017 A 
ATOM     26  C   UNL     1       5.712   2.929  -2.151  0.00  0.00    +0.001 A 
ATOM     27  C   UNL     1       6.352   3.667  -3.134  0.00  0.00    +0.004 A 
ATOM     28  C   UNL     1       5.621   4.300  -4.119  0.00  0.00    +0.046 A 
ATOM     29  C   UNL     1       4.237   4.195  -4.134  0.00  0.00    +0.129 A 
BRANCH  29  30
ATOM     30  O   UNL     1       3.518   4.812  -5.105  0.00  0.00    -0.506 OA
ATOM     31  H   UNL     1       3.253   5.715  -4.884  0.00  0.00    +0.292 HD
ENDBRANCH  29  30
ENDBRANCH  21  24
ENDBRANCH  18  20
ENDBRANCH   2  18
TORSDOF 6
