REMARK  Name = ZINC12567326
REMARK  5 active torsions:
REMARK  status: ('A' for Active; 'I' for Inactive)
REMARK    1  A    between atoms: C_5  and  C_7
REMARK    2  A    between atoms: C_10  and  S_17
REMARK    3  A    between atoms: N_11  and  C_12
REMARK    4  A    between atoms: S_17  and  C_18
REMARK    5  A    between atoms: C_18  and  C_19
REMARK                            x       y       z     vdW  Elec       q    Type
REMARK                         _______ _______ _______ _____ _____    ______ ____
ROOT
ATOM      1  C   UNL     1       2.420   3.944   0.078  0.00  0.00    +0.167 A 
ATOM      2  N   UNL     1       3.631   3.441   0.130  0.00  0.00    -0.128 NA
ATOM      3  N   UNL     1       4.501   4.378  -0.000  0.00  0.00    -0.122 NA
ATOM      4  C   UNL     1       3.898   5.538  -0.135  0.00  0.00    +0.193 A 
ATOM      5  N   UNL     1       2.554   5.303  -0.090  0.00  0.00    -0.299 N 
ENDROOT
BRANCH   1  10
ATOM      6  C   UNL     1      -1.034   2.926   1.147  0.00  0.00    +0.001 A 
ATOM      7  C   UNL     1      -1.224   1.782   0.391  0.00  0.00    +0.001 A 
ATOM      8  C   UNL     1      -0.237   1.345  -0.474  0.00  0.00    +0.021 A 
ATOM      9  C   UNL     1       0.951   2.041  -0.579  0.00  0.00    +0.052 A 
ATOM     10  C   UNL     1       1.151   3.193   0.186  0.00  0.00    +0.038 A 
ATOM     11  C   UNL     1       0.148   3.631   1.052  0.00  0.00    +0.013 A 
ATOM     12 CL   UNL     1       2.192   1.486  -1.659  0.00  0.00    -0.083 Cl
ENDBRANCH   1  10
BRANCH   5  13
ATOM     13  C   UNL     1       1.478   6.292  -0.198  0.00  0.00    +0.091 C 
ATOM     14  C   UNL     1       1.585   7.044  -1.541  0.00  0.00    +0.025 C 
ATOM     15  C   UNL     1       1.177   8.498  -1.194  0.00  0.00    +0.002 C 
ATOM     16  C   UNL     1       1.809   8.707   0.205  0.00  0.00    +0.002 C 
ATOM     17  C   UNL     1       1.620   7.348   0.911  0.00  0.00    +0.025 C 
ENDBRANCH   5  13
BRANCH   4  18
ATOM     18  S   UNL     1       4.679   7.104  -0.337  0.00  0.00    -0.077 S 
BRANCH  18  19
ATOM     19  C   UNL     1       6.416   6.597  -0.295  0.00  0.00    +0.173 C 
BRANCH  19  20
ATOM     20  C   UNL     1       7.298   7.809  -0.455  0.00  0.00    +0.231 C 
ATOM     21  O   UNL     1       6.800   8.908  -0.584  0.00  0.00    -0.274 OA
ATOM     22  N   UNL     1       8.638   7.673  -0.454  0.00  0.00    -0.260 N 
ATOM     23  C   UNL     1       9.266   6.353  -0.293  0.00  0.00    +0.209 C 
ATOM     24  C   UNL     1      10.446   6.474   0.632  0.00  0.00    +0.235 C 
ATOM     25  O   UNL     1      10.777   5.523   1.308  0.00  0.00    -0.274 OA
ATOM     26  N   UNL     1      11.136   7.627   0.722  0.00  0.00    -0.283 N 
ATOM     27  C   UNL     1      10.744   8.754  -0.009  0.00  0.00    +0.055 A 
ATOM     28  C   UNL     1       9.480   8.786  -0.601  0.00  0.00    +0.058 A 
ATOM     29  C   UNL     1       9.075   9.898  -1.316  0.00  0.00    +0.025 A 
ATOM     30  C   UNL     1       9.929  10.979  -1.446  0.00  0.00    +0.002 A 
ATOM     31  C   UNL     1      11.183  10.948  -0.865  0.00  0.00    +0.002 A 
ATOM     32  C   UNL     1      11.594   9.839  -0.147  0.00  0.00    +0.025 A 
ATOM     33  H   UNL     1      11.913   7.677   1.301  0.00  0.00    +0.155 HD
ENDBRANCH  19  20
ENDBRANCH  18  19
ENDBRANCH   4  18
TORSDOF 5
