REMARK  Name = ZINC27876945
REMARK  5 active torsions:
REMARK  status: ('A' for Active; 'I' for Inactive)
REMARK    1  A    between atoms: C_5  and  C_7
REMARK    2  A    between atoms: C_7  and  N_8
REMARK    3  A    between atoms: C_15  and  C_17
REMARK    4  A    between atoms: C_20  and  C_24
REMARK    5  A    between atoms: C_21  and  N_23
REMARK                            x       y       z     vdW  Elec       q    Type
REMARK                         _______ _______ _______ _____ _____    ______ ____
ROOT
ATOM      1  N   UNL     1      -5.671  -2.876  -5.065  0.00  0.00    -0.241 N 
ATOM      2  C   UNL     1      -5.851  -3.655  -3.953  0.00  0.00    +0.159 A 
ATOM      3  C   UNL     1      -5.186  -3.010  -2.893  0.00  0.00    +0.050 A 
ATOM      4  C   UNL     1      -5.203  -3.587  -1.621  0.00  0.00    +0.015 A 
ATOM      5  C   UNL     1      -5.875  -4.771  -1.456  0.00  0.00    +0.020 A 
ATOM      6  C   UNL     1      -6.511  -5.355  -2.542  0.00  0.00    +0.113 A 
ATOM      7  N   UNL     1      -6.487  -4.800  -3.734  0.00  0.00    -0.236 NA
ATOM      8  C   UNL     1      -4.596  -1.791  -3.455  0.00  0.00    +0.139 A 
ATOM      9  N   UNL     1      -4.910  -1.752  -4.727  0.00  0.00    -0.165 NA
ENDROOT
BRANCH   8  10
ATOM     10  C   UNL     1      -3.797  -0.784  -2.719  0.00  0.00    +0.184 A 
ATOM     11  N   UNL     1      -3.329   0.272  -3.370  0.00  0.00    -0.211 NA
ATOM     12  C   UNL     1      -2.607   1.196  -2.741  0.00  0.00    +0.125 A 
ATOM     13  C   UNL     1      -2.346   1.042  -1.382  0.00  0.00    +0.035 A 
ATOM     14  C   UNL     1      -2.849  -0.082  -0.733  0.00  0.00    +0.125 A 
ATOM     15  N   UNL     1      -3.568  -0.962  -1.424  0.00  0.00    -0.211 NA
ATOM     16  N   UNL     1      -2.121   2.296  -3.430  0.00  0.00    -0.343 N 
ATOM     17  H   UNL     1      -1.526   3.056  -2.903  0.00  0.00    +0.144 HD
ATOM     18  H   UNL     1      -2.332   2.410  -4.504  0.00  0.00    +0.144 HD
BRANCH  14  19
ATOM     19  N   UNL     1      -2.609  -0.278   0.619  0.00  0.00    -0.343 N 
ATOM     20  H   UNL     1      -3.010  -1.169   1.125  0.00  0.00    +0.144 HD
ATOM     21  H   UNL     1      -2.018   0.457   1.185  0.00  0.00    +0.144 HD
ENDBRANCH  14  19
BRANCH  13  22
ATOM     22  C   UNL     1      -1.533   2.066  -0.633  0.00  0.00    +0.026 C 
ATOM     23  C   UNL     1      -2.219   2.815   0.511  0.00  0.00    +0.009 C 
ATOM     24  C   UNL     1      -1.918   3.538  -0.803  0.00  0.00    +0.009 C 
ENDBRANCH  13  22
ENDBRANCH   8  10
BRANCH   1  25
ATOM     25  C   UNL     1      -6.198  -3.171  -6.400  0.00  0.00    +0.183 C 
BRANCH  25  30
ATOM     26  C   UNL     1      -8.969  -0.794  -7.358  0.00  0.00    +0.000 A 
ATOM     27  C   UNL     1     -10.075  -1.426  -6.821  0.00  0.00    +0.003 A 
ATOM     28  C   UNL     1      -9.928  -2.623  -6.147  0.00  0.00    +0.039 A 
ATOM     29  C   UNL     1      -8.673  -3.192  -6.014  0.00  0.00    +0.128 A 
ATOM     30  C   UNL     1      -7.565  -2.556  -6.548  0.00  0.00    +0.009 A 
ATOM     31  C   UNL     1      -7.715  -1.358  -7.222  0.00  0.00    +0.008 A 
ATOM     32  F   UNL     1      -8.528  -4.365  -5.359  0.00  0.00    -0.205 F 
ENDBRANCH  25  30
ENDBRANCH   1  25
TORSDOF 5
