REMARK  Name = ZINC39918620
REMARK  12 active torsions:
REMARK  status: ('A' for Active; 'I' for Inactive)
REMARK    1  A    between atoms: C_1  and  C_2
REMARK    2  A    between atoms: N_8  and  C_9
REMARK    3  A    between atoms: C_9  and  C_10
REMARK    4  A    between atoms: C_10  and  N_11
REMARK    5  A    between atoms: N_11  and  C_12
REMARK    6  A    between atoms: N_11  and  C_13
REMARK    7  A    between atoms: N_21  and  C_24
REMARK    8  A    between atoms: C_24  and  C_25
REMARK    9  A    between atoms: C_31  and  C_35
REMARK   10  A    between atoms: C_32  and  N_34
REMARK   11  A    between atoms: C_35  and  O_37
REMARK   12  A    between atoms: O_37  and  C_38
REMARK                            x       y       z     vdW  Elec       q    Type
REMARK                         _______ _______ _______ _____ _____    ______ ____
ROOT
ATOM      1  C   UNL     1      -0.081   1.500   0.016  0.00  0.00    +0.064 C 
ATOM      2  C   UNL     1      -0.018  -0.005   0.005  0.00  0.00    +0.022 A 
ATOM      3  C   UNL     1      -0.074  -0.666  -1.171  0.00  0.00    +0.068 A 
ATOM      4  C   UNL     1      -0.015  -2.075  -1.188  0.00  0.00    +0.142 A 
ATOM      5  C   UNL     1       0.101  -2.752   0.008  0.00  0.00    +0.083 A 
ATOM      6  C   UNL     1       0.154  -2.024   1.204  0.00  0.00    +0.260 A 
ATOM      7  O   UNL     1       0.257  -2.611   2.271  0.00  0.00    -0.267 OA
ATOM      8  N   UNL     1       0.099  -0.680   1.179  0.00  0.00    -0.314 N 
ATOM      9  C   UNL     1       0.169  -4.252   0.034  0.00  0.00    +0.144 C 
ATOM     10  C   UNL     1      -1.099  -4.837   0.574  0.00  0.00    -0.002 A 
ATOM     11  C   UNL     1      -2.399  -4.773   0.121  0.00  0.00    +0.007 A 
ATOM     12  C   UNL     1      -3.361  -5.440   0.871  0.00  0.00    +0.000 A 
ATOM     13  C   UNL     1      -3.027  -6.133   2.017  0.00  0.00    +0.002 A 
ATOM     14  C   UNL     1      -1.721  -6.202   2.478  0.00  0.00    +0.024 A 
ATOM     15  C   UNL     1      -0.746  -5.537   1.734  0.00  0.00    +0.041 A 
ATOM     16  N   UNL     1       0.616  -5.439   1.959  0.00  0.00    -0.267 N 
ATOM     17  C   UNL     1       1.234  -4.703   1.012  0.00  0.00    +0.240 C 
ATOM     18  O   UNL     1       2.419  -4.451   0.955  0.00  0.00    -0.274 OA
ATOM     19  C   UNL     1       0.471  -4.792  -1.335  0.00  0.00    +0.117 C 
ATOM     20  C   UNL     1       0.334  -4.014  -2.440  0.00  0.00    +0.196 C 
ATOM     21  O   UNL     1      -0.075  -2.737  -2.362  0.00  0.00    -0.441 OA
ENDROOT
BRANCH  20  22
ATOM     22  N   UNL     1       0.623  -4.547  -3.667  0.00  0.00    -0.329 N 
ATOM     23  H   UNL     1       0.832  -5.490  -3.750  0.00  0.00    +0.145 HD
ATOM     24  H   UNL     1       0.618  -3.980  -4.455  0.00  0.00    +0.145 HD
ENDBRANCH  20  22
BRANCH  19  25
ATOM     25  C   UNL     1       0.900  -6.120  -1.474  0.00  0.00    +0.341 C 
ATOM     26  O   UNL     1       0.093  -7.031  -1.414  0.00  0.00    -0.245 OA
BRANCH  25  27
ATOM     27  O   UNL     1       2.209  -6.390  -1.673  0.00  0.00    -0.465 OA
ATOM     28  C   UNL     1       2.575  -7.764  -1.806  0.00  0.00    +0.280 C 
ENDBRANCH  25  27
ENDBRANCH  19  25
BRANCH   8  29
ATOM     29  C   UNL     1       0.161   0.068   2.437  0.00  0.00    +0.106 C 
BRANCH  29  30
ATOM     30  C   UNL     1      -1.255   0.266   2.983  0.00  0.00    -0.058 C 
BRANCH  30  31
ATOM     31  N   UNL     1      -1.193   1.016   4.245  0.00  0.00    +0.377 N 
ATOM     32  C   UNL     1      -2.556   1.310   4.707  0.00  0.00    -0.097 C 
ATOM     33  C   UNL     1      -0.494   0.213   5.258  0.00  0.00    -0.097 C 
ATOM     34  H   UNL     1      -0.694   1.880   4.098  0.00  0.00    -0.083 HD
ENDBRANCH  30  31
ENDBRANCH  29  30
ENDBRANCH   8  29
BRANCH  16  35
ATOM     35  C   UNL     1       1.305  -6.061   3.093  0.00  0.00    +0.145 C 
BRANCH  35  36
ATOM     36  C   UNL     1       1.760  -7.468   2.703  0.00  0.00    +0.136 C 
ATOM     37  C   UNL     1       2.380  -8.176   3.927  0.00  0.00    +0.035 C 
ATOM     38  C   UNL     1       3.576  -8.940   3.296  0.00  0.00    +0.031 C 
ATOM     39  C   UNL     1       3.999  -7.953   2.180  0.00  0.00    +0.160 C 
ATOM     40  O   UNL     1       2.769  -7.390   1.690  0.00  0.00    -0.375 OA
ENDBRANCH  35  36
ENDBRANCH  16  35
TORSDOF 8
