REMARK  Name = ZINC30872547
REMARK  4 active torsions:
REMARK  status: ('A' for Active; 'I' for Inactive)
REMARK    1  A    between atoms: C_4  and  S_7
REMARK    2  A    between atoms: S_7  and  N_10
REMARK    3  A    between atoms: N_10  and  C_11
REMARK    4  A    between atoms: C_14  and  C_18
REMARK                            x       y       z     vdW  Elec       q    Type
REMARK                         _______ _______ _______ _____ _____    ______ ____
ROOT
ATOM      1  C   UNL     1       2.707   6.107   2.047  0.00  0.00    +0.076 A 
ATOM      2  C   UNL     1       1.702   5.457   1.336  0.00  0.00    +0.027 A 
ATOM      3  C   UNL     1       1.731   4.100   1.189  0.00  0.00    +0.016 A 
ATOM      4  C   UNL     1       2.773   3.356   1.752  0.00  0.00    +0.056 A 
ATOM      5  C   UNL     1       3.782   4.006   2.473  0.00  0.00    +0.055 A 
ATOM      6  C   UNL     1       3.748   5.377   2.612  0.00  0.00    +0.047 A 
ATOM      7 CL   UNL     1       5.074   3.090   3.182  0.00  0.00    -0.083 Cl
ENDROOT
BRANCH   4   8
ATOM      8  C   UNL     1       2.805   1.891   1.594  0.00  0.00    +0.253 C 
ATOM      9  O   UNL     1       3.800   1.349   1.152  0.00  0.00    -0.270 OA
ATOM     10  N   UNL     1       1.732   1.152   1.939  0.00  0.00    -0.257 N 
ATOM     11  C   UNL     1       0.559   1.769   2.575  0.00  0.00    +0.210 C 
ATOM     12  C   UNL     1       0.075   0.873   3.687  0.00  0.00    +0.235 C 
ATOM     13  O   UNL     1      -0.491   1.358   4.644  0.00  0.00    -0.274 OA
ATOM     14  N   UNL     1       0.257  -0.460   3.626  0.00  0.00    -0.283 N 
ATOM     15  C   UNL     1       0.945  -1.039   2.554  0.00  0.00    +0.055 A 
ATOM     16  C   UNL     1       1.698  -0.230   1.701  0.00  0.00    +0.058 A 
ATOM     17  C   UNL     1       2.389  -0.790   0.642  0.00  0.00    +0.025 A 
ATOM     18  C   UNL     1       2.326  -2.156   0.427  0.00  0.00    +0.002 A 
ATOM     19  C   UNL     1       1.577  -2.958   1.267  0.00  0.00    +0.002 A 
ATOM     20  C   UNL     1       0.886  -2.405   2.330  0.00  0.00    +0.025 A 
ATOM     21  H   UNL     1      -0.136  -1.105   4.425  0.00  0.00    +0.155 HD
ENDBRANCH   4   8
BRANCH   1  22
ATOM     22  N   UNL     1       2.671   7.490   2.193  0.00  0.00    -0.098 NA
BRANCH  22  23
ATOM     23  S   UNL     1       2.933   8.173   3.678  0.00  0.00    +0.092 S 
ATOM     24  O   UNL     1       4.105   7.565   4.204  0.00  0.00    -0.148 OA
ATOM     25  O   UNL     1       2.815   9.579   3.506  0.00  0.00    -0.148 OA
BRANCH  23  29
ATOM     26  C   UNL     1      -0.491   6.908   6.355  0.00  0.00    +0.000 A 
ATOM     27  C   UNL     1       0.691   6.192   6.361  0.00  0.00    +0.002 A 
ATOM     28  C   UNL     1       1.736   6.578   5.543  0.00  0.00    +0.029 A 
ATOM     29  C   UNL     1       1.600   7.680   4.720  0.00  0.00    +0.110 A 
ATOM     30  C   UNL     1       0.419   8.400   4.719  0.00  0.00    +0.029 A 
ATOM     31  C   UNL     1      -0.628   8.010   5.532  0.00  0.00    +0.002 A 
ENDBRANCH  23  29
ENDBRANCH  22  23
ENDBRANCH   1  22
TORSDOF 4
