REMARK  Name = ZINC39675292
REMARK  15 active torsions:
REMARK  status: ('A' for Active; 'I' for Inactive)
REMARK    1  A    between atoms: C_1  and  C_2
REMARK    2  A    between atoms: C_2  and  C_4
REMARK    3  A    between atoms: C_2  and  N_14
REMARK    4  A    between atoms: C_4  and  C_5
REMARK    5  A    between atoms: C_5  and  C_6
REMARK    6  A    between atoms: C_9  and  O_12
REMARK    7  A    between atoms: O_12  and  C_13
REMARK    8  A    between atoms: C_15  and  C_17
REMARK    9  A    between atoms: C_28  and  C_30
REMARK   10  A    between atoms: C_32  and  O_40
REMARK   11  A    between atoms: C_33  and  O_38
REMARK   12  A    between atoms: C_34  and  O_36
REMARK   13  A    between atoms: O_36  and  C_37
REMARK   14  A    between atoms: O_38  and  C_39
REMARK   15  A    between atoms: O_40  and  C_41
REMARK                            x       y       z     vdW  Elec       q    Type
REMARK                         _______ _______ _______ _____ _____    ______ ____
ROOT
ATOM      1  C   UNL     1      -4.037  -1.421  -0.879  0.00  0.00    +0.100 C 
ATOM      2  C   UNL     1      -4.676  -0.290  -0.041  0.00  0.00    +0.121 C 
ATOM      3  N   UNL     1      -5.228   0.652  -1.043  0.00  0.00    -0.296 N 
ATOM      4  C   UNL     1      -5.788  -0.223  -2.101  0.00  0.00    +0.115 C 
ATOM      5  C   UNL     1      -4.773  -1.376  -2.228  0.00  0.00    -0.004 C 
ATOM      6  C   UNL     1      -5.499  -2.694  -2.479  0.00  0.00    -0.010 C 
ATOM      7  C   UNL     1      -6.174  -2.647  -3.852  0.00  0.00    -0.082 C 
ATOM      8  N   UNL     1      -5.162  -2.419  -4.890  0.00  0.00    +0.379 N 
ATOM      9  C   UNL     1      -4.532  -1.107  -4.696  0.00  0.00    -0.082 C 
ATOM     10  C   UNL     1      -3.788  -1.089  -3.358  0.00  0.00    -0.010 C 
ATOM     11  C   UNL     1      -5.223   1.999  -1.002  0.00  0.00    +0.247 C 
ATOM     12  O   UNL     1      -4.613   2.578  -0.124  0.00  0.00    -0.270 OA
ATOM     13  H   UNL     1      -4.457  -3.139  -4.835  0.00  0.00    -0.086 HD
ATOM     14  H   UNL     1      -5.600  -2.449  -5.798  0.00  0.00    -0.086 HD
ENDROOT
BRANCH  11  15
ATOM     15  C   UNL     1      -5.959   2.771  -2.022  0.00  0.00    +0.044 A 
ATOM     16  C   UNL     1      -6.994   2.170  -2.743  0.00  0.00    +0.062 A 
ATOM     17  C   UNL     1      -7.681   2.896  -3.698  0.00  0.00    +0.166 A 
ATOM     18  C   UNL     1      -7.343   4.225  -3.941  0.00  0.00    +0.204 A 
ATOM     19  C   UNL     1      -6.313   4.826  -3.224  0.00  0.00    +0.166 A 
ATOM     20  C   UNL     1      -5.626   4.106  -2.264  0.00  0.00    +0.062 A 
BRANCH  19  21
ATOM     21  O   UNL     1      -5.985   6.124  -3.464  0.00  0.00    -0.491 OA
ATOM     22  C   UNL     1      -4.917   6.677  -2.691  0.00  0.00    +0.277 C 
ENDBRANCH  19  21
BRANCH  18  23
ATOM     23  O   UNL     1      -8.021   4.936  -4.880  0.00  0.00    -0.488 OA
ATOM     24  C   UNL     1      -9.179   5.650  -4.443  0.00  0.00    +0.277 C 
ENDBRANCH  18  23
BRANCH  17  25
ATOM     25  O   UNL     1      -8.689   2.312  -4.400  0.00  0.00    -0.491 OA
ATOM     26  C   UNL     1      -8.982   0.946  -4.100  0.00  0.00    +0.277 C 
ENDBRANCH  17  25
ENDBRANCH  11  15
BRANCH   1  28
ATOM     27  N   UNL     1      -1.727  -2.190  -1.313  0.00  0.00    -0.312 N 
ATOM     28  C   UNL     1      -2.566  -1.163  -1.074  0.00  0.00    +0.218 C 
ATOM     29  O   UNL     1      -2.136  -0.030  -1.016  0.00  0.00    -0.275 OA
ATOM     30  H   UNL     1      -2.071  -3.096  -1.360  0.00  0.00    +0.149 HD
BRANCH  27  32
ATOM     31  C   UNL     1       0.397  -1.882  -0.141  0.00  0.00    +0.028 C 
ATOM     32  C   UNL     1      -0.296  -1.939  -1.503  0.00  0.00    +0.070 C 
BRANCH  32  33
ATOM     33  C   UNL     1       0.313  -3.067  -2.339  0.00  0.00    +0.026 C 
BRANCH  33  34
ATOM     34  C   UNL     1      -0.292  -3.045  -3.744  0.00  0.00    +0.037 C 
BRANCH  34  35
ATOM     35  C   UNL     1       0.308  -4.156  -4.567  0.00  0.00    -0.047 A 
ATOM     36  C   UNL     1       1.456  -3.927  -5.302  0.00  0.00    +0.007 A 
ATOM     37  C   UNL     1       2.008  -4.944  -6.058  0.00  0.00    +0.046 A 
ATOM     38  C   UNL     1       1.409  -6.195  -6.077  0.00  0.00    +0.120 A 
ATOM     39  C   UNL     1       0.257  -6.422  -5.338  0.00  0.00    +0.046 A 
ATOM     40  C   UNL     1      -0.288  -5.403  -4.580  0.00  0.00    +0.007 A 
BRANCH  38  41
ATOM     41  O   UNL     1       1.950  -7.196  -6.820  0.00  0.00    -0.495 OA
ATOM     42  C   UNL     1       1.280  -8.458  -6.793  0.00  0.00    +0.277 C 
ENDBRANCH  38  41
ENDBRANCH  34  35
ENDBRANCH  33  34
ENDBRANCH  32  33
ENDBRANCH  27  32
ENDBRANCH   1  28
TORSDOF 10
