REMARK  Name = ZINC40115024
REMARK  9 active torsions:
REMARK  status: ('A' for Active; 'I' for Inactive)
REMARK    1  A    between atoms: C_1  and  C_2
REMARK    2  A    between atoms: C_3  and  C_14
REMARK    3  A    between atoms: C_8  and  C_11
REMARK    4  A    between atoms: C_14  and  C_15
REMARK    5  A    between atoms: N_17  and  C_18
REMARK    6  A    between atoms: C_18  and  C_19
REMARK    7  A    between atoms: C_19  and  C_20
REMARK    8  A    between atoms: C_19  and  C_21
REMARK    9  A    between atoms: C_19  and  C_27
REMARK                            x       y       z     vdW  Elec       q    Type
REMARK                         _______ _______ _______ _____ _____    ______ ____
ROOT
ATOM      1  C   UNL     1      -3.694  -0.236   1.022  0.00  0.00    +0.218 C 
ATOM      2  O   UNL     1      -2.974  -0.797   1.821  0.00  0.00    -0.275 OA
ATOM      3  N   UNL     1      -4.576   0.691   1.446  0.00  0.00    -0.314 N 
ATOM      4  H   UNL     1      -5.152   1.139   0.807  0.00  0.00    +0.149 HD
ENDROOT
BRANCH   1   5
ATOM      5  C   UNL     1      -3.603  -0.576  -0.443  0.00  0.00    +0.138 C 
BRANCH   5   8
ATOM      6  C   UNL     1      -0.812   0.179  -0.735  0.00  0.00    +0.066 C 
ATOM      7  C   UNL     1      -1.209  -1.274  -0.789  0.00  0.00    +0.049 A 
ATOM      8  C   UNL     1      -2.549  -1.633  -0.649  0.00  0.00    +0.049 A 
ATOM      9  C   UNL     1      -2.896  -2.955  -0.700  0.00  0.00    +0.279 A 
ATOM     10  N   UNL     1      -1.917  -3.891  -0.888  0.00  0.00    -0.177 N 
ATOM     11  C   UNL     1      -0.617  -3.492  -1.020  0.00  0.00    +0.177 A 
ATOM     12  N   UNL     1      -0.290  -2.199  -0.974  0.00  0.00    -0.231 NA
ATOM     13  C   UNL     1       0.149  -4.660  -1.198  0.00  0.00    +0.116 A 
ATOM     14  C   UNL     1      -0.746  -5.745  -1.164  0.00  0.00    +0.156 A 
ATOM     15  N   UNL     1      -1.956  -5.286  -0.982  0.00  0.00    -0.169 NA
ATOM     16  O   UNL     1      -4.188  -3.331  -0.567  0.00  0.00    -0.265 OA
BRANCH  13  17
ATOM     17  C   UNL     1       1.567  -4.730  -1.378  0.00  0.00    +0.104 C 
ATOM     18  N   UNL     1       2.693  -4.786  -1.521  0.00  0.00    -0.191 NA
ENDBRANCH  13  17
ENDBRANCH   5   8
ENDBRANCH   1   5
BRANCH   3  19
ATOM     19  C   UNL     1      -4.665   1.021   2.870  0.00  0.00    +0.120 C 
BRANCH  19  20
ATOM     20  C   UNL     1      -5.735   2.094   3.079  0.00  0.00    +0.033 C 
ATOM     21  C   UNL     1      -7.087   1.567   2.593  0.00  0.00    +0.023 C 
BRANCH  20  22
ATOM     22  C   UNL     1      -5.826   2.434   4.545  0.00  0.00    -0.036 A 
ATOM     23  C   UNL     1      -6.979   2.145   5.251  0.00  0.00    +0.004 A 
ATOM     24  C   UNL     1      -7.062   2.457   6.595  0.00  0.00    +0.000 A 
ATOM     25  C   UNL     1      -5.993   3.057   7.233  0.00  0.00    +0.000 A 
ATOM     26  C   UNL     1      -4.840   3.345   6.527  0.00  0.00    +0.000 A 
ATOM     27  C   UNL     1      -4.755   3.029   5.184  0.00  0.00    +0.004 A 
ENDBRANCH  20  22
BRANCH  20  28
ATOM     28  C   UNL     1      -5.367   3.330   2.299  0.00  0.00    -0.036 A 
ATOM     29  C   UNL     1      -4.147   3.401   1.654  0.00  0.00    +0.004 A 
ATOM     30  C   UNL     1      -3.809   4.535   0.938  0.00  0.00    +0.000 A 
ATOM     31  C   UNL     1      -4.692   5.596   0.867  0.00  0.00    +0.000 A 
ATOM     32  C   UNL     1      -5.913   5.524   1.512  0.00  0.00    +0.000 A 
ATOM     33  C   UNL     1      -6.252   4.389   2.224  0.00  0.00    +0.004 A 
ENDBRANCH  20  28
ENDBRANCH  19  20
ENDBRANCH   3  19
TORSDOF 7
