REMARK  Name = ZINC02404611
REMARK  10 active torsions:
REMARK  status: ('A' for Active; 'I' for Inactive)
REMARK    1  A    between atoms: C_1  and  C_2
REMARK    2  A    between atoms: C_2  and  N_49
REMARK    3  A    between atoms: C_3  and  C_4
REMARK    4  A    between atoms: C_3  and  N_49
REMARK    5  A    between atoms: C_5  and  C_6
REMARK    6  A    between atoms: C_5  and  N_49
REMARK    7  A    between atoms: C_7  and  O_26
REMARK    8  A    between atoms: C_13  and  C_25
REMARK    9  A    between atoms: C_14  and  O_17
REMARK   10  A    between atoms: O_17  and  C_18
REMARK                            x       y       z     vdW  Elec       q    Type
REMARK                         _______ _______ _______ _____ _____    ______ ____
ROOT
ATOM      1  C   UNL     1       0.854   1.703   0.359  0.00  0.00    +0.020 A 
ATOM      2  C   UNL     1       2.152   2.119   0.606  0.00  0.00    +0.122 A 
ATOM      3  C   UNL     1       2.429   3.459   0.869  0.00  0.00    +0.046 A 
ATOM      4  C   UNL     1       1.423   4.382   0.886  0.00  0.00    +0.019 A 
ATOM      5  C   UNL     1       0.110   3.979   0.639  0.00  0.00    +0.068 A 
ATOM      6  C   UNL     1      -0.179   2.630   0.367  0.00  0.00    +0.144 A 
ATOM      7  O   UNL     1      -1.450   2.253   0.124  0.00  0.00    -0.456 OA
ATOM      8  C   UNL     1      -2.469   3.122   0.124  0.00  0.00    +0.148 A 
ATOM      9  C   UNL     1      -2.305   4.438   0.366  0.00  0.00    +0.213 A 
ATOM     10  C   UNL     1      -1.004   4.943   0.647  0.00  0.00    +0.235 A 
ATOM     11  O   UNL     1      -0.817   6.127   0.872  0.00  0.00    -0.283 OA
ATOM     12  C   UNL     1      -3.857   2.608  -0.159  0.00  0.00    +0.090 C 
ENDROOT
BRANCH   2  13
ATOM     13  O   UNL     1       3.163   1.213   0.592  0.00  0.00    -0.506 OA
ATOM     14  H   UNL     1       3.574   1.095  -0.275  0.00  0.00    +0.292 HD
ENDBRANCH   2  13
BRANCH   1  15
ATOM     15  C   UNL     1       0.566   0.251   0.076  0.00  0.00    -0.036 C 
BRANCH  15  16
ATOM     16  N   UNL     1       0.309  -0.442   1.356  0.00  0.00    +0.382 N 
ATOM     17  H   UNL     1       1.079  -0.241   2.005  0.00  0.00    -0.081 HD
BRANCH  16  19
ATOM     18  C   UNL     1      -2.142  -0.323   1.054  0.00  0.00    -0.017 C 
ATOM     19  C   UNL     1      -0.955   0.043   1.948  0.00  0.00    -0.082 C 
ENDBRANCH  16  19
BRANCH  16  20
ATOM     20  C   UNL     1       0.236  -1.901   1.135  0.00  0.00    -0.082 C 
ATOM     21  C   UNL     1       0.297  -2.608   2.490  0.00  0.00    -0.017 C 
ENDBRANCH  16  20
ENDBRANCH  15  16
ENDBRANCH   1  15
BRANCH   9  22
ATOM     22  O   UNL     1      -3.377   5.276   0.354  0.00  0.00    -0.448 OA
BRANCH  22  23
ATOM     23  C   UNL     1      -4.046   5.474   1.520  0.00  0.00    +0.143 A 
ATOM     24  C   UNL     1      -3.635   4.826   2.676  0.00  0.00    +0.047 A 
ATOM     25  C   UNL     1      -4.314   5.032   3.861  0.00  0.00    +0.004 A 
ATOM     26  C   UNL     1      -5.410   5.875   3.894  0.00  0.00    +0.001 A 
ATOM     27  C   UNL     1      -5.825   6.518   2.744  0.00  0.00    +0.019 A 
ATOM     28  C   UNL     1      -5.146   6.320   1.556  0.00  0.00    +0.060 A 
ATOM     29 BR   UNL     1      -5.715   7.200  -0.018  0.00  0.00    -0.046 Br
ENDBRANCH  22  23
ENDBRANCH   9  22
TORSDOF 7
