REMARK  Name = ZINC40383393
REMARK  7 active torsions:
REMARK  status: ('A' for Active; 'I' for Inactive)
REMARK    1  A    between atoms: C_1  and  C_2
REMARK    2  A    between atoms: C_5  and  C_36
REMARK    3  A    between atoms: C_22  and  C_24
REMARK    4  A    between atoms: N_26  and  C_27
REMARK    5  A    between atoms: C_30  and  C_33
REMARK    6  A    between atoms: C_33  and  C_34
REMARK    7  A    between atoms: C_33  and  C_35
REMARK                            x       y       z     vdW  Elec       q    Type
REMARK                         _______ _______ _______ _____ _____    ______ ____
ROOT
ATOM      1  C   UNL     1       2.531  -2.190   0.393  0.00  0.00    +0.009 C 
ATOM      2  C   UNL     1       1.935  -1.261  -0.667  0.00  0.00    +0.004 C 
ATOM      3  C   UNL     1       0.415  -1.442  -0.709  0.00  0.00    +0.009 C 
ATOM      4  C   UNL     1      -0.175  -1.135   0.670  0.00  0.00    +0.004 C 
ATOM      5  C   UNL     1       0.128   0.320   1.038  0.00  0.00    +0.111 C 
ATOM      6  N   UNL     1       1.577   0.541   0.940  0.00  0.00    -0.301 N 
ATOM      7  C   UNL     1       2.262   0.194  -0.314  0.00  0.00    +0.111 C 
ATOM      8  C   UNL     1       2.277   1.062   1.995  0.00  0.00    +0.200 A 
ATOM      9  N   UNL     1       1.601   1.477   3.101  0.00  0.00    -0.295 N 
ATOM     10  H   UNL     1       0.636   1.391   3.140  0.00  0.00    +0.172 HD
ATOM     11  C   UNL     1       2.274   2.008   4.144  0.00  0.00    +0.258 A 
ATOM     12  O   UNL     1       1.678   2.399   5.136  0.00  0.00    -0.267 OA
ATOM     13  C   UNL     1       3.667   2.102   4.066  0.00  0.00    +0.069 A 
ATOM     14  C   UNL     1       4.309   1.647   2.929  0.00  0.00    +0.138 A 
ATOM     15  N   UNL     1       3.589   1.144   1.920  0.00  0.00    -0.200 NA
ATOM     16  N   UNL     1       5.690   1.688   2.845  0.00  0.00    -0.270 N 
ATOM     17  C   UNL     1       6.443   1.917   3.934  0.00  0.00    +0.219 C 
ATOM     18  O   UNL     1       7.642   2.055   3.816  0.00  0.00    -0.275 OA
ATOM     19  C   UNL     1       5.815   2.004   5.300  0.00  0.00    +0.114 C 
ATOM     20  C   UNL     1       4.456   2.700   5.200  0.00  0.00    +0.122 C 
ATOM     21  C   UNL     1      -1.689  -1.350   0.636  0.00  0.00    +0.009 C 
ATOM     22  H   UNL     1       6.121   1.549   1.987  0.00  0.00    +0.156 HD
ENDROOT
BRANCH  20  23
ATOM     23  C   UNL     1       3.700   2.513   6.491  0.00  0.00    +0.225 C 
ATOM     24  O   UNL     1       3.525   1.399   6.935  0.00  0.00    -0.275 OA
ATOM     25  N   UNL     1       3.219   3.585   7.151  0.00  0.00    -0.285 N 
ATOM     26  H   UNL     1       3.294   4.470   6.759  0.00  0.00    +0.155 HD
BRANCH  25  27
ATOM     27  C   UNL     1       2.613   3.423   8.401  0.00  0.00    +0.033 A 
ATOM     28  C   UNL     1       1.561   4.248   8.777  0.00  0.00    +0.023 A 
ATOM     29  C   UNL     1       0.965   4.085  10.012  0.00  0.00    +0.006 A 
ATOM     30  C   UNL     1       1.414   3.102  10.874  0.00  0.00    -0.045 A 
ATOM     31  C   UNL     1       2.461   2.278  10.503  0.00  0.00    +0.006 A 
ATOM     32  C   UNL     1       3.058   2.432   9.267  0.00  0.00    +0.023 A 
BRANCH  30  33
ATOM     33  C   UNL     1       0.761   2.927  12.221  0.00  0.00    +0.013 C 
ATOM     34  C   UNL     1       0.177   1.516  12.325  0.00  0.00    +0.012 C 
ATOM     35  C   UNL     1       1.802   3.131  13.323  0.00  0.00    +0.012 C 
ENDBRANCH  30  33
ENDBRANCH  25  27
ENDBRANCH  20  23
TORSDOF 3
