REMARK  Name = ZINC54574782
REMARK  6 active torsions:
REMARK  status: ('A' for Active; 'I' for Inactive)
REMARK    1  A    between atoms: C_1  and  C_2
REMARK    2  A    between atoms: C_2  and  C_4
REMARK    3  A    between atoms: C_2  and  C_25
REMARK    4  A    between atoms: C_4  and  N_5
REMARK    5  A    between atoms: C_12  and  C_15
REMARK    6  A    between atoms: C_25  and  N_26
REMARK                            x       y       z     vdW  Elec       q    Type
REMARK                         _______ _______ _______ _____ _____    ______ ____
ROOT
ATOM      1  N   UNL     1      -0.005  -0.136   2.444  0.00  0.00    -0.299 N 
ATOM      2  C   UNL     1       0.457  -0.484   3.661  0.00  0.00    +0.302 C 
ATOM      3  O   UNL     1       1.447  -1.183   3.759  0.00  0.00    -0.253 OA
ATOM      4  N   UNL     1      -0.179  -0.057   4.771  0.00  0.00    -0.285 N 
ATOM      5  C   UNL     1      -1.442   0.686   4.670  0.00  0.00    +0.109 C 
ATOM      6  C   UNL     1      -2.494  -0.010   5.541  0.00  0.00    +0.020 C 
ATOM      7  C   UNL     1      -1.958  -0.149   6.968  0.00  0.00    +0.014 C 
ATOM      8  C   UNL     1      -0.693  -1.010   6.957  0.00  0.00    +0.072 C 
ATOM      9  C   UNL     1       0.376  -0.331   6.103  0.00  0.00    +0.120 C 
ATOM     10  H   UNL     1      -0.835   0.360   2.364  0.00  0.00    +0.150 HD
ENDROOT
BRANCH   8  11
ATOM     11  C   UNL     1      -0.184  -1.175   8.367  0.00  0.00    +0.113 A 
ATOM     12  N   UNL     1       0.622  -0.289   9.012  0.00  0.00    -0.342 N 
ATOM     13  H   UNL     1       0.964   0.545   8.653  0.00  0.00    +0.167 HD
ATOM     14  C   UNL     1       0.861  -0.796  10.274  0.00  0.00    +0.066 A 
ATOM     15  C   UNL     1       1.594  -0.358  11.369  0.00  0.00    +0.028 A 
ATOM     16  C   UNL     1       1.631  -1.123  12.515  0.00  0.00    +0.002 A 
ATOM     17  C   UNL     1       0.942  -2.326  12.581  0.00  0.00    +0.002 A 
ATOM     18  C   UNL     1       0.217  -2.773  11.513  0.00  0.00    +0.030 A 
ATOM     19  C   UNL     1       0.164  -2.014  10.341  0.00  0.00    +0.089 A 
ATOM     20  N   UNL     1      -0.457  -2.181   9.145  0.00  0.00    -0.232 NA
ENDBRANCH   8  11
BRANCH   1  21
ATOM     21  C   UNL     1       0.745  -0.508   1.242  0.00  0.00    +0.110 C 
BRANCH  21  23
ATOM     22  C   UNL     1      -0.007   1.534   0.013  0.00  0.00    +0.011 C 
ATOM     23  C   UNL     1       0.008   0.004   0.002  0.00  0.00    +0.024 C 
BRANCH  23  24
ATOM     24  C   UNL     1       0.724  -0.490  -1.256  0.00  0.00    +0.148 C 
BRANCH  24  25
ATOM     25  N   UNL     1      -0.046  -0.101  -2.441  0.00  0.00    -0.271 N 
ATOM     26  C   UNL     1       0.419   0.601  -3.495  0.00  0.00    +0.108 A 
ATOM     27  C   UNL     1      -0.600   0.750  -4.373  0.00  0.00    +0.041 A 
ATOM     28  C   UNL     1      -1.726   0.119  -3.836  0.00  0.00    +0.134 A 
ATOM     29  N   UNL     1      -1.394  -0.397  -2.680  0.00  0.00    -0.180 NA
ENDBRANCH  24  25
ENDBRANCH  23  24
ENDBRANCH  21  23
ENDBRANCH   1  21
TORSDOF 5
