REMARK  Name = ZINC03531794
REMARK  7 active torsions:
REMARK  status: ('A' for Active; 'I' for Inactive)
REMARK    1  A    between atoms: C_1  and  C_2
REMARK    2  A    between atoms: C_4  and  C_22
REMARK    3  A    between atoms: C_6  and  C_17
REMARK    4  A    between atoms: N_9  and  C_11
REMARK    5  A    between atoms: C_22  and  O_24
REMARK    6  A    between atoms: O_24  and  C_25
REMARK    7  A    between atoms: C_25  and  C_26
REMARK                            x       y       z     vdW  Elec       q    Type
REMARK                         _______ _______ _______ _____ _____    ______ ____
ROOT
ATOM      1  C   UNL     1       0.994   3.112   0.136  0.00  0.00    +0.068 C 
ATOM      2  C   UNL     1       0.118   3.255   1.354  0.00  0.00    +0.070 A 
ATOM      3  C   UNL     1       0.270   2.546   2.564  0.00  0.00    +0.056 A 
ATOM      4  C   UNL     1       1.187   1.567   3.016  0.00  0.00    +0.073 A 
ATOM      5  C   UNL     1       1.032   1.074   4.306  0.00  0.00    +0.044 A 
ATOM      6  C   UNL     1      -0.013   1.560   5.103  0.00  0.00    +0.081 A 
ATOM      7  N   UNL     1      -0.855   2.478   4.652  0.00  0.00    -0.227 NA
ATOM      8  C   UNL     1      -0.753   2.981   3.431  0.00  0.00    +0.165 A 
ATOM      9  N   UNL     1      -1.477   3.919   2.735  0.00  0.00    -0.214 N 
ATOM     10  N   UNL     1      -0.902   4.058   1.466  0.00  0.00    -0.169 NA
ENDROOT
BRANCH   9  11
ATOM     11  C   UNL     1      -2.593   4.617   3.213  0.00  0.00    +0.068 A 
ATOM     12  C   UNL     1      -3.492   3.991   4.067  0.00  0.00    +0.028 A 
ATOM     13  C   UNL     1      -4.588   4.684   4.541  0.00  0.00    +0.002 A 
ATOM     14  C   UNL     1      -4.798   5.996   4.157  0.00  0.00    +0.000 A 
ATOM     15  C   UNL     1      -3.907   6.620   3.304  0.00  0.00    +0.002 A 
ATOM     16  C   UNL     1      -2.806   5.934   2.830  0.00  0.00    +0.028 A 
ENDBRANCH   9  11
BRANCH   6  17
ATOM     17  C   UNL     1      -0.178   1.039   6.474  0.00  0.00    +0.038 A 
ATOM     18  C   UNL     1      -1.115   1.373   7.418  0.00  0.00    +0.017 A 
ATOM     19  C   UNL     1      -1.074   0.744   8.641  0.00  0.00    +0.008 A 
ATOM     20  C   UNL     1      -0.104  -0.177   8.880  0.00  0.00    +0.046 A 
ATOM     21  S   UNL     1       0.794  -0.184   7.337  0.00  0.00    -0.095 S 
ENDBRANCH   6  17
BRANCH   4  22
ATOM     22  C   UNL     1       2.274   1.081   2.141  0.00  0.00    +0.340 C 
ATOM     23  O   UNL     1       2.074   0.922   0.954  0.00  0.00    -0.245 OA
BRANCH  22  24
ATOM     24  O   UNL     1       3.488   0.815   2.661  0.00  0.00    -0.452 OA
BRANCH  24  25
ATOM     25  C   UNL     1       4.509   0.342   1.743  0.00  0.00    +0.328 C 
BRANCH  25  26
ATOM     26  C   UNL     1       5.790   0.099   2.498  0.00  0.00    +0.258 C 
ATOM     27  O   UNL     1       5.838   0.304   3.692  0.00  0.00    -0.272 OA
ATOM     28  N   UNL     1       6.883  -0.347   1.846  0.00  0.00    -0.238 N 
ATOM     29  C   UNL     1       8.028  -0.564   2.521  0.00  0.00    +0.303 C 
ATOM     30  O   UNL     1       8.077  -0.358   3.718  0.00  0.00    -0.253 OA
ATOM     31  N   UNL     1       9.121  -1.010   1.869  0.00  0.00    -0.313 N 
ATOM     32  H   UNL     1       6.844  -0.511   0.891  0.00  0.00    +0.159 HD
ATOM     33  H   UNL     1       9.082  -1.174   0.914  0.00  0.00    +0.146 HD
ATOM     34  H   UNL     1       9.945  -1.166   2.355  0.00  0.00    +0.146 HD
ENDBRANCH  25  26
ENDBRANCH  24  25
ENDBRANCH  22  24
ENDBRANCH   4  22
TORSDOF 6
