REMARK  Name = ZINC52362408
REMARK  5 active torsions:
REMARK  status: ('A' for Active; 'I' for Inactive)
REMARK    1  A    between atoms: C_1  and  C_2
REMARK    2  A    between atoms: N_10  and  C_11
REMARK    3  A    between atoms: C_14  and  N_18
REMARK    4  A    between atoms: C_20  and  C_27
REMARK    5  A    between atoms: C_23  and  C_26
REMARK                            x       y       z     vdW  Elec       q    Type
REMARK                         _______ _______ _______ _____ _____    ______ ____
ROOT
ATOM      1  C   UNL     1       0.186  -6.823   0.077  0.00  0.00    +0.036 A 
ATOM      2  C   UNL     1       0.177  -6.541   1.436  0.00  0.00    +0.025 A 
ATOM      3  C   UNL     1       0.285  -7.566   2.356  0.00  0.00    +0.028 A 
ATOM      4  C   UNL     1       0.403  -8.879   1.922  0.00  0.00    +0.066 A 
ATOM      5  C   UNL     1       0.412  -9.163   0.560  0.00  0.00    +0.146 A 
ATOM      6  C   UNL     1       0.298  -8.137  -0.359  0.00  0.00    +0.063 A 
ATOM      7  F   UNL     1       0.528 -10.441   0.137  0.00  0.00    -0.203 F 
ENDROOT
BRANCH   1  17
ATOM      8  C   UNL     1       2.505   1.125  -0.385  0.00  0.00    +0.067 C 
ATOM      9  C   UNL     1       2.088  -0.322  -0.335  0.00  0.00    +0.059 A 
ATOM     10  C   UNL     1       1.329  -0.955  -1.248  0.00  0.00    +0.138 A 
ATOM     11  N   UNL     1       1.178  -2.271  -0.833  0.00  0.00    -0.212 N 
ATOM     12  C   UNL     1       1.875  -2.352   0.341  0.00  0.00    +0.197 A 
ATOM     13  N   UNL     1       2.414  -1.201   0.624  0.00  0.00    -0.225 NA
ATOM     14  S   UNL     1       1.640  -4.050   0.811  0.00  0.00    -0.013 S 
ATOM     15  C   UNL     1       0.631  -4.543  -0.577  0.00  0.00    +0.186 A 
ATOM     16  N   UNL     1       0.551  -3.436  -1.265  0.00  0.00    -0.142 NA
ATOM     17  N   UNL     1       0.077  -5.783  -0.855  0.00  0.00    -0.292 N 
ATOM     18  H   UNL     1      -0.386  -5.931  -1.694  0.00  0.00    +0.154 HD
ENDBRANCH   1  17
BRANCH   4  19
ATOM     19  N   UNL     1       0.513  -9.919   2.855  0.00  0.00    -0.323 N 
ATOM     20  C   UNL     1       1.829 -10.358   3.347  0.00  0.00    +0.136 C 
ATOM     21  C   UNL     1       1.785 -10.391   4.879  0.00  0.00    +0.133 C 
ATOM     22  O   UNL     1       0.658 -11.163   5.301  0.00  0.00    -0.371 OA
ATOM     23  C   UNL     1      -0.604 -10.624   4.902  0.00  0.00    +0.133 C 
ATOM     24  C   UNL     1      -0.683 -10.599   3.376  0.00  0.00    +0.136 C 
ATOM     25  C   UNL     1      -0.745  -9.199   5.442  0.00  0.00    +0.039 C 
ATOM     26  C   UNL     1       3.070 -11.025   5.414  0.00  0.00    +0.039 C 
ENDBRANCH   4  19
TORSDOF 2
