REMARK  Name = ZINC15978316
REMARK  14 active torsions:
REMARK  status: ('A' for Active; 'I' for Inactive)
REMARK    1  A    between atoms: C_1  and  O_2
REMARK    2  A    between atoms: O_2  and  C_3
REMARK    3  A    between atoms: C_6  and  C_11
REMARK    4  A    between atoms: C_8  and  O_9
REMARK    5  A    between atoms: O_9  and  C_10
REMARK    6  A    between atoms: N_13  and  N_14
REMARK    7  A    between atoms: C_15  and  C_17
REMARK    8  A    between atoms: C_17  and  C_19
REMARK    9  A    between atoms: C_17  and  N_23
REMARK   10  A    between atoms: C_19  and  C_20
REMARK   11  A    between atoms: C_20  and  S_21
REMARK   12  A    between atoms: S_21  and  C_22
REMARK   13  A    between atoms: N_23  and  S_24
REMARK   14  A    between atoms: S_24  and  C_27
REMARK                            x       y       z     vdW  Elec       q    Type
REMARK                         _______ _______ _______ _____ _____    ______ ____
ROOT
ATOM      1  C   UNL     1       4.504  -0.058  -2.543  0.00  0.00    +0.164 C 
ENDROOT
BRANCH   1   3
ATOM      2  N   UNL     1       5.819   0.480  -4.568  0.00  0.00    -0.233 N 
ATOM      3  C   UNL     1       5.454  -0.436  -3.650  0.00  0.00    +0.248 C 
ATOM      4  O   UNL     1       5.891  -1.566  -3.714  0.00  0.00    -0.273 OA
ATOM      5  H   UNL     1       5.470   1.384  -4.517  0.00  0.00    +0.173 HD
BRANCH   2   8
ATOM      6  C   UNL     1       7.068   1.044  -6.515  0.00  0.00    +0.260 C 
ATOM      7  O   UNL     1       6.630   2.177  -6.451  0.00  0.00    -0.269 OA
ATOM      8  N   UNL     1       6.703   0.128  -5.597  0.00  0.00    -0.230 N 
ATOM      9  H   UNL     1       7.052  -0.776  -5.648  0.00  0.00    +0.173 HD
BRANCH   6  13
ATOM     10  C   UNL     1       9.749  -0.030  -9.633  0.00  0.00    +0.162 A 
ATOM     11  C   UNL     1       9.372  -0.973  -8.686  0.00  0.00    +0.050 A 
ATOM     12  C   UNL     1       8.507  -0.626  -7.671  0.00  0.00    +0.017 A 
ATOM     13  C   UNL     1       7.998   0.673  -7.599  0.00  0.00    +0.042 A 
ATOM     14  C   UNL     1       8.378   1.622  -8.552  0.00  0.00    +0.062 A 
ATOM     15  C   UNL     1       9.250   1.270  -9.564  0.00  0.00    +0.162 A 
BRANCH  10  17
ATOM     16  C   UNL     1      11.078  -1.723 -10.639  0.00  0.00    +0.277 C 
ATOM     17  O   UNL     1      10.605  -0.375 -10.629  0.00  0.00    -0.491 OA
ENDBRANCH  10  17
BRANCH  15  18
ATOM     18  O   UNL     1       9.620   2.191 -10.493  0.00  0.00    -0.491 OA
ATOM     19  C   UNL     1       9.070   3.503 -10.362  0.00  0.00    +0.277 C 
ENDBRANCH  15  18
ENDBRANCH   6  13
ENDBRANCH   2   8
ENDBRANCH   1   3
BRANCH   1  20
ATOM     20  N   UNL     1       4.267  -1.220  -1.684  0.00  0.00    -0.178 NA
ATOM     21  H   UNL     1       3.592  -1.873  -1.926  0.00  0.00    +0.149 HD
BRANCH  20  22
ATOM     22  S   UNL     1       5.152  -1.419  -0.298  0.00  0.00    +0.059 S 
ATOM     23  O   UNL     1       6.518  -1.278  -0.665  0.00  0.00    -0.153 OA
ATOM     24  O   UNL     1       4.651  -2.586   0.339  0.00  0.00    -0.153 OA
BRANCH  22  25
ATOM     25  C   UNL     1       4.772  -0.064   0.762  0.00  0.00    +0.109 A 
ATOM     26  C   UNL     1       3.659  -0.119   1.580  0.00  0.00    +0.032 A 
ATOM     27  C   UNL     1       3.357   0.943   2.412  0.00  0.00    +0.051 A 
ATOM     28  C   UNL     1       4.170   2.066   2.428  0.00  0.00    +0.162 A 
ATOM     29  C   UNL     1       5.291   2.120   1.607  0.00  0.00    +0.164 A 
ATOM     30  C   UNL     1       5.588   1.052   0.774  0.00  0.00    +0.078 A 
ATOM     31  O   UNL     1       6.107   3.209   1.613  0.00  0.00    -0.485 OA
ATOM     32  C   UNL     1       5.573   4.410   2.182  0.00  0.00    +0.270 C 
ATOM     33  C   UNL     1       4.898   4.053   3.513  0.00  0.00    +0.270 C 
ATOM     34  O   UNL     1       3.856   3.107   3.246  0.00  0.00    -0.485 OA
ENDBRANCH  22  25
ENDBRANCH  20  22
ENDBRANCH   1  20
BRANCH   1  35
ATOM     35  C   UNL     1       3.178   0.409  -3.148  0.00  0.00    +0.040 C 
BRANCH  35  36
ATOM     36  C   UNL     1       2.262   0.920  -2.034  0.00  0.00    +0.071 C 
BRANCH  36  37
ATOM     37  S   UNL     1       0.643   1.349  -2.731  0.00  0.00    -0.164 S 
ATOM     38  C   UNL     1      -0.260   2.070  -1.333  0.00  0.00    +0.084 C 
ENDBRANCH  36  37
ENDBRANCH  35  36
ENDBRANCH   1  35
TORSDOF 11
