REMARK  Name = ZINC45382808
REMARK  10 active torsions:
REMARK  status: ('A' for Active; 'I' for Inactive)
REMARK    1  A    between atoms: C_1  and  C_2
REMARK    2  A    between atoms: C_2  and  C_4
REMARK    3  A    between atoms: C_2  and  N_13
REMARK    4  A    between atoms: C_4  and  C_5
REMARK    5  A    between atoms: C_5  and  C_6
REMARK    6  A    between atoms: C_9  and  O_12
REMARK    7  A    between atoms: N_16  and  N_17
REMARK    8  A    between atoms: C_18  and  C_20
REMARK    9  A    between atoms: C_20  and  O_21
REMARK   10  A    between atoms: O_21  and  C_22
REMARK                            x       y       z     vdW  Elec       q    Type
REMARK                         _______ _______ _______ _____ _____    ______ ____
ROOT
ATOM      1  N   UNL     1       0.688  -0.476  -1.203  0.00  0.00    -0.296 N 
ATOM      2  C   UNL     1       0.006  -0.608  -2.358  0.00  0.00    +0.316 C 
ATOM      3  O   UNL     1      -1.178  -0.335  -2.400  0.00  0.00    -0.251 OA
ATOM      4  N   UNL     1       0.637  -1.043  -3.467  0.00  0.00    -0.218 N 
ATOM      5  H   UNL     1       1.632  -0.695  -1.170  0.00  0.00    +0.151 HD
ATOM      6  H   UNL     1       0.146  -1.137  -4.299  0.00  0.00    +0.174 HD
ENDROOT
BRANCH   4   7
ATOM      7  N   UNL     1       2.001  -1.358  -3.419  0.00  0.00    -0.230 N 
ATOM      8  C   UNL     1       2.632  -1.792  -4.528  0.00  0.00    +0.267 C 
ATOM      9  O   UNL     1       2.019  -1.911  -5.568  0.00  0.00    -0.271 OA
ATOM     10  H   UNL     1       2.492  -1.263  -2.588  0.00  0.00    +0.173 HD
BRANCH   8  11
ATOM     11  C   UNL     1       4.100  -2.131  -4.476  0.00  0.00    +0.326 C 
BRANCH  11  12
ATOM     12  O   UNL     1       4.534  -2.565  -5.767  0.00  0.00    -0.483 OA
BRANCH  12  13
ATOM     13  C   UNL     1       5.843  -2.911  -5.893  0.00  0.00    +0.121 A 
ATOM     14  C   UNL     1       6.689  -2.840  -4.796  0.00  0.00    +0.048 A 
ATOM     15  C   UNL     1       8.018  -3.192  -4.926  0.00  0.00    +0.042 A 
ATOM     16  C   UNL     1       8.507  -3.616  -6.150  0.00  0.00    +0.124 A 
ATOM     17  C   UNL     1       7.663  -3.687  -7.246  0.00  0.00    +0.042 A 
ATOM     18  C   UNL     1       6.332  -3.342  -7.118  0.00  0.00    +0.048 A 
ATOM     19  F   UNL     1       9.807  -3.959  -6.276  0.00  0.00    -0.205 F 
ENDBRANCH  12  13
ENDBRANCH  11  12
ENDBRANCH   8  11
ENDBRANCH   4   7
BRANCH   1  21
ATOM     20  C   UNL     1      -0.019   1.526   0.010  0.00  0.00    +0.028 C 
ATOM     21  C   UNL     1       0.002  -0.004   0.002  0.00  0.00    +0.072 C 
BRANCH  21  22
ATOM     22  C   UNL     1       0.742  -0.511   1.242  0.00  0.00    +0.026 C 
BRANCH  22  23
ATOM     23  C   UNL     1       0.655  -2.037   1.299  0.00  0.00    +0.037 C 
BRANCH  23  24
ATOM     24  C   UNL     1       1.384  -2.537   2.519  0.00  0.00    -0.047 A 
ATOM     25  C   UNL     1       2.731  -2.841   2.443  0.00  0.00    +0.007 A 
ATOM     26  C   UNL     1       3.401  -3.299   3.561  0.00  0.00    +0.045 A 
ATOM     27  C   UNL     1       2.722  -3.453   4.761  0.00  0.00    +0.117 A 
ATOM     28  C   UNL     1       1.371  -3.147   4.835  0.00  0.00    +0.045 A 
ATOM     29  C   UNL     1       0.707  -2.684   3.716  0.00  0.00    +0.007 A 
BRANCH  27  30
ATOM     30  O   UNL     1       3.379  -3.905   5.861  0.00  0.00    -0.507 OA
ATOM     31  H   UNL     1       3.771  -3.204   6.401  0.00  0.00    +0.292 HD
ENDBRANCH  27  30
ENDBRANCH  23  24
ENDBRANCH  22  23
ENDBRANCH  21  22
ENDBRANCH   1  21
TORSDOF 9
