REMARK  Name = ZINC04729814
REMARK  8 active torsions:
REMARK  status: ('A' for Active; 'I' for Inactive)
REMARK    1  A    between atoms: C_1  and  C_2
REMARK    2  A    between atoms: C_2  and  C_3
REMARK    3  A    between atoms: C_6  and  C_9
REMARK    4  A    between atoms: C_11  and  C_23
REMARK    5  A    between atoms: C_13  and  C_16
REMARK    6  A    between atoms: C_21  and  O_22
REMARK    7  A    between atoms: C_26  and  S_29
REMARK    8  A    between atoms: S_29  and  C_30
REMARK                            x       y       z     vdW  Elec       q    Type
REMARK                         _______ _______ _______ _____ _____    ______ ____
ROOT
ATOM      1  C   UNL     1      -7.010  -2.024   2.958  0.00  0.00    +0.040 C 
ATOM      2  N   UNL     1      -6.949  -0.885   2.377  0.00  0.00    -0.299 NA
ATOM      3  C   UNL     1      -6.404  -0.676   1.042  0.00  0.00    +0.081 C 
ATOM      4  C   UNL     1      -5.644  -2.963   1.115  0.00  0.00    -0.028 C 
ATOM      5  C   UNL     1      -6.530  -3.298   2.319  0.00  0.00    +0.044 C 
ATOM      6  N   UNL     1      -6.335  -1.944   0.301  0.00  0.00    +0.401 N 
ATOM      7  H   UNL     1      -5.819  -1.800  -0.574  0.00  0.00    -0.081 HD
ATOM      8  H   UNL     1      -7.287  -2.267   0.088  0.00  0.00    -0.081 HD
ENDROOT
BRANCH   1  12
ATOM      9  C   UNL     1      -8.644  -2.215   6.872  0.00  0.00    -0.048 A 
ATOM     10  C   UNL     1      -8.564  -0.998   6.217  0.00  0.00    +0.004 A 
ATOM     11  C   UNL     1      -8.034  -0.929   4.946  0.00  0.00    +0.010 A 
ATOM     12  C   UNL     1      -7.578  -2.090   4.319  0.00  0.00    -0.004 A 
ATOM     13  C   UNL     1      -7.667  -3.316   4.983  0.00  0.00    +0.010 A 
ATOM     14  C   UNL     1      -8.194  -3.370   6.256  0.00  0.00    +0.004 A 
BRANCH   9  16
ATOM     15  C   UNL     1     -10.733  -2.519   8.173  0.00  0.00    +0.009 C 
ATOM     16  C   UNL     1      -9.224  -2.283   8.261  0.00  0.00    +0.032 C 
ENDBRANCH   9  16
ENDBRANCH   1  12
BRANCH   4  17
ATOM     17  C   UNL     1      -5.420  -4.203   0.288  0.00  0.00    -0.019 A 
ATOM     18  C   UNL     1      -6.181  -4.426  -0.843  0.00  0.00    +0.005 A 
ATOM     19  C   UNL     1      -5.973  -5.561  -1.605  0.00  0.00    +0.000 A 
ATOM     20  C   UNL     1      -5.010  -6.480  -1.232  0.00  0.00    +0.004 A 
ATOM     21  C   UNL     1      -4.249  -6.264  -0.100  0.00  0.00    +0.045 A 
ATOM     22  C   UNL     1      -4.453  -5.123   0.664  0.00  0.00    +0.118 A 
BRANCH  22  23
ATOM     23  O   UNL     1      -3.706  -4.909   1.779  0.00  0.00    -0.507 OA
ATOM     24  H   UNL     1      -4.090  -5.278   2.586  0.00  0.00    +0.292 HD
ENDBRANCH  22  23
ENDBRANCH   4  17
BRANCH   3  25
ATOM     25  C   UNL     1      -5.021  -0.090   1.157  0.00  0.00    -0.040 A 
ATOM     26  C   UNL     1      -4.691   0.693   2.248  0.00  0.00    +0.005 A 
ATOM     27  C   UNL     1      -3.424   1.231   2.356  0.00  0.00    +0.015 A 
ATOM     28  C   UNL     1      -2.480   0.986   1.367  0.00  0.00    +0.008 A 
ATOM     29  C   UNL     1      -2.816   0.203   0.269  0.00  0.00    +0.015 A 
ATOM     30  C   UNL     1      -4.083  -0.336   0.170  0.00  0.00    +0.005 A 
BRANCH  28  31
ATOM     31  S   UNL     1      -0.862   1.671   1.500  0.00  0.00    -0.129 S 
ATOM     32  C   UNL     1      -0.013   1.086   0.008  0.00  0.00    +0.090 C 
ENDBRANCH  28  31
ENDBRANCH   3  25
TORSDOF 6
