REMARK  Name = ZINC18106359
REMARK  6 active torsions:
REMARK  status: ('A' for Active; 'I' for Inactive)
REMARK    1  A    between atoms: C_1  and  O_2
REMARK    2  A    between atoms: O_2  and  C_3
REMARK    3  A    between atoms: C_6  and  C_11
REMARK    4  A    between atoms: C_8  and  O_9
REMARK    5  A    between atoms: O_9  and  C_10
REMARK    6  A    between atoms: C_16  and  C_26
REMARK                            x       y       z     vdW  Elec       q    Type
REMARK                         _______ _______ _______ _____ _____    ______ ____
ROOT
ATOM      1  C   UNL     1       2.507  -2.501  -4.386  0.00  0.00    +0.032 C 
ATOM      2  C   UNL     1       3.969  -2.062  -4.466  0.00  0.00    +0.059 C 
ATOM      3  C   UNL     1       4.643  -2.720  -5.658  0.00  0.00    +0.017 C 
ATOM      4  C   UNL     1       3.943  -2.987  -6.774  0.00  0.00    +0.037 C 
ATOM      5  C   UNL     1       4.487  -3.631  -8.027  0.00  0.00    +0.143 C 
ATOM      6  N   UNL     1       5.930  -3.733  -8.073  0.00  0.00    -0.331 N 
ATOM      7  C   UNL     1       6.623  -4.529  -7.163  0.00  0.00    +0.049 A 
ATOM      8  C   UNL     1       7.334  -5.646  -7.572  0.00  0.00    +0.025 A 
ATOM      9  C   UNL     1       7.967  -6.433  -6.625  0.00  0.00    +0.002 A 
ATOM     10  C   UNL     1       7.890  -6.112  -5.282  0.00  0.00    +0.002 A 
ATOM     11  C   UNL     1       7.194  -4.987  -4.873  0.00  0.00    +0.025 A 
ATOM     12  C   UNL     1       6.580  -4.187  -5.820  0.00  0.00    +0.052 A 
ATOM     13  N   UNL     1       5.963  -2.987  -5.490  0.00  0.00    -0.316 N 
ATOM     14  C   UNL     1       2.565  -2.674  -6.843  0.00  0.00    +0.163 C 
ATOM     15  O   UNL     1       1.963  -2.901  -7.873  0.00  0.00    -0.292 OA
ATOM     16  C   UNL     1       1.820  -2.072  -5.689  0.00  0.00    +0.088 C 
ATOM     17  H   UNL     1       6.422  -3.239  -8.748  0.00  0.00    +0.147 HD
ATOM     18  H   UNL     1       6.517  -2.287  -5.111  0.00  0.00    +0.152 HD
ENDROOT
BRANCH   5  19
ATOM     19  C   UNL     1       3.909  -5.019  -8.139  0.00  0.00    +0.059 A 
ATOM     20  C   UNL     1       3.090  -5.331  -9.159  0.00  0.00    +0.205 A 
ATOM     21  O   UNL     1       2.549  -6.544  -9.309  0.00  0.00    -0.462 OA
ATOM     22  C   UNL     1       2.784  -7.553  -8.445  0.00  0.00    +0.138 A 
ATOM     23  C   UNL     1       2.205  -8.803  -8.630  0.00  0.00    +0.047 A 
ATOM     24  C   UNL     1       2.461  -9.818  -7.734  0.00  0.00    +0.004 A 
ATOM     25  C   UNL     1       3.293  -9.607  -6.643  0.00  0.00    +0.001 A 
ATOM     26  C   UNL     1       3.876  -8.375  -6.441  0.00  0.00    +0.015 A 
ATOM     27  C   UNL     1       3.625  -7.341  -7.341  0.00  0.00    +0.064 A 
ATOM     28  C   UNL     1       4.231  -6.006  -7.170  0.00  0.00    +0.198 A 
ATOM     29  O   UNL     1       4.974  -5.761  -6.235  0.00  0.00    -0.287 OA
ENDBRANCH   5  19
BRANCH   1  33
ATOM     30  C   UNL     1       0.606  -0.608  -1.056  0.00  0.00    +0.161 A 
ATOM     31  C   UNL     1       1.173   0.159  -2.062  0.00  0.00    +0.049 A 
ATOM     32  C   UNL     1       1.787  -0.456  -3.137  0.00  0.00    +0.008 A 
ATOM     33  C   UNL     1       1.837  -1.836  -3.212  0.00  0.00    -0.040 A 
ATOM     34  C   UNL     1       1.273  -2.606  -2.212  0.00  0.00    +0.053 A 
ATOM     35  C   UNL     1       0.662  -1.996  -1.129  0.00  0.00    +0.162 A 
BRANCH  30  37
ATOM     36  C   UNL     1      -0.017   1.425   0.010  0.00  0.00    +0.277 C 
ATOM     37  O   UNL     1       0.002  -0.004   0.002  0.00  0.00    -0.491 OA
ENDBRANCH  30  37
BRANCH  35  38
ATOM     38  O   UNL     1       0.112  -2.753  -0.142  0.00  0.00    -0.491 OA
ATOM     39  C   UNL     1       0.206  -4.171  -0.283  0.00  0.00    +0.277 C 
ENDBRANCH  35  38
ENDBRANCH   1  33
TORSDOF 4
