REMARK  Name = ZINC34686357
REMARK  11 active torsions:
REMARK  status: ('A' for Active; 'I' for Inactive)
REMARK    1  A    between atoms: C_1  and  C_2
REMARK    2  A    between atoms: C_2  and  C_4
REMARK    3  A    between atoms: C_2  and  O_12
REMARK    4  A    between atoms: N_6  and  C_7
REMARK    5  A    between atoms: C_7  and  C_8
REMARK    6  A    between atoms: C_8  and  N_9
REMARK    7  A    between atoms: N_9  and  C_10
REMARK    8  A    between atoms: N_9  and  C_11
REMARK    9  A    between atoms: O_12  and  C_13
REMARK   10  A    between atoms: C_19  and  C_31
REMARK   11  A    between atoms: C_24  and  C_26
REMARK                            x       y       z     vdW  Elec       q    Type
REMARK                         _______ _______ _______ _____ _____    ______ ____
ROOT
ATOM      1  C   UNL     1      -0.090  -0.565  -2.307  0.00  0.00    +0.122 A 
ATOM      2  C   UNL     1      -1.435  -0.224  -2.293  0.00  0.00    +0.046 A 
ATOM      3  C   UNL     1      -2.184  -0.346  -3.444  0.00  0.00    +0.007 A 
ATOM      4  C   UNL     1      -1.605  -0.806  -4.621  0.00  0.00    -0.040 A 
ATOM      5  C   UNL     1      -0.268  -1.137  -4.637  0.00  0.00    -0.016 A 
ATOM      6  C   UNL     1       0.489  -1.016  -3.481  0.00  0.00    +0.051 A 
ATOM      7  C   UNL     1       0.430  -1.615  -5.886  0.00  0.00    +0.137 C 
ATOM      8  N   UNL     1      -0.564  -1.924  -6.920  0.00  0.00    -0.290 N 
ATOM      9  C   UNL     1      -1.660  -0.960  -7.114  0.00  0.00    +0.113 C 
ATOM     10  C   UNL     1      -2.491  -0.928  -5.833  0.00  0.00    +0.054 C 
ATOM     11  C   UNL     1      -0.478  -3.046  -7.661  0.00  0.00    +0.219 C 
ATOM     12  O   UNL     1       0.434  -3.824  -7.480  0.00  0.00    -0.275 OA
ENDROOT
BRANCH   7  13
ATOM     13  C   UNL     1       1.354  -0.535  -6.388  0.00  0.00    -0.023 A 
ATOM     14  C   UNL     1       2.691  -0.816  -6.604  0.00  0.00    +0.006 A 
ATOM     15  C   UNL     1       3.539   0.174  -7.065  0.00  0.00    +0.000 A 
ATOM     16  C   UNL     1       3.050   1.444  -7.309  0.00  0.00    +0.000 A 
ATOM     17  C   UNL     1       1.714   1.724  -7.094  0.00  0.00    +0.000 A 
ATOM     18  C   UNL     1       0.865   0.733  -6.638  0.00  0.00    +0.006 A 
ENDBRANCH   7  13
BRANCH  11  19
ATOM     19  C   UNL     1      -1.516  -3.334  -8.715  0.00  0.00    +0.075 C 
ATOM     20  C   UNL     1      -2.902  -3.503  -8.059  0.00  0.00    +0.013 C 
ATOM     21  C   UNL     1      -3.577  -4.628  -8.882  0.00  0.00    +0.001 C 
ATOM     22  C   UNL     1      -2.402  -5.596  -9.165  0.00  0.00    +0.001 C 
ATOM     23  C   UNL     1      -1.198  -4.665  -9.418  0.00  0.00    +0.013 C 
ENDBRANCH  11  19
BRANCH   1  24
ATOM     24  O   UNL     1       0.655  -0.452  -1.176  0.00  0.00    -0.480 OA
BRANCH  24  26
ATOM     25  C   UNL     1       2.312  -2.212  -1.167  0.00  0.00    +0.062 C 
ATOM     26  C   UNL     1       2.056  -0.709  -1.294  0.00  0.00    +0.255 C 
BRANCH  26  27
ATOM     27  C   UNL     1       2.794   0.021  -0.201  0.00  0.00    +0.253 C 
ATOM     28  O   UNL     1       2.175   0.620   0.653  0.00  0.00    -0.272 OA
ATOM     29  N   UNL     1       4.141   0.008  -0.173  0.00  0.00    -0.314 N 
ATOM     30  H   UNL     1       4.636  -0.471  -0.857  0.00  0.00    +0.149 HD
BRANCH  29  31
ATOM     31  C   UNL     1       4.859   0.717   0.889  0.00  0.00    +0.086 C 
BRANCH  31  32
ATOM     32  C   UNL     1       6.366   0.545   0.689  0.00  0.00    -0.061 C 
BRANCH  32  33
ATOM     33  N   UNL     1       7.085   1.256   1.754  0.00  0.00    +0.377 N 
ATOM     34  C   UNL     1       8.525   0.992   1.633  0.00  0.00    -0.097 C 
ATOM     35  C   UNL     1       6.840   2.699   1.632  0.00  0.00    -0.097 C 
ATOM     36  H   UNL     1       6.759   0.934   2.653  0.00  0.00    -0.083 HD
ENDBRANCH  32  33
ENDBRANCH  31  32
ENDBRANCH  29  31
ENDBRANCH  26  27
ENDBRANCH  24  26
ENDBRANCH   1  24
TORSDOF 8
