REMARK  Name = ZINC01233296
REMARK  5 active torsions:
REMARK  status: ('A' for Active; 'I' for Inactive)
REMARK    1  A    between atoms: C_1  and  O_2
REMARK    2  A    between atoms: O_2  and  C_3
REMARK    3  A    between atoms: C_5  and  C_10
REMARK    4  A    between atoms: C_8  and  O_9
REMARK    5  A    between atoms: N_17  and  C_20
REMARK                            x       y       z     vdW  Elec       q    Type
REMARK                         _______ _______ _______ _____ _____    ______ ____
ROOT
ATOM      1  C   UNL     1       2.490   3.591   1.275  0.00  0.00    +0.026 C 
ATOM      2  C   UNL     1       3.654   3.092   0.722  0.00  0.00    +0.100 C 
ATOM      3  C   UNL     1       3.674   1.810  -0.008  0.00  0.00    +0.257 C 
ATOM      4  O   UNL     1       2.659   1.153  -0.145  0.00  0.00    -0.270 OA
ATOM      5  N   UNL     1       4.846   1.389  -0.525  0.00  0.00    -0.235 N 
ATOM      6  C   UNL     1       5.973   2.099  -0.377  0.00  0.00    +0.320 C 
ATOM      7  O   UNL     1       6.997   1.661  -0.863  0.00  0.00    -0.251 OA
ATOM      8  N   UNL     1       6.031   3.268   0.277  0.00  0.00    -0.190 N 
ATOM      9  C   UNL     1       4.935   3.816   0.841  0.00  0.00    +0.263 C 
ATOM     10  O   UNL     1       5.001   4.877   1.433  0.00  0.00    -0.269 OA
ATOM     11  H   UNL     1       4.876   0.550  -1.012  0.00  0.00    +0.159 HD
ENDROOT
BRANCH   8  12
ATOM     12  C   UNL     1       7.259   3.936   0.376  0.00  0.00    +0.046 A 
ATOM     13  C   UNL     1       7.620   4.875  -0.581  0.00  0.00    +0.025 A 
ATOM     14  C   UNL     1       8.828   5.536  -0.478  0.00  0.00    +0.022 A 
ATOM     15  C   UNL     1       9.684   5.254   0.572  0.00  0.00    +0.041 A 
ATOM     16  C   UNL     1       9.330   4.315   1.524  0.00  0.00    +0.022 A 
ATOM     17  C   UNL     1       8.120   3.655   1.429  0.00  0.00    +0.025 A 
ATOM     18 CL   UNL     1      11.206   6.081   0.695  0.00  0.00    -0.084 Cl
ENDBRANCH   8  12
BRANCH   1  21
ATOM     19  C   UNL     1      -0.922   2.091   1.649  0.00  0.00    +0.162 A 
ATOM     20  C   UNL     1       0.290   2.669   1.966  0.00  0.00    +0.057 A 
ATOM     21  C   UNL     1       1.204   2.977   0.947  0.00  0.00    -0.020 A 
ATOM     22  C   UNL     1       0.878   2.696  -0.389  0.00  0.00    +0.012 A 
ATOM     23  C   UNL     1      -0.333   2.119  -0.694  0.00  0.00    +0.050 A 
ATOM     24  C   UNL     1      -1.239   1.819   0.317  0.00  0.00    +0.158 A 
BRANCH  19  26
ATOM     25  C   UNL     1      -1.423   2.101   3.973  0.00  0.00    +0.277 C 
ATOM     26  O   UNL     1      -1.810   1.790   2.634  0.00  0.00    -0.491 OA
ENDBRANCH  19  26
BRANCH  24  27
ATOM     27  O   UNL     1      -2.434   1.255   0.008  0.00  0.00    -0.503 OA
ATOM     28  H   UNL     1      -2.422   0.288   0.001  0.00  0.00    +0.292 HD
ENDBRANCH  24  27
ENDBRANCH   1  21
TORSDOF 4
