REMARK  Name = ZINC05749961
REMARK  5 active torsions:
REMARK  status: ('A' for Active; 'I' for Inactive)
REMARK    1  A    between atoms: C_3  and  C_8
REMARK    2  A    between atoms: C_5  and  O_7
REMARK    3  A    between atoms: N_12  and  N_16
REMARK    4  A    between atoms: C_17  and  C_19
REMARK    5  A    between atoms: C_22  and  O_25
REMARK                            x       y       z     vdW  Elec       q    Type
REMARK                         _______ _______ _______ _____ _____    ______ ____
ROOT
ATOM      1  C   UNL     1      -0.013   1.076   0.008  0.00  0.00    +0.028 C 
ATOM      2  C   UNL     1       1.215   1.536   0.353  0.00  0.00    +0.079 C 
ATOM      3  C   UNL     1       2.485   0.798   0.524  0.00  0.00    +0.275 C 
ATOM      4  O   UNL     1       2.553  -0.405   0.357  0.00  0.00    -0.267 OA
ATOM      5  N   UNL     1       3.544   1.514   0.865  0.00  0.00    -0.169 N 
ATOM      6  C   UNL     1       3.462   2.846   1.058  0.00  0.00    +0.138 C 
ATOM      7  S   UNL     1       4.706   3.933   1.505  0.00  0.00    -0.026 S 
ATOM      8  S   UNL     1       1.743   3.202   0.733  0.00  0.00    -0.059 S 
ENDROOT
BRANCH   1  11
ATOM      9  C   UNL     1      -3.495   2.405  -0.407  0.00  0.00    +0.004 A 
ATOM     10  C   UNL     1      -2.407   1.559  -0.459  0.00  0.00    +0.008 A 
ATOM     11  C   UNL     1      -1.176   1.973   0.061  0.00  0.00    -0.020 A 
ATOM     12  C   UNL     1      -1.058   3.243   0.636  0.00  0.00    +0.053 A 
ATOM     13  C   UNL     1      -2.156   4.083   0.675  0.00  0.00    +0.117 A 
ATOM     14  C   UNL     1      -3.374   3.662   0.156  0.00  0.00    +0.045 A 
BRANCH  13  15
ATOM     15  O   UNL     1      -2.045   5.320   1.228  0.00  0.00    -0.507 OA
ATOM     16  H   UNL     1      -2.234   5.345   2.176  0.00  0.00    +0.292 HD
ENDBRANCH  13  15
ENDBRANCH   1  11
BRANCH   5  17
ATOM     17  N   UNL     1       4.777   0.872   1.038  0.00  0.00    -0.222 N 
ATOM     18  C   UNL     1       5.257   0.656   2.279  0.00  0.00    +0.261 C 
ATOM     19  O   UNL     1       4.619   1.019   3.248  0.00  0.00    -0.269 OA
ATOM     20  H   UNL     1       5.285   0.582   0.264  0.00  0.00    +0.174 HD
BRANCH  18  21
ATOM     21  C   UNL     1       6.556  -0.021   2.461  0.00  0.00    +0.038 A 
ATOM     22  C   UNL     1       7.287  -0.443   1.347  0.00  0.00    +0.016 A 
ATOM     23  C   UNL     1       8.501  -1.070   1.521  0.00  0.00    +0.046 A 
ATOM     24  C   UNL     1       8.994  -1.291   2.802  0.00  0.00    +0.117 A 
ATOM     25  C   UNL     1       8.267  -0.877   3.912  0.00  0.00    +0.046 A 
ATOM     26  C   UNL     1       7.055  -0.245   3.746  0.00  0.00    +0.016 A 
BRANCH  24  27
ATOM     27  O   UNL     1      10.188  -1.914   2.969  0.00  0.00    -0.507 OA
ATOM     28  H   UNL     1      10.124  -2.876   3.040  0.00  0.00    +0.292 HD
ENDBRANCH  24  27
ENDBRANCH  18  21
ENDBRANCH   5  17
TORSDOF 5
