REMARK  Name = ZINC08023084
REMARK  8 active torsions:
REMARK  status: ('A' for Active; 'I' for Inactive)
REMARK    1  A    between atoms: C_1  and  C_2
REMARK    2  A    between atoms: C_3  and  C_10
REMARK    3  A    between atoms: C_4  and  C_7
REMARK    4  A    between atoms: C_7  and  C_8
REMARK    5  A    between atoms: C_7  and  C_9
REMARK    6  A    between atoms: N_12  and  N_13
REMARK    7  A    between atoms: C_14  and  C_16
REMARK    8  A    between atoms: C_23  and  C_25
REMARK                            x       y       z     vdW  Elec       q    Type
REMARK                         _______ _______ _______ _____ _____    ______ ____
ROOT
ATOM      1  N   UNL     1      -1.188   0.172  -4.564  0.00  0.00    -0.230 N 
ATOM      2  C   UNL     1      -2.361   0.357  -5.202  0.00  0.00    +0.267 C 
ATOM      3  O   UNL     1      -3.410   0.162  -4.616  0.00  0.00    -0.268 OA
ATOM      4  H   UNL     1      -0.352   0.327  -5.030  0.00  0.00    +0.173 HD
ENDROOT
BRANCH   2   5
ATOM      5  C   UNL     1      -2.373   0.792  -6.601  0.00  0.00    +0.076 A 
ATOM      6  C   UNL     1      -3.453   1.042  -7.427  0.00  0.00    +0.024 A 
ATOM      7  C   UNL     1      -3.170   1.447  -8.723  0.00  0.00    -0.036 A 
ATOM      8  C   UNL     1      -1.852   1.558  -9.056  0.00  0.00    -0.006 A 
ATOM      9  S   UNL     1      -0.999   1.145  -7.681  0.00  0.00    -0.088 S 
ATOM     10  C   UNL     1      -1.294   1.973 -10.385  0.00  0.00    +0.043 C 
ATOM     11  C   UNL     1      -2.416   1.892 -11.430  0.00  0.00    +0.009 C 
ATOM     12  C   UNL     1      -3.658   2.593 -10.873  0.00  0.00    -0.009 C 
ATOM     13  C   UNL     1      -4.262   1.759  -9.743  0.00  0.00    +0.039 C 
ATOM     14  C   UNL     1      -4.691   2.760 -11.990  0.00  0.00    +0.008 C 
ENDBRANCH   2   5
BRANCH   1  17
ATOM     15  C   UNL     1      -0.004  -0.429  -2.588  0.00  0.00    +0.265 C 
ATOM     16  O   UNL     1       1.044  -0.234  -3.173  0.00  0.00    -0.268 OA
ATOM     17  N   UNL     1      -1.176  -0.244  -3.226  0.00  0.00    -0.230 N 
ATOM     18  H   UNL     1      -2.012  -0.399  -2.759  0.00  0.00    +0.173 HD
BRANCH  15  21
ATOM     19  C   UNL     1      -0.018   1.503   0.010  0.00  0.00    +0.070 C 
ATOM     20  C   UNL     1       0.002  -0.004   0.002  0.00  0.00    +0.093 A 
ATOM     21  C   UNL     1       0.009  -0.867  -1.180  0.00  0.00    +0.103 A 
ATOM     22  C   UNL     1       0.028  -2.155  -0.729  0.00  0.00    +0.152 A 
ATOM     23  O   UNL     1       0.034  -2.126   0.606  0.00  0.00    -0.358 OA
ATOM     24  N   UNL     1       0.023  -0.782   1.044  0.00  0.00    -0.083 NA
BRANCH  22  25
ATOM     25  C   UNL     1       0.040  -3.394  -1.587  0.00  0.00    +0.052 C 
ATOM     26  C   UNL     1       1.302  -4.207  -1.291  0.00  0.00    +0.015 C 
ATOM     27  C   UNL     1      -1.196  -4.241  -1.278  0.00  0.00    +0.015 C 
ENDBRANCH  22  25
ENDBRANCH  15  21
ENDBRANCH   1  17
TORSDOF 4
