REMARK  Name = ZINC65398229
REMARK  10 active torsions:
REMARK  status: ('A' for Active; 'I' for Inactive)
REMARK    1  A    between atoms: C_1  and  C_2
REMARK    2  A    between atoms: C_4  and  C_8
REMARK    3  A    between atoms: C_8  and  N_9
REMARK    4  A    between atoms: C_10  and  C_12
REMARK    5  A    between atoms: C_15  and  C_27
REMARK    6  A    between atoms: C_18  and  N_20
REMARK    7  A    between atoms: C_21  and  C_23
REMARK    8  A    between atoms: C_23  and  C_24
REMARK    9  A    between atoms: C_23  and  C_25
REMARK   10  A    between atoms: C_23  and  C_26
REMARK                            x       y       z     vdW  Elec       q    Type
REMARK                         _______ _______ _______ _____ _____    ______ ____
ROOT
ATOM      1  C   UNL     1       3.059  -5.495  -2.517  0.00  0.00    +0.106 C 
ATOM      2  C   UNL     1       3.712  -4.217  -3.042  0.00  0.00    +0.029 C 
ATOM      3  C   UNL     1       4.852  -4.565  -4.040  0.00  0.00    +0.046 C 
ATOM      4  S   UNL     1       4.060  -5.974  -4.932  0.00  0.00    -0.135 S 
ATOM      5  C   UNL     1       3.080  -6.653  -3.533  0.00  0.00    +0.143 C 
ATOM      6  C   UNL     1       5.141  -3.397  -4.986  0.00  0.00    +0.019 C 
ENDROOT
BRANCH   1   8
ATOM      7  N   UNL     1       1.067  -5.771  -1.077  0.00  0.00    -0.309 N 
ATOM      8  C   UNL     1       1.627  -5.193  -2.158  0.00  0.00    +0.219 C 
ATOM      9  O   UNL     1       0.978  -4.429  -2.842  0.00  0.00    -0.275 OA
ATOM     10  H   UNL     1       1.586  -6.382  -0.531  0.00  0.00    +0.149 HD
BRANCH   7  11
ATOM     11  C   UNL     1      -0.325  -5.478  -0.728  0.00  0.00    +0.159 C 
BRANCH  11  15
ATOM     12  C   UNL     1      -1.206  -6.724   4.130  0.00  0.00    +0.067 C 
ATOM     13  C   UNL     1      -1.095  -6.806   2.630  0.00  0.00    +0.060 A 
ATOM     14  C   UNL     1      -0.663  -5.781   1.782  0.00  0.00    +0.049 A 
ATOM     15  C   UNL     1      -0.705  -6.246   0.512  0.00  0.00    +0.053 A 
ATOM     16  N   UNL     1      -1.148  -7.519   0.554  0.00  0.00    -0.280 N 
ATOM     17  H   UNL     1      -1.279  -8.104  -0.209  0.00  0.00    +0.189 HD
ATOM     18  N   UNL     1      -1.381  -7.850   1.895  0.00  0.00    -0.179 NA
ENDBRANCH  11  15
ENDBRANCH   7  11
ENDBRANCH   1   8
BRANCH   5  19
ATOM     19  N   UNL     1       1.720  -6.984  -3.968  0.00  0.00    -0.302 N 
ATOM     20  C   UNL     1       1.516  -7.537  -5.180  0.00  0.00    +0.219 C 
ATOM     21  O   UNL     1       2.458  -7.760  -5.911  0.00  0.00    -0.275 OA
ATOM     22  H   UNL     1       0.967  -6.806  -3.383  0.00  0.00    +0.150 HD
BRANCH  20  23
ATOM     23  C   UNL     1       0.118  -7.878  -5.627  0.00  0.00    +0.039 C 
ATOM     24  C   UNL     1       0.165  -8.488  -7.029  0.00  0.00    +0.020 C 
ATOM     25  C   UNL     1      -0.498  -8.885  -4.653  0.00  0.00    +0.020 C 
ATOM     26  C   UNL     1      -0.734  -6.607  -5.651  0.00  0.00    +0.020 C 
ENDBRANCH  20  23
ENDBRANCH   5  19
TORSDOF 5
