REMARK  Name = ZINC05277140
REMARK  4 active torsions:
REMARK  status: ('A' for Active; 'I' for Inactive)
REMARK    1  A    between atoms: C_1  and  C_2
REMARK    2  A    between atoms: N_9  and  C_21
REMARK    3  A    between atoms: N_13  and  N_14
REMARK    4  A    between atoms: N_14  and  C_15
REMARK                            x       y       z     vdW  Elec       q    Type
REMARK                         _______ _______ _______ _____ _____    ______ ____
ROOT
ATOM      1  C   UNL     1      -1.851   6.732   3.201  0.00  0.00    +0.044 C 
ATOM      2  C   UNL     1      -1.515   5.383   2.621  0.00  0.00    -0.049 A 
ATOM      3  C   UNL     1      -1.895   4.233   3.285  0.00  0.00    +0.015 A 
ATOM      4  C   UNL     1      -1.579   2.990   2.748  0.00  0.00    +0.030 A 
ATOM      5  C   UNL     1      -0.887   2.898   1.533  0.00  0.00    +0.060 A 
ATOM      6  C   UNL     1      -0.520   4.067   0.874  0.00  0.00    +0.040 A 
ATOM      7  C   UNL     1      -0.834   5.297   1.419  0.00  0.00    +0.020 A 
ATOM      8 BR   UNL     1       0.410   3.972  -0.769  0.00  0.00    -0.048 Br
ATOM      9  N   UNL     1      -0.698   1.558   1.213  0.00  0.00    -0.268 N 
ATOM     10  C   UNL     1      -1.220   0.752   2.153  0.00  0.00    +0.271 C 
ATOM     11  O   UNL     1      -1.202  -0.466   2.142  0.00  0.00    -0.268 OA
ATOM     12  C   UNL     1      -1.818   1.599   3.198  0.00  0.00    +0.153 C 
ATOM     13  N   UNL     1      -2.431   1.207   4.292  0.00  0.00    -0.177 NA
ATOM     14  C   UNL     1      -0.013   1.086   0.008  0.00  0.00    +0.138 C 
ENDROOT
BRANCH  13  15
ATOM     15  N   UNL     1      -2.560  -0.051   4.544  0.00  0.00    -0.237 N 
ATOM     16  H   UNL     1      -2.205  -0.708   3.925  0.00  0.00    +0.174 HD
BRANCH  15  17
ATOM     17  C   UNL     1      -3.211  -0.468   5.706  0.00  0.00    +0.048 A 
ATOM     18  C   UNL     1      -3.716   0.473   6.596  0.00  0.00    +0.025 A 
ATOM     19  C   UNL     1      -4.363   0.057   7.743  0.00  0.00    +0.002 A 
ATOM     20  C   UNL     1      -4.501  -1.293   8.011  0.00  0.00    +0.000 A 
ATOM     21  C   UNL     1      -3.995  -2.231   7.130  0.00  0.00    +0.002 A 
ATOM     22  C   UNL     1      -3.351  -1.823   5.979  0.00  0.00    +0.025 A 
ENDBRANCH  15  17
ENDBRANCH  13  15
TORSDOF 2
