REMARK  Name = ZINC20005320
REMARK  9 active torsions:
REMARK  status: ('A' for Active; 'I' for Inactive)
REMARK    1  A    between atoms: C_1  and  C_2
REMARK    2  A    between atoms: C_3  and  C_7
REMARK    3  A    between atoms: N_9  and  C_10
REMARK    4  A    between atoms: N_9  and  C_18
REMARK    5  A    between atoms: C_10  and  C_11
REMARK    6  A    between atoms: C_11  and  C_12
REMARK    7  A    between atoms: C_19  and  N_34
REMARK    8  A    between atoms: N_20  and  C_27
REMARK    9  A    between atoms: C_27  and  C_28
REMARK                            x       y       z     vdW  Elec       q    Type
REMARK                         _______ _______ _______ _____ _____    ______ ____
ROOT
ATOM      1  C   UNL     1       0.190  -0.862   4.835  0.00  0.00    +0.140 A 
ATOM      2  C   UNL     1      -0.925  -0.270   5.393  0.00  0.00    +0.128 A 
ATOM      3  N   UNL     1      -0.879   0.148   6.703  0.00  0.00    -0.276 N 
ATOM      4  C   UNL     1       0.243  -0.009   7.429  0.00  0.00    +0.331 A 
ATOM      5  O   UNL     1       0.266   0.372   8.583  0.00  0.00    -0.246 OA
ATOM      6  N   UNL     1       1.341  -0.579   6.900  0.00  0.00    -0.273 N 
ATOM      7  H   UNL     1       2.247  -0.698   7.512  0.00  0.00    +0.173 HD
ATOM      8  C   UNL     1       1.347  -1.010   5.624  0.00  0.00    +0.277 A 
ATOM      9  O   UNL     1       2.347  -1.526   5.154  0.00  0.00    -0.266 OA
ENDROOT
BRANCH   1  12
ATOM     10  C   UNL     1       0.236  -0.412   2.489  0.00  0.00    +0.254 C 
ATOM     11  O   UNL     1       0.160  -0.790   1.335  0.00  0.00    -0.270 OA
ATOM     12  N   UNL     1       0.172  -1.306   3.496  0.00  0.00    -0.260 N 
BRANCH  10  15
ATOM     13  C   UNL     1       0.278   1.925   0.397  0.00  0.00    +0.087 C 
ATOM     14  C   UNL     1       0.420   2.052   1.892  0.00  0.00    +0.114 A 
ATOM     15  C   UNL     1       0.400   1.022   2.786  0.00  0.00    +0.078 A 
ATOM     16  C   UNL     1       0.574   1.642   4.108  0.00  0.00    +0.054 A 
ATOM     17  C   UNL     1       0.681   2.961   3.886  0.00  0.00    +0.196 A 
ATOM     18  O   UNL     1       0.593   3.193   2.567  0.00  0.00    -0.467 OA
ENDBRANCH  10  15
BRANCH  12  19
ATOM     19  C   UNL     1       0.084  -2.738   3.200  0.00  0.00    +0.118 C 
BRANCH  19  20
ATOM     20  C   UNL     1       1.490  -3.300   2.978  0.00  0.00    +0.050 C 
BRANCH  20  21
ATOM     21  C   UNL     1       1.392  -4.740   2.545  0.00  0.00    -0.072 C 
ATOM     22  C   UNL     1       1.412  -4.996   1.276  0.00  0.00    -0.028 C 
ATOM     23  C   UNL     1       1.313  -6.376   0.695  0.00  0.00    +0.027 C 
ATOM     24  C   UNL     1       1.615  -7.423   1.769  0.00  0.00    +0.004 C 
ATOM     25  C   UNL     1       0.773  -7.101   3.010  0.00  0.00    +0.005 C 
ATOM     26  C   UNL     1       1.285  -5.790   3.613  0.00  0.00    +0.030 C 
ENDBRANCH  20  21
ENDBRANCH  19  20
ENDBRANCH  12  19
ENDBRANCH   1  12
BRANCH   2  27
ATOM     27  N   UNL     1      -2.069  -0.104   4.650  0.00  0.00    -0.343 N 
ATOM     28  H   UNL     1      -2.954   0.369   5.101  0.00  0.00    +0.144 HD
ATOM     29  H   UNL     1      -2.100  -0.444   3.604  0.00  0.00    +0.144 HD
ENDBRANCH   2  27
BRANCH   3  30
ATOM     30  C   UNL     1      -2.057   0.773   7.310  0.00  0.00    +0.163 C 
BRANCH  30  31
ATOM     31  C   UNL     1      -2.005   2.263   7.089  0.00  0.00    -0.028 A 
ATOM     32  C   UNL     1      -1.387   3.078   8.018  0.00  0.00    +0.005 A 
ATOM     33  C   UNL     1      -1.335   4.444   7.813  0.00  0.00    +0.000 A 
ATOM     34  C   UNL     1      -1.910   4.996   6.683  0.00  0.00    +0.000 A 
ATOM     35  C   UNL     1      -2.533   4.181   5.757  0.00  0.00    +0.000 A 
ATOM     36  C   UNL     1      -2.580   2.814   5.959  0.00  0.00    +0.005 A 
ENDBRANCH  30  31
ENDBRANCH   3  30
TORSDOF 8
