REMARK  Name = ZINC02360153
REMARK  8 active torsions:
REMARK  status: ('A' for Active; 'I' for Inactive)
REMARK    1  A    between atoms: C_1  and  C_2
REMARK    2  A    between atoms: C_2  and  C_3
REMARK    3  A    between atoms: C_2  and  C_4
REMARK    4  A    between atoms: C_4  and  C_5
REMARK    5  A    between atoms: C_8  and  N_10
REMARK    6  A    between atoms: C_11  and  C_13
REMARK    7  A    between atoms: C_16  and  C_18
REMARK    8  A    between atoms: C_23  and  O_24
REMARK                            x       y       z     vdW  Elec       q    Type
REMARK                         _______ _______ _______ _____ _____    ______ ____
ROOT
ATOM      1  C   UNL     1       8.027   1.933  -1.171  0.00  0.00    +0.135 C 
ATOM      2  N   UNL     1       9.238   1.597  -0.801  0.00  0.00    -0.148 NA
ATOM      3  N   UNL     1      10.130   2.466  -1.071  0.00  0.00    -0.153 NA
ATOM      4  C   UNL     1       9.673   3.540  -1.671  0.00  0.00    +0.080 C 
ATOM      5  C   UNL     1       8.179   3.300  -1.816  0.00  0.00    +0.121 C 
ENDROOT
BRANCH   4   6
ATOM      6  C   UNL     1      10.437   4.712  -2.109  0.00  0.00    +0.041 A 
ATOM      7  C   UNL     1       9.786   5.785  -2.734  0.00  0.00    +0.033 A 
ATOM      8  C   UNL     1      10.511   6.883  -3.143  0.00  0.00    +0.042 A 
ATOM      9  C   UNL     1      11.883   6.932  -2.938  0.00  0.00    +0.023 A 
ATOM     10  C   UNL     1      12.537   5.882  -2.323  0.00  0.00    +0.047 A 
ATOM     11  C   UNL     1      11.825   4.771  -1.899  0.00  0.00    +0.126 A 
ATOM     12 CL   UNL     1       9.705   8.210  -3.917  0.00  0.00    -0.084 Cl
BRANCH  11  13
ATOM     13  O   UNL     1      12.467   3.742  -1.290  0.00  0.00    -0.506 OA
ATOM     14  H   UNL     1      12.787   3.063  -1.899  0.00  0.00    +0.292 HD
ENDBRANCH  11  13
ENDBRANCH   4   6
BRANCH   1  16
ATOM     15  N   UNL     1       5.690   1.663  -1.447  0.00  0.00    -0.180 NA
ATOM     16  C   UNL     1       6.835   1.182  -1.010  0.00  0.00    +0.296 C 
ATOM     17  O   UNL     1       6.875  -0.030  -0.408  0.00  0.00    -0.264 OA
BRANCH  15  21
ATOM     18  C   UNL     1       2.165  -0.079  -1.208  0.00  0.00    +0.104 A 
ATOM     19  N   UNL     1       3.195  -0.725  -0.710  0.00  0.00    -0.144 NA
ATOM     20  N   UNL     1       4.366  -0.250  -0.739  0.00  0.00    -0.121 NA
ATOM     21  C   UNL     1       4.555   0.948  -1.294  0.00  0.00    +0.218 A 
ATOM     22  S   UNL     1       2.880   1.334  -1.785  0.00  0.00    -0.031 S 
BRANCH  18  23
ATOM     23  C   UNL     1       0.718  -0.497  -1.257  0.00  0.00    +0.068 C 
BRANCH  23  25
ATOM     24  C   UNL     1      -0.019   1.526   0.010  0.00  0.00    +0.007 C 
ATOM     25  C   UNL     1       0.002  -0.004   0.002  0.00  0.00    -0.011 C 
ATOM     26  C   UNL     1      -1.433  -0.534   0.013  0.00  0.00    +0.007 C 
ENDBRANCH  23  25
ENDBRANCH  18  23
ENDBRANCH  15  21
ENDBRANCH   1  16
TORSDOF 6
