REMARK  Name = ZINC20241201
REMARK  6 active torsions:
REMARK  status: ('A' for Active; 'I' for Inactive)
REMARK    1  A    between atoms: C_1  and  C_2
REMARK    2  A    between atoms: C_2  and  C_10
REMARK    3  A    between atoms: N_3  and  N_4
REMARK    4  A    between atoms: C_5  and  C_7
REMARK    5  A    between atoms: C_7  and  C_8
REMARK    6  A    between atoms: C_23  and  C_26
REMARK                            x       y       z     vdW  Elec       q    Type
REMARK                         _______ _______ _______ _____ _____    ______ ____
ROOT
ATOM      1  C   UNL     1      -0.000  -0.734  -1.278  0.00  0.00    -0.002 A 
ATOM      2  C   UNL     1      -0.015  -0.032  -2.487  0.00  0.00    +0.011 A 
ATOM      3  C   UNL     1      -0.024  -0.718  -3.680  0.00  0.00    +0.024 A 
ATOM      4  C   UNL     1      -0.015  -2.110  -3.697  0.00  0.00    +0.031 A 
ATOM      5  C   UNL     1       0.013  -2.812  -2.484  0.00  0.00    -0.019 A 
ATOM      6  C   UNL     1       0.019  -2.131  -1.290  0.00  0.00    +0.015 A 
ATOM      7  C   UNL     1       0.062  -4.290  -2.553  0.00  0.00    +0.049 C 
ATOM      8  C   UNL     1      -0.478  -5.144  -1.464  0.00  0.00    -0.023 C 
ATOM      9  C   UNL     1      -0.930  -6.273  -1.995  0.00  0.00    -0.030 C 
ATOM     10  C   UNL     1      -0.753  -6.244  -3.514  0.00  0.00    +0.033 C 
ATOM     11  C   UNL     1      -0.785  -4.737  -3.782  0.00  0.00    +0.029 C 
ATOM     12  C   UNL     1      -0.018  -4.253  -5.000  0.00  0.00    +0.106 C 
ATOM     13  N   UNL     1      -0.046  -2.776  -4.926  0.00  0.00    -0.336 N 
ATOM     14  H   UNL     1      -0.086  -2.259  -5.746  0.00  0.00    +0.147 HD
ENDROOT
BRANCH  12  15
ATOM     15  C   UNL     1       1.402  -4.753  -4.953  0.00  0.00    -0.009 A 
ATOM     16  C   UNL     1       2.399  -3.955  -4.421  0.00  0.00    +0.007 A 
ATOM     17  C   UNL     1       3.702  -4.414  -4.379  0.00  0.00    +0.000 A 
ATOM     18  C   UNL     1       4.010  -5.670  -4.868  0.00  0.00    +0.001 A 
ATOM     19  C   UNL     1       3.015  -6.468  -5.399  0.00  0.00    +0.020 A 
ATOM     20  C   UNL     1       1.709  -6.012  -5.437  0.00  0.00    +0.046 A 
ATOM     21 CL   UNL     1       0.457  -7.016  -6.099  0.00  0.00    -0.083 Cl
ENDBRANCH  12  15
BRANCH   1  23
ATOM     22  C   UNL     1      -0.018   1.503   0.010  0.00  0.00    +0.068 C 
ATOM     23  C   UNL     1       0.002  -0.004   0.002  0.00  0.00    +0.063 C 
ATOM     24  N   UNL     1       0.022  -0.659   1.123  0.00  0.00    -0.185 NA
BRANCH  24  25
ATOM     25  N   UNL     1       0.024   0.035   2.340  0.00  0.00    -0.206 N 
ATOM     26  C   UNL     1       0.044  -0.645   3.503  0.00  0.00    +0.246 C 
ATOM     27  O   UNL     1       0.060  -1.858   3.496  0.00  0.00    -0.273 OA
ATOM     28  H   UNL     1       0.011   1.005   2.345  0.00  0.00    +0.177 HD
BRANCH  26  29
ATOM     29  C   UNL     1       0.046   0.101   4.812  0.00  0.00    +0.215 C 
BRANCH  29  30
ATOM     30  C   UNL     1       0.070  -0.861   5.926  0.00  0.00    +0.072 C 
ATOM     31  N   UNL     1       0.088  -1.604   6.785  0.00  0.00    -0.196 NA
ENDBRANCH  29  30
ENDBRANCH  26  29
ENDBRANCH  24  25
ENDBRANCH   1  23
TORSDOF 5
