REMARK  Name = ZINC46746883
REMARK  8 active torsions:
REMARK  status: ('A' for Active; 'I' for Inactive)
REMARK    1  A    between atoms: C_1  and  C_2
REMARK    2  A    between atoms: C_2  and  C_3
REMARK    3  A    between atoms: C_3  and  S_4
REMARK    4  A    between atoms: S_4  and  N_7
REMARK    5  A    between atoms: C_10  and  N_13
REMARK    6  A    between atoms: N_13  and  S_14
REMARK    7  A    between atoms: S_14  and  C_17
REMARK    8  A    between atoms: C_20  and  C_27
REMARK                            x       y       z     vdW  Elec       q    Type
REMARK                         _______ _______ _______ _____ _____    ______ ____
ROOT
ATOM      1  N   UNL     1      -5.859  -6.012   0.010  0.00  0.00    -0.187 NA
ATOM      2  H   UNL     1      -5.459  -6.820   0.366  0.00  0.00    +0.148 HD
ENDROOT
BRANCH   1   6
ATOM      3  N   UNL     1      -2.674  -3.287   0.109  0.00  0.00    -0.181 NA
ATOM      4  C   UNL     1      -3.732  -3.071   1.105  0.00  0.00    +0.110 C 
ATOM      5  C   UNL     1      -4.544  -4.362   1.248  0.00  0.00    +0.037 C 
ATOM      6  C   UNL     1      -5.054  -4.795  -0.128  0.00  0.00    +0.079 C 
ATOM      7  C   UNL     1      -3.866  -5.072  -1.051  0.00  0.00    +0.037 C 
ATOM      8  C   UNL     1      -3.047  -3.784  -1.223  0.00  0.00    +0.110 C 
BRANCH   3   9
ATOM      9  S   UNL     1      -1.091  -2.969   0.477  0.00  0.00    +0.032 S 
ATOM     10  O   UNL     1      -0.341  -3.811  -0.387  0.00  0.00    -0.158 OA
ATOM     11  O   UNL     1      -1.009  -3.121   1.888  0.00  0.00    -0.158 OA
BRANCH   9  12
ATOM     12  C   UNL     1      -0.846  -1.230   0.021  0.00  0.00    +0.185 C 
BRANCH  12  14
ATOM     13  C   UNL     1       0.803   0.645  -0.063  0.00  0.00    +0.005 C 
ATOM     14  C   UNL     1       0.597  -0.822   0.322  0.00  0.00    +0.021 C 
ENDBRANCH  12  14
ENDBRANCH   9  12
ENDBRANCH   3   9
ENDBRANCH   1   6
BRANCH   1  15
ATOM     15  S   UNL     1      -7.452  -6.006  -0.442  0.00  0.00    +0.059 S 
ATOM     16  O   UNL     1      -7.939  -7.325  -0.231  0.00  0.00    -0.153 OA
ATOM     17  O   UNL     1      -8.044  -4.869   0.171  0.00  0.00    -0.153 OA
BRANCH  15  18
ATOM     18  C   UNL     1      -7.500  -5.724  -2.180  0.00  0.00    +0.114 A 
ATOM     19  C   UNL     1      -8.078  -4.595  -2.675  0.00  0.00    +0.029 A 
ATOM     20  C   UNL     1      -8.123  -4.357  -4.047  0.00  0.00    +0.007 A 
ATOM     21  C   UNL     1      -7.592  -5.245  -4.931  0.00  0.00    -0.024 A 
ATOM     22  C   UNL     1      -6.987  -6.423  -4.459  0.00  0.00    +0.076 A 
ATOM     23  C   UNL     1      -6.937  -6.659  -3.063  0.00  0.00    +0.027 A 
ATOM     24  C   UNL     1      -6.326  -7.837  -2.592  0.00  0.00    +0.013 A 
ATOM     25  C   UNL     1      -5.801  -8.702  -3.509  0.00  0.00    +0.020 A 
ATOM     26  C   UNL     1      -5.878  -8.405  -4.868  0.00  0.00    +0.111 A 
ATOM     27  N   UNL     1      -6.458  -7.313  -5.304  0.00  0.00    -0.255 NA
ATOM     28  C   UNL     1      -7.653  -4.967  -6.411  0.00  0.00    +0.046 C 
ENDBRANCH  15  18
ENDBRANCH   1  15
TORSDOF 6
