REMARK  Name = ZINC39652748
REMARK  11 active torsions:
REMARK  status: ('A' for Active; 'I' for Inactive)
REMARK    1  A    between atoms: C_1  and  C_2
REMARK    2  A    between atoms: C_2  and  O_3
REMARK    3  A    between atoms: O_3  and  C_4
REMARK    4  A    between atoms: C_9  and  C_10
REMARK    5  A    between atoms: C_10  and  C_11
REMARK    6  A    between atoms: C_11  and  N_12
REMARK    7  A    between atoms: C_13  and  C_15
REMARK    8  A    between atoms: C_26  and  C_28
REMARK    9  A    between atoms: C_29  and  C_39
REMARK   10  A    between atoms: C_32  and  C_33
REMARK   11  A    between atoms: C_35  and  C_38
REMARK                            x       y       z     vdW  Elec       q    Type
REMARK                         _______ _______ _______ _____ _____    ______ ____
ROOT
ATOM      1  C   UNL     1       5.772   1.369  -4.949  0.00  0.00    +0.100 C 
ATOM      2  C   UNL     1       6.037   0.608  -6.267  0.00  0.00    +0.121 C 
ATOM      3  N   UNL     1       7.297   1.188  -6.788  0.00  0.00    -0.296 N 
ATOM      4  C   UNL     1       8.137   1.387  -5.583  0.00  0.00    +0.115 C 
ATOM      5  C   UNL     1       7.153   1.879  -4.503  0.00  0.00    -0.004 C 
ATOM      6  C   UNL     1       7.159   3.403  -4.439  0.00  0.00    -0.010 C 
ATOM      7  C   UNL     1       8.524   3.883  -3.939  0.00  0.00    -0.082 C 
ATOM      8  N   UNL     1       8.787   3.316  -2.610  0.00  0.00    +0.379 N 
ATOM      9  C   UNL     1       8.872   1.853  -2.698  0.00  0.00    -0.082 C 
ATOM     10  C   UNL     1       7.522   1.288  -3.146  0.00  0.00    -0.010 C 
ATOM     11  C   UNL     1       7.609   1.471  -8.069  0.00  0.00    +0.252 C 
ATOM     12  O   UNL     1       8.695   1.948  -8.339  0.00  0.00    -0.270 OA
ATOM     13  H   UNL     1       9.659   3.682  -2.257  0.00  0.00    -0.086 HD
ATOM     14  H   UNL     1       8.039   3.571  -1.983  0.00  0.00    -0.086 HD
ENDROOT
BRANCH  11  15
ATOM     15  C   UNL     1       6.636   1.201  -9.140  0.00  0.00    +0.108 A 
ATOM     16  C   UNL     1       5.655   2.099  -9.629  0.00  0.00    +0.093 A 
ATOM     17  N   UNL     1       4.990   1.499 -10.571  0.00  0.00    -0.082 NA
ATOM     18  O   UNL     1       5.507   0.193 -10.736  0.00  0.00    -0.352 OA
ATOM     19  C   UNL     1       6.513   0.024  -9.864  0.00  0.00    +0.201 A 
ATOM     20  C   UNL     1       5.422   3.506  -9.141  0.00  0.00    +0.070 C 
BRANCH  19  21
ATOM     21  C   UNL     1       7.337  -1.194  -9.701  0.00  0.00    +0.152 A 
ATOM     22  C   UNL     1       7.211  -2.393 -10.446  0.00  0.00    +0.079 A 
ATOM     23  C   UNL     1       8.139  -3.259 -10.001  0.00  0.00    +0.135 A 
ATOM     24  O   UNL     1       8.834  -2.663  -9.020  0.00  0.00    -0.359 OA
ATOM     25  N   UNL     1       8.319  -1.356  -8.845  0.00  0.00    -0.075 NA
ATOM     26  C   UNL     1       8.359  -4.658 -10.515  0.00  0.00    +0.089 C 
ENDBRANCH  19  21
ENDBRANCH  11  15
BRANCH   1  28
ATOM     27  N   UNL     1       4.382   0.922  -2.953  0.00  0.00    -0.315 N 
ATOM     28  C   UNL     1       5.196   0.439  -3.913  0.00  0.00    +0.218 C 
ATOM     29  O   UNL     1       5.465  -0.743  -3.942  0.00  0.00    -0.275 OA
ATOM     30  H   UNL     1       4.167   1.867  -2.929  0.00  0.00    +0.149 HD
BRANCH  27  31
ATOM     31  C   UNL     1       3.822   0.018  -1.945  0.00  0.00    +0.109 C 
BRANCH  31  32
ATOM     32  C   UNL     1       2.940   0.813  -0.981  0.00  0.00    +0.057 C 
BRANCH  32  38
ATOM     33  C   UNL     1       3.095  -0.428   1.192  0.00  0.00    +0.124 A 
ATOM     34  C   UNL     1       2.559  -1.281   2.147  0.00  0.00    +0.046 A 
ATOM     35  C   UNL     1       1.302  -1.821   1.962  0.00  0.00    +0.004 A 
ATOM     36  C   UNL     1       0.577  -1.513   0.825  0.00  0.00    +0.000 A 
ATOM     37  C   UNL     1       1.108  -0.665  -0.128  0.00  0.00    +0.007 A 
ATOM     38  C   UNL     1       2.363  -0.117   0.056  0.00  0.00    -0.004 A 
BRANCH  33  39
ATOM     39  O   UNL     1       4.332   0.105   1.373  0.00  0.00    -0.492 OA
BRANCH  39  41
ATOM     40  C   UNL     1       6.392   0.433   2.594  0.00  0.00    +0.048 C 
ATOM     41  C   UNL     1       5.028  -0.260   2.567  0.00  0.00    +0.225 C 
ENDBRANCH  39  41
ENDBRANCH  33  39
ENDBRANCH  32  38
ENDBRANCH  31  32
ENDBRANCH  27  31
ENDBRANCH   1  28
TORSDOF 8
