REMARK  Name = ZINC64416410
REMARK  4 active torsions:
REMARK  status: ('A' for Active; 'I' for Inactive)
REMARK    1  A    between atoms: C_7  and  C_10
REMARK    2  A    between atoms: C_10  and  C_11
REMARK    3  A    between atoms: C_11  and  N_12
REMARK    4  A    between atoms: C_20  and  C_26
REMARK                            x       y       z     vdW  Elec       q    Type
REMARK                         _______ _______ _______ _____ _____    ______ ____
ROOT
ATOM      1  N   UNL     1      -0.458  -4.798  -1.460  0.00  0.00    -0.298 N 
ATOM      2  C   UNL     1      -0.044  -6.232  -1.361  0.00  0.00    +0.147 C 
ATOM      3  C   UNL     1      -1.202  -6.933  -2.001  0.00  0.00    +0.116 C 
ATOM      4  C   UNL     1      -1.256  -6.729  -3.504  0.00  0.00    +0.008 C 
ATOM      5  C   UNL     1      -2.315  -7.407  -3.922  0.00  0.00    +0.004 C 
ATOM      6  C   UNL     1      -2.946  -7.981  -2.647  0.00  0.00    +0.155 C 
ATOM      7  O   UNL     1      -1.741  -8.219  -1.806  0.00  0.00    -0.359 OA
ATOM      8  C   UNL     1      -3.586  -6.698  -1.988  0.00  0.00    +0.123 C 
ATOM      9  C   UNL     1      -2.352  -6.077  -1.333  0.00  0.00    +0.127 C 
ATOM     10  C   UNL     1      -1.827  -4.717  -1.544  0.00  0.00    +0.223 C 
ATOM     11  O   UNL     1      -2.480  -3.716  -1.754  0.00  0.00    -0.275 OA
ENDROOT
BRANCH   8  12
ATOM     12  C   UNL     1      -4.181  -5.792  -3.034  0.00  0.00    +0.225 C 
ATOM     13  O   UNL     1      -3.756  -4.664  -3.172  0.00  0.00    -0.275 OA
ATOM     14  N   UNL     1      -5.186  -6.234  -3.816  0.00  0.00    -0.264 N 
ATOM     15  C   UNL     1      -5.735  -5.397  -4.781  0.00  0.00    +0.164 A 
ATOM     16  N   UNL     1      -5.402  -4.159  -5.075  0.00  0.00    -0.233 NA
ATOM     17  C   UNL     1      -6.026  -3.493  -6.029  0.00  0.00    +0.120 A 
ATOM     18  C   UNL     1      -7.019  -4.141  -6.685  0.00  0.00    +0.068 A 
ATOM     19  S   UNL     1      -6.982  -5.725  -5.862  0.00  0.00    -0.061 S 
ATOM     20  H   UNL     1      -5.526  -7.135  -3.705  0.00  0.00    +0.157 HD
ENDBRANCH   8  12
BRANCH   1  21
ATOM     21  C   UNL     1       0.457  -3.653  -1.462  0.00  0.00    +0.112 C 
BRANCH  21  22
ATOM     22  C   UNL     1       0.691  -3.186  -0.024  0.00  0.00    +0.052 C 
BRANCH  22  29
ATOM     23  C   UNL     1      -0.016   1.348   0.009  0.00  0.00    +0.001 A 
ATOM     24  C   UNL     1       1.166   2.101   0.002  0.00  0.00    +0.002 A 
ATOM     25  C   UNL     1       2.391   1.535  -0.013  0.00  0.00    +0.026 A 
ATOM     26  C   UNL     1       2.529   0.120  -0.022  0.00  0.00    +0.043 A 
ATOM     27  N   UNL     1       3.587  -0.654  -0.037  0.00  0.00    -0.380 N 
ATOM     28  C   UNL     1       3.143  -2.053  -0.041  0.00  0.00    +0.144 C 
ATOM     29  C   UNL     1       1.631  -2.008  -0.025  0.00  0.00    -0.040 C 
ATOM     30  C   UNL     1       1.295  -0.698  -0.014  0.00  0.00    -0.001 A 
ATOM     31  C   UNL     1       0.002  -0.004   0.002  0.00  0.00    +0.010 A 
ATOM     32  H   UNL     1       4.509  -0.353  -0.045  0.00  0.00    +0.160 HD
ENDBRANCH  22  29
ENDBRANCH  21  22
ENDBRANCH   1  21
TORSDOF 4
