REMARK  Name = ZINC35706432
REMARK  9 active torsions:
REMARK  status: ('A' for Active; 'I' for Inactive)
REMARK    1  A    between atoms: C_1  and  C_2
REMARK    2  A    between atoms: C_5  and  N_8
REMARK    3  A    between atoms: C_9  and  C_22
REMARK    4  A    between atoms: C_12  and  S_13
REMARK    5  A    between atoms: S_13  and  C_14
REMARK    6  A    between atoms: C_14  and  C_15
REMARK    7  A    between atoms: C_22  and  C_24
REMARK    8  A    between atoms: C_22  and  N_31
REMARK    9  A    between atoms: C_24  and  C_25
REMARK                            x       y       z     vdW  Elec       q    Type
REMARK                         _______ _______ _______ _____ _____    ______ ____
ROOT
ATOM      1  N   UNL     1       0.058  -4.173  -0.021  0.00  0.00    -0.276 N 
ATOM      2  C   UNL     1      -0.920  -5.016   0.436  0.00  0.00    +0.124 A 
ATOM      3  N   UNL     1      -0.502  -6.235   0.242  0.00  0.00    -0.135 NA
ATOM      4  N   UNL     1       0.663  -6.223  -0.301  0.00  0.00    -0.122 NA
ATOM      5  C   UNL     1       1.054  -4.984  -0.491  0.00  0.00    +0.196 A 
ENDROOT
BRANCH   1  10
ATOM      6  C   UNL     1      -0.018   1.503   0.010  0.00  0.00    +0.044 C 
ATOM      7  C   UNL     1       0.002  -0.004   0.002  0.00  0.00    -0.050 A 
ATOM      8  C   UNL     1       0.006  -0.688  -1.200  0.00  0.00    +0.005 A 
ATOM      9  C   UNL     1       0.024  -2.069  -1.211  0.00  0.00    +0.026 A 
ATOM     10  C   UNL     1       0.040  -2.771  -0.013  0.00  0.00    +0.050 A 
ATOM     11  C   UNL     1       0.036  -2.082   1.192  0.00  0.00    +0.026 A 
ATOM     12  C   UNL     1       0.023  -0.700   1.196  0.00  0.00    +0.005 A 
ENDBRANCH   1  10
BRANCH   5  13
ATOM     13  S   UNL     1       2.576  -4.465  -1.212  0.00  0.00    -0.081 S 
BRANCH  13  14
ATOM     14  C   UNL     1       3.425  -6.017  -1.612  0.00  0.00    +0.112 C 
BRANCH  14  15
ATOM     15  C   UNL     1       4.759  -5.712  -2.243  0.00  0.00    -0.037 A 
ATOM     16  C   UNL     1       4.857  -5.568  -3.615  0.00  0.00    +0.007 A 
ATOM     17  C   UNL     1       6.080  -5.288  -4.195  0.00  0.00    +0.038 A 
ATOM     18  C   UNL     1       7.207  -5.152  -3.402  0.00  0.00    +0.123 A 
ATOM     19  C   UNL     1       7.107  -5.297  -2.028  0.00  0.00    +0.038 A 
ATOM     20  C   UNL     1       5.882  -5.572  -1.450  0.00  0.00    +0.007 A 
ATOM     21  F   UNL     1       8.402  -4.879  -3.968  0.00  0.00    -0.205 F 
ENDBRANCH  14  15
ENDBRANCH  13  14
ENDBRANCH   5  13
BRANCH   2  22
ATOM     22  C   UNL     1      -2.235  -4.610   1.049  0.00  0.00    -0.001 C 
BRANCH  22  23
ATOM     23  N   UNL     1      -2.487  -5.420   2.248  0.00  0.00    +0.385 N 
ATOM     24  H   UNL     1      -2.523  -6.396   1.993  0.00  0.00    -0.089 HD
ATOM     25  H   UNL     1      -1.745  -5.274   2.915  0.00  0.00    -0.089 HD
ATOM     26  H   UNL     1      -3.368  -5.148   2.659  0.00  0.00    -0.089 HD
ENDBRANCH  22  23
BRANCH  22  27
ATOM     27  C   UNL     1      -3.361  -4.832   0.037  0.00  0.00    +0.026 C 
BRANCH  27  28
ATOM     28  C   UNL     1      -4.656  -4.312   0.604  0.00  0.00    -0.049 A 
ATOM     29  C   UNL     1      -5.468  -5.146   1.350  0.00  0.00    +0.003 A 
ATOM     30  C   UNL     1      -6.657  -4.669   1.870  0.00  0.00    +0.000 A 
ATOM     31  C   UNL     1      -7.033  -3.358   1.645  0.00  0.00    +0.000 A 
ATOM     32  C   UNL     1      -6.221  -2.524   0.900  0.00  0.00    +0.000 A 
ATOM     33  C   UNL     1      -5.030  -2.999   0.384  0.00  0.00    +0.003 A 
ENDBRANCH  27  28
ENDBRANCH  22  27
ENDBRANCH   2  22
TORSDOF 8
