REMARK  Name = ZINC63506578
REMARK  6 active torsions:
REMARK  status: ('A' for Active; 'I' for Inactive)
REMARK    1  A    between atoms: C_1  and  C_2
REMARK    2  A    between atoms: C_5  and  C_8
REMARK    3  A    between atoms: C_8  and  N_9
REMARK    4  A    between atoms: C_24  and  C_25
REMARK    5  A    between atoms: C_24  and  C_26
REMARK    6  A    between atoms: N_28  and  C_29
REMARK                            x       y       z     vdW  Elec       q    Type
REMARK                         _______ _______ _______ _____ _____    ______ ____
ROOT
ATOM      1  N   UNL     1       2.302  -4.604  -0.285  0.00  0.00    -0.280 N 
ATOM      2  C   UNL     1       3.256  -4.641  -1.168  0.00  0.00    +0.244 C 
ATOM      3  O   UNL     1       2.998  -4.134  -2.239  0.00  0.00    -0.273 OA
ATOM      4  C   UNL     1       4.630  -5.226  -1.043  0.00  0.00    +0.204 C 
ATOM      5  C   UNL     1       5.263  -4.787   0.261  0.00  0.00    +0.026 C 
ATOM      6  C   UNL     1       6.319  -3.955  -0.079  0.00  0.00    +0.010 A 
ATOM      7  C   UNL     1       7.240  -3.212   0.692  0.00  0.00    +0.011 A 
ATOM      8  C   UNL     1       8.200  -2.477   0.073  0.00  0.00    +0.001 A 
ATOM      9  C   UNL     1       8.302  -2.433  -1.318  0.00  0.00    +0.002 A 
ATOM     10  C   UNL     1       7.449  -3.117  -2.120  0.00  0.00    +0.026 A 
ATOM     11  C   UNL     1       6.419  -3.905  -1.546  0.00  0.00    +0.044 A 
ATOM     12  N   UNL     1       5.472  -4.656  -2.108  0.00  0.00    -0.369 N 
ATOM     13  S   UNL     1       4.795  -5.270   1.766  0.00  0.00    -0.124 S 
ATOM     14  C   UNL     1       3.194  -6.067   1.517  0.00  0.00    +0.109 C 
ATOM     15  C   UNL     1       2.152  -5.059   1.069  0.00  0.00    +0.120 C 
ATOM     16  C   UNL     1       2.180  -3.841   1.994  0.00  0.00    +0.042 C 
ATOM     17  H   UNL     1       5.351  -4.804  -3.059  0.00  0.00    +0.161 HD
ENDROOT
BRANCH  15  18
ATOM     18  C   UNL     1       0.803  -5.718   1.202  0.00  0.00    +0.237 C 
ATOM     19  O   UNL     1       0.142  -5.549   2.204  0.00  0.00    -0.273 OA
ATOM     20  N   UNL     1       0.332  -6.495   0.207  0.00  0.00    -0.311 N 
ATOM     21  H   UNL     1       0.890  -6.691  -0.562  0.00  0.00    +0.149 HD
BRANCH  20  22
ATOM     22  C   UNL     1      -1.025  -7.043   0.285  0.00  0.00    +0.073 C 
ATOM     23  C   UNL     1      -1.007  -8.391   1.036  0.00  0.00    +0.022 C 
ATOM     24  C   UNL     1      -2.058  -9.253   0.292  0.00  0.00    +0.002 C 
ATOM     25  C   UNL     1      -1.847  -8.849  -1.188  0.00  0.00    +0.002 C 
ATOM     26  C   UNL     1      -1.558  -7.334  -1.129  0.00  0.00    +0.022 C 
ENDBRANCH  20  22
ENDBRANCH  15  18
BRANCH   1  27
ATOM     27  C   UNL     1       1.099  -3.936  -0.787  0.00  0.00    +0.144 C 
BRANCH  27  32
ATOM     28  C   UNL     1       1.319   1.684   0.541  0.00  0.00    +0.044 C 
ATOM     29  C   UNL     1       1.262   0.218   0.195  0.00  0.00    -0.050 A 
ATOM     30  C   UNL     1       1.917  -0.253  -0.927  0.00  0.00    +0.003 A 
ATOM     31  C   UNL     1       1.865  -1.597  -1.245  0.00  0.00    +0.005 A 
ATOM     32  C   UNL     1       1.157  -2.470  -0.440  0.00  0.00    -0.030 A 
ATOM     33  C   UNL     1       0.503  -1.999   0.682  0.00  0.00    +0.005 A 
ATOM     34  C   UNL     1       0.559  -0.656   1.002  0.00  0.00    +0.003 A 
ENDBRANCH  27  32
ENDBRANCH   1  27
TORSDOF 4
