REMARK  Name = ZINC39582585
REMARK  8 active torsions:
REMARK  status: ('A' for Active; 'I' for Inactive)
REMARK    1  A    between atoms: C_1  and  C_2
REMARK    2  A    between atoms: C_2  and  C_27
REMARK    3  A    between atoms: N_6  and  C_8
REMARK    4  A    between atoms: C_8  and  C_9
REMARK    5  A    between atoms: N_11  and  C_12
REMARK    6  A    between atoms: C_20  and  C_22
REMARK    7  A    between atoms: C_22  and  O_24
REMARK    8  A    between atoms: O_24  and  C_25
REMARK                            x       y       z     vdW  Elec       q    Type
REMARK                         _______ _______ _______ _____ _____    ______ ____
ROOT
ATOM      1  C   UNL     1       2.796  -6.678   3.321  0.00  0.00    +0.053 C 
ATOM      2  C   UNL     1       2.909  -7.891   3.977  0.00  0.00    +0.019 A 
ATOM      3  C   UNL     1       3.671  -8.305   5.096  0.00  0.00    +0.031 A 
ATOM      4  C   UNL     1       3.584  -9.587   5.532  0.00  0.00    +0.042 A 
ATOM      5  C   UNL     1       2.755 -10.520   4.901  0.00  0.00    +0.022 A 
ATOM      6  C   UNL     1       1.999 -10.195   3.826  0.00  0.00    +0.027 A 
ATOM      7  C   UNL     1       2.035  -8.872   3.311  0.00  0.00    +0.045 A 
ATOM      8  N   UNL     1       1.407  -8.314   2.296  0.00  0.00    -0.367 N 
ATOM      9  C   UNL     1       1.806  -6.907   2.201  0.00  0.00    +0.234 C 
ATOM     10 CL   UNL     1       4.524 -10.080   6.905  0.00  0.00    -0.084 Cl
ATOM     11  H   UNL     1       0.779  -8.762   1.708  0.00  0.00    +0.161 HD
ENDROOT
BRANCH   1  14
ATOM     12  C   UNL     1       3.102  -4.373   2.995  0.00  0.00    +0.200 C 
ATOM     13  O   UNL     1       2.251  -4.386   2.131  0.00  0.00    -0.278 OA
ATOM     14  N   UNL     1       3.440  -5.516   3.625  0.00  0.00    -0.288 N 
ATOM     15  H   UNL     1       4.141  -5.511   4.295  0.00  0.00    +0.155 HD
BRANCH  12  16
ATOM     16  C   UNL     1       3.780  -3.080   3.365  0.00  0.00    +0.019 C 
BRANCH  16  22
ATOM     17  C   UNL     1       4.264   1.646   2.181  0.00  0.00    +0.009 C 
ATOM     18  C   UNL     1       3.483   0.361   1.897  0.00  0.00    -0.050 C 
ATOM     19  C   UNL     1       1.994   0.598   2.165  0.00  0.00    +0.003 C 
ATOM     20  C   UNL     1       1.232  -0.713   1.954  0.00  0.00    -0.018 C 
ATOM     21  C   UNL     1       1.822  -1.792   2.865  0.00  0.00    -0.078 C 
ATOM     22  N   UNL     1       3.240  -1.990   2.542  0.00  0.00    +0.386 N 
ATOM     23  C   UNL     1       3.989  -0.757   2.811  0.00  0.00    -0.072 C 
ATOM     24  C   UNL     1       3.682  -0.044   0.435  0.00  0.00    +0.009 C 
ATOM     25  H   UNL     1       3.330  -2.232   1.566  0.00  0.00    -0.081 HD
ENDBRANCH  16  22
ENDBRANCH  12  16
ENDBRANCH   1  14
BRANCH   9  26
ATOM     26  C   UNL     1       2.459  -6.643   0.869  0.00  0.00    +0.335 C 
ATOM     27  O   UNL     1       3.276  -7.419   0.433  0.00  0.00    -0.248 OA
BRANCH  26  28
ATOM     28  O   UNL     1       2.132  -5.547   0.166  0.00  0.00    -0.466 OA
ATOM     29  C   UNL     1       2.790  -5.361  -1.089  0.00  0.00    +0.280 C 
ENDBRANCH  26  28
ENDBRANCH   9  26
TORSDOF 5
