REMARK  Name = ZINC11882316
REMARK  9 active torsions:
REMARK  status: ('A' for Active; 'I' for Inactive)
REMARK    1  A    between atoms: C_4  and  C_7
REMARK    2  A    between atoms: C_7  and  C_8
REMARK    3  A    between atoms: C_8  and  C_9
REMARK    4  A    between atoms: C_9  and  C_10
REMARK    5  A    between atoms: C_10  and  C_17
REMARK    6  A    between atoms: C_22  and  C_23
REMARK    7  A    between atoms: C_22  and  N_72
REMARK    8  A    between atoms: C_26  and  C_28
REMARK    9  A    between atoms: C_28  and  N_74
REMARK                            x       y       z     vdW  Elec       q    Type
REMARK                         _______ _______ _______ _____ _____    ______ ____
ROOT
ATOM      1  C   UNL     1      11.514  -1.170   3.593  0.00  0.00    +0.018 C 
ATOM      2  C   UNL     1      11.375  -1.921   2.266  0.00  0.00    -0.013 C 
ATOM      3  C   UNL     1      10.603  -1.051   1.272  0.00  0.00    -0.078 C 
ATOM      4  C   UNL     1       9.385   0.025   3.069  0.00  0.00    -0.078 C 
ATOM      5  C   UNL     1      10.120  -0.814   4.117  0.00  0.00    -0.013 C 
ATOM      6  N   UNL     1       9.263  -0.764   1.824  0.00  0.00    +0.383 N 
ATOM      7  H   UNL     1       8.793  -1.651   2.037  0.00  0.00    -0.081 HD
ENDROOT
BRANCH   1   8
ATOM      8  C   UNL     1      12.231  -2.059   4.611  0.00  0.00    +0.115 C 
ATOM      9  C   UNL     1      13.606  -2.448   4.105  0.00  0.00    +0.244 C 
ATOM     10  O   UNL     1      14.527  -1.704   3.844  0.00  0.00    -0.273 OA
ATOM     11  N   UNL     1      13.591  -3.792   4.005  0.00  0.00    -0.238 N 
ATOM     12  C   UNL     1      12.411  -4.301   4.375  0.00  0.00    +0.307 C 
ATOM     13  O   UNL     1      12.156  -5.490   4.371  0.00  0.00    -0.252 OA
ATOM     14  N   UNL     1      11.536  -3.351   4.752  0.00  0.00    -0.285 N 
ATOM     15  H   UNL     1      14.344  -4.324   3.704  0.00  0.00    +0.159 HD
ATOM     16  H   UNL     1      10.626  -3.489   5.057  0.00  0.00    +0.151 HD
BRANCH   8  17
ATOM     17  C   UNL     1      12.336  -1.351   5.963  0.00  0.00    +0.036 C 
BRANCH  17  18
ATOM     18  C   UNL     1      13.056  -2.260   6.961  0.00  0.00    +0.007 C 
BRANCH  18  19
ATOM     19  C   UNL     1      13.161  -1.552   8.313  0.00  0.00    +0.035 C 
BRANCH  19  23
ATOM     20  C   UNL     1      15.171  -4.090  11.099  0.00  0.00    +0.000 A 
ATOM     21  C   UNL     1      15.896  -3.208  10.320  0.00  0.00    +0.000 A 
ATOM     22  C   UNL     1      15.245  -2.386   9.418  0.00  0.00    +0.003 A 
ATOM     23  C   UNL     1      13.870  -2.447   9.296  0.00  0.00    -0.047 A 
ATOM     24  C   UNL     1      13.144  -3.325  10.079  0.00  0.00    +0.003 A 
ATOM     25  C   UNL     1      13.795  -4.150  10.977  0.00  0.00    +0.000 A 
ENDBRANCH  19  23
ENDBRANCH  18  19
ENDBRANCH  17  18
ENDBRANCH   8  17
ENDBRANCH   1   8
BRANCH   6  26
ATOM     26  C   UNL     1       8.457  -0.020   0.834  0.00  0.00    -0.036 C 
BRANCH  26  27
ATOM     27  C   UNL     1       7.037   0.067   1.331  0.00  0.00    -0.027 A 
ATOM     28  C   UNL     1       6.456   1.028   2.090  0.00  0.00    +0.009 A 
ATOM     29  C   UNL     1       5.122   0.899   2.429  0.00  0.00    +0.009 A 
ATOM     30  C   UNL     1       4.435  -0.185   1.993  0.00  0.00    -0.027 A 
ATOM     31  S   UNL     1       5.685  -1.071   1.077  0.00  0.00    -0.102 S 
BRANCH  30  32
ATOM     32  C   UNL     1       2.991  -0.550   2.226  0.00  0.00    -0.036 C 
BRANCH  32  38
ATOM     33  C   UNL     1       0.793  -0.505   1.212  0.00  0.00    -0.078 C 
ATOM     34  C   UNL     1       0.002  -0.004   0.002  0.00  0.00    -0.019 C 
ATOM     35  C   UNL     1      -0.019   1.527   0.010  0.00  0.00    -0.004 C 
ATOM     36  C   UNL     1       1.421   2.049  -0.001  0.00  0.00    -0.019 C 
ATOM     37  C   UNL     1       2.171   1.488   1.210  0.00  0.00    -0.078 C 
ATOM     38  N   UNL     1       2.176   0.012   1.129  0.00  0.00    +0.383 N 
ATOM     39  H   UNL     1       2.584  -0.271   0.231  0.00  0.00    -0.081 HD
ENDBRANCH  32  38
ENDBRANCH  30  32
ENDBRANCH  26  27
ENDBRANCH   6  26
TORSDOF 9
