REMARK  Name = ZINC09109398
REMARK  8 active torsions:
REMARK  status: ('A' for Active; 'I' for Inactive)
REMARK    1  A    between atoms: C_1  and  C_2
REMARK    2  A    between atoms: C_5  and  C_35
REMARK    3  A    between atoms: C_9  and  C_10
REMARK    4  A    between atoms: C_9  and  N_61
REMARK    5  A    between atoms: C_11  and  O_34
REMARK    6  A    between atoms: C_20  and  C_21
REMARK    7  A    between atoms: C_27  and  O_32
REMARK    8  A    between atoms: O_32  and  C_33
REMARK                            x       y       z     vdW  Elec       q    Type
REMARK                         _______ _______ _______ _____ _____    ______ ____
ROOT
ATOM      1  C   UNL     1      -0.742   1.585  -1.213  0.00  0.00    +0.020 A 
ATOM      2  C   UNL     1      -1.752   0.825  -1.778  0.00  0.00    +0.122 A 
ATOM      3  C   UNL     1      -2.435   1.280  -2.903  0.00  0.00    +0.046 A 
ATOM      4  C   UNL     1      -2.108   2.479  -3.471  0.00  0.00    +0.016 A 
ATOM      5  C   UNL     1      -1.088   3.255  -2.916  0.00  0.00    +0.026 A 
ATOM      6  C   UNL     1      -0.399   2.804  -1.778  0.00  0.00    +0.144 A 
ATOM      7  O   UNL     1       0.587   3.557  -1.243  0.00  0.00    -0.422 OA
ATOM      8  C   UNL     1       0.940   4.742  -1.768  0.00  0.00    +0.338 A 
ATOM      9  O   UNL     1       1.838   5.378  -1.244  0.00  0.00    -0.245 OA
ATOM     10  C   UNL     1       0.306   5.268  -2.903  0.00  0.00    +0.101 A 
ATOM     11  C   UNL     1      -0.715   4.552  -3.507  0.00  0.00    +0.006 A 
ENDROOT
BRANCH  11  12
ATOM     12  C   UNL     1      -1.406   5.071  -4.702  0.00  0.00    +0.068 A 
ATOM     13  C   UNL     1      -0.723   5.240  -5.892  0.00  0.00    +0.027 A 
ATOM     14  C   UNL     1      -1.427   5.738  -7.018  0.00  0.00    +0.022 A 
ATOM     15  C   UNL     1      -0.765   5.917  -8.243  0.00  0.00    +0.012 A 
ATOM     16  C   UNL     1      -1.445   6.401  -9.322  0.00  0.00    +0.004 A 
ATOM     17  C   UNL     1      -2.792   6.720  -9.221  0.00  0.00    +0.049 A 
ATOM     18  C   UNL     1      -3.466   6.554  -8.026  0.00  0.00    +0.163 A 
ATOM     19  C   UNL     1      -2.791   6.060  -6.909  0.00  0.00    +0.180 A 
ATOM     20  O   UNL     1      -3.450   5.897  -5.741  0.00  0.00    -0.418 OA
ATOM     21  C   UNL     1      -2.830   5.425  -4.647  0.00  0.00    +0.345 A 
ATOM     22  O   UNL     1      -3.450   5.289  -3.609  0.00  0.00    -0.245 OA
BRANCH  18  23
ATOM     23  O   UNL     1      -4.786   6.871  -7.938  0.00  0.00    -0.491 OA
ATOM     24  C   UNL     1      -5.412   7.371  -9.121  0.00  0.00    +0.277 C 
ENDBRANCH  18  23
ENDBRANCH  11  12
BRANCH   2  25
ATOM     25  O   UNL     1      -2.084  -0.371  -1.228  0.00  0.00    -0.506 OA
ATOM     26  H   UNL     1      -2.772  -0.316  -0.550  0.00  0.00    +0.292 HD
ENDBRANCH   2  25
BRANCH   1  27
ATOM     27  C   UNL     1      -0.013   1.086   0.008  0.00  0.00    -0.036 C 
BRANCH  27  35
ATOM     28  C   UNL     1      -2.926   3.093   2.289  0.00  0.00    +0.005 C 
ATOM     29  C   UNL     1      -1.466   3.491   2.514  0.00  0.00    -0.031 C 
ATOM     30  C   UNL     1      -0.950   2.833   3.797  0.00  0.00    +0.003 C 
ATOM     31  C   UNL     1      -0.998   1.311   3.635  0.00  0.00    -0.031 C 
ATOM     32  C   UNL     1      -0.165   0.905   2.417  0.00  0.00    -0.075 C 
ATOM     33  C   UNL     1      -0.620   3.022   1.329  0.00  0.00    -0.075 C 
ATOM     34  C   UNL     1      -0.427   0.646   4.889  0.00  0.00    +0.005 C 
ATOM     35  N   UNL     1      -0.729   1.552   1.213  0.00  0.00    +0.383 N 
ATOM     36  H   UNL     1      -1.720   1.296   1.131  0.00  0.00    -0.081 HD
ENDBRANCH  27  35
ENDBRANCH   1  27
TORSDOF 5
