REMARK  Name = ZINC08766444
REMARK  4 active torsions:
REMARK  status: ('A' for Active; 'I' for Inactive)
REMARK    1  A    between atoms: C_1  and  C_2
REMARK    2  A    between atoms: C_3  and  C_8
REMARK    3  A    between atoms: N_10  and  N_11
REMARK    4  A    between atoms: C_12  and  C_13
REMARK                            x       y       z     vdW  Elec       q    Type
REMARK                         _______ _______ _______ _____ _____    ______ ____
ROOT
ATOM      1  C   UNL     1       0.435  -0.245  -2.599  0.00  0.00    +0.270 C 
ATOM      2  O   UNL     1       0.588   0.935  -2.857  0.00  0.00    -0.268 OA
ATOM      3  N   UNL     1       0.232  -1.132  -3.594  0.00  0.00    -0.225 N 
ATOM      4  H   UNL     1       0.110  -2.072  -3.389  0.00  0.00    +0.175 HD
ENDROOT
BRANCH   1   7
ATOM      5  C   UNL     1       0.882   1.516  -0.064  0.00  0.00    +0.067 C 
ATOM      6  C   UNL     1       0.665   0.025  -0.044  0.00  0.00    +0.060 A 
ATOM      7  C   UNL     1       0.472  -0.701  -1.210  0.00  0.00    +0.100 A 
ATOM      8  S   UNL     1       0.282  -2.347  -0.545  0.00  0.00    -0.048 S 
ATOM      9  C   UNL     1       0.460  -1.963   1.084  0.00  0.00    +0.156 A 
ATOM     10  N   UNL     1       0.655  -0.656   1.074  0.00  0.00    -0.230 NA
ATOM     11  N   UNL     1       0.417  -2.811   2.170  0.00  0.00    -0.337 N 
ATOM     12  H   UNL     1       0.269  -3.760   2.038  0.00  0.00    +0.144 HD
ATOM     13  H   UNL     1       0.535  -2.458   3.066  0.00  0.00    +0.144 HD
ENDBRANCH   1   7
BRANCH   3  14
ATOM     14  N   UNL     1       0.196  -0.695  -4.925  0.00  0.00    -0.311 N 
ATOM     15  C   UNL     1      -0.006  -1.577  -5.915  0.00  0.00    +0.111 C 
ATOM     16  H   UNL     1       0.318   0.245  -5.130  0.00  0.00    +0.184 HD
BRANCH  15  17
ATOM     17  C   UNL     1      -0.125  -1.131  -7.234  0.00  0.00    +0.041 A 
ATOM     18  C   UNL     1      -0.225  -2.052  -8.301  0.00  0.00    +0.028 A 
ATOM     19  C   UNL     1      -0.340  -1.599  -9.578  0.00  0.00    +0.020 A 
ATOM     20  C   UNL     1      -0.362  -0.237  -9.867  0.00  0.00    +0.034 A 
ATOM     21  C   UNL     1      -0.269   0.702  -8.885  0.00  0.00    +0.066 A 
ATOM     22  C   UNL     1      -0.154   0.304  -7.541  0.00  0.00    +0.201 A 
ATOM     23  O   UNL     1      -0.076   1.136  -6.648  0.00  0.00    -0.286 OA
ATOM     24 BR   UNL     1      -0.304   2.540  -9.328  0.00  0.00    -0.046 Br
ATOM     25 BR   UNL     1      -0.472  -2.847 -10.992  0.00  0.00    -0.050 Br
ENDBRANCH  15  17
ENDBRANCH   3  14
TORSDOF 3
