REMARK  Name = ZINC33267593
REMARK  5 active torsions:
REMARK  status: ('A' for Active; 'I' for Inactive)
REMARK    1  A    between atoms: C_1  and  C_2
REMARK    2  A    between atoms: C_7  and  N_8
REMARK    3  A    between atoms: C_9  and  C_11
REMARK    4  A    between atoms: C_11  and  C_13
REMARK    5  A    between atoms: C_11  and  N_14
REMARK                            x       y       z     vdW  Elec       q    Type
REMARK                         _______ _______ _______ _____ _____    ______ ____
ROOT
ATOM      1  N   UNL     1       0.240  -0.831  -5.995  0.00  0.00    -0.287 N 
ATOM      2  C   UNL     1       1.279  -1.702  -6.056  0.00  0.00    +0.205 A 
ATOM      3  N   UNL     1       1.435  -2.566  -7.013  0.00  0.00    -0.218 NA
ATOM      4  C   UNL     1       0.552  -2.662  -8.038  0.00  0.00    +0.167 A 
ATOM      5  C   UNL     1      -0.563  -1.794  -8.055  0.00  0.00    +0.084 A 
ATOM      6  C   UNL     1      -0.713  -0.831  -6.957  0.00  0.00    +0.264 A 
ATOM      7  O   UNL     1      -1.655  -0.060  -6.915  0.00  0.00    -0.267 OA
ATOM      8  C   UNL     1      -1.479  -1.883  -9.100  0.00  0.00    +0.022 A 
ATOM      9  C   UNL     1      -1.257  -2.828 -10.094  0.00  0.00    -0.025 A 
ATOM     10  C   UNL     1      -0.143  -3.643 -10.025  0.00  0.00    +0.047 A 
ATOM     11  N   UNL     1       0.712  -3.542  -9.017  0.00  0.00    -0.232 NA
ATOM     12  C   UNL     1       0.164  -4.675 -11.082  0.00  0.00    +0.056 C 
ATOM     13  C   UNL     1      -1.083  -4.985 -11.907  0.00  0.00    +0.006 C 
ATOM     14  C   UNL     1      -1.677  -3.663 -12.406  0.00  0.00    +0.005 C 
ATOM     15  C   UNL     1      -2.265  -2.918 -11.209  0.00  0.00    +0.037 C 
ENDROOT
BRANCH   1  16
ATOM     16  C   UNL     1       0.146   0.112  -4.878  0.00  0.00    +0.174 C 
ATOM     17  C   UNL     1       1.386   1.008  -4.861  0.00  0.00    +0.041 C 
BRANCH  16  19
ATOM     18  N   UNL     1      -0.033   0.012  -2.413  0.00  0.00    -0.284 N 
ATOM     19  C   UNL     1       0.061  -0.652  -3.582  0.00  0.00    +0.240 C 
ATOM     20  O   UNL     1       0.078  -1.865  -3.591  0.00  0.00    -0.273 OA
ATOM     21  H   UNL     1      -0.139   1.107  -2.409  0.00  0.00    +0.155 HD
BRANCH  18  28
ATOM     22  C   UNL     1      -1.253   1.195  -0.132  0.00  0.00    +0.045 C 
ATOM     23  C   UNL     1      -0.578  -0.150  -0.066  0.00  0.00    -0.029 A 
ATOM     24  C   UNL     1      -0.544  -0.849   1.125  0.00  0.00    +0.006 A 
ATOM     25  C   UNL     1       0.074  -2.083   1.188  0.00  0.00    +0.020 A 
ATOM     26  C   UNL     1       0.662  -2.623   0.057  0.00  0.00    +0.043 A 
ATOM     27  C   UNL     1       0.632  -1.929  -1.138  0.00  0.00    +0.043 A 
ATOM     28  C   UNL     1       0.005  -0.691  -1.204  0.00  0.00    +0.038 A 
ATOM     29 CL   UNL     1       1.439  -4.174   0.139  0.00  0.00    -0.083 Cl
ENDBRANCH  18  28
ENDBRANCH  16  19
ENDBRANCH   1  16
TORSDOF 3
