REMARK  Name = ZINC36352720
REMARK  1 active torsions:
REMARK  status: ('A' for Active; 'I' for Inactive)
REMARK    1  A    between atoms: C_3  and  C_8
REMARK                            x       y       z     vdW  Elec       q    Type
REMARK                         _______ _______ _______ _____ _____    ______ ____
ROOT
ATOM      1  C   UNL     1       3.672   2.186  -0.021  0.00  0.00    +0.068 C 
ATOM      2  C   UNL     1       4.506   1.813   1.213  0.00  0.00    +0.109 C 
ATOM      3  C   UNL     1       5.945   2.197   1.015  0.00  0.00    +0.219 C 
ATOM      4  O   UNL     1       6.563   2.628   1.966  0.00  0.00    -0.275 OA
ATOM      5  N   UNL     1       6.582   2.086  -0.165  0.00  0.00    -0.270 N 
ATOM      6  C   UNL     1       5.821   1.787  -1.324  0.00  0.00    +0.138 A 
ATOM      7  C   UNL     1       4.458   1.837  -1.236  0.00  0.00    +0.041 A 
ATOM      8  S   UNL     1       3.950   1.400  -2.871  0.00  0.00    -0.055 S 
ATOM      9  C   UNL     1       5.488   1.215  -3.538  0.00  0.00    +0.163 A 
ATOM     10  N   UNL     1       6.292   1.473  -2.525  0.00  0.00    -0.210 NA
ATOM     11  N   UNL     1       5.825   0.872  -4.838  0.00  0.00    -0.305 N 
ATOM     12  C   UNL     1       4.786   0.619  -5.849  0.00  0.00    +0.135 C 
ATOM     13  C   UNL     1       5.112   1.452  -7.095  0.00  0.00    +0.179 C 
ATOM     14  O   UNL     1       6.460   1.196  -7.493  0.00  0.00    -0.377 OA
ATOM     15  C   UNL     1       7.439   1.576  -6.523  0.00  0.00    +0.179 C 
ATOM     16  C   UNL     1       7.233   0.755  -5.249  0.00  0.00    +0.135 C 
ATOM     17  H   UNL     1       7.543   2.208  -0.221  0.00  0.00    +0.156 HD
ENDROOT
BRANCH   1  20
ATOM     18  C   UNL     1      -0.017   1.377   0.010  0.00  0.00    +0.003 A 
ATOM     19  C   UNL     1       1.171   2.086   0.002  0.00  0.00    +0.004 A 
ATOM     20  C   UNL     1       2.378   1.413  -0.013  0.00  0.00    -0.036 A 
ATOM     21  C   UNL     1       2.399   0.030  -0.021  0.00  0.00    +0.042 A 
ATOM     22  C   UNL     1       1.211  -0.679  -0.013  0.00  0.00    +0.124 A 
ATOM     23  C   UNL     1       0.002  -0.004   0.002  0.00  0.00    +0.038 A 
ATOM     24  F   UNL     1       1.230  -2.030  -0.022  0.00  0.00    -0.205 F 
ENDBRANCH   1  20
TORSDOF 1
