REMARK  Name = ZINC64870819
REMARK  8 active torsions:
REMARK  status: ('A' for Active; 'I' for Inactive)
REMARK    1  A    between atoms: C_1  and  C_2
REMARK    2  A    between atoms: C_5  and  C_9
REMARK    3  A    between atoms: C_7  and  C_8
REMARK    4  A    between atoms: C_12  and  C_16
REMARK    5  A    between atoms: N_26  and  C_29
REMARK    6  A    between atoms: C_29  and  C_30
REMARK    7  A    between atoms: C_30  and  C_31
REMARK    8  A    between atoms: C_31  and  C_32
REMARK                            x       y       z     vdW  Elec       q    Type
REMARK                         _______ _______ _______ _____ _____    ______ ____
ROOT
ATOM      1  C   UNL     1       1.156  -7.177  -1.515  0.00  0.00    -0.000 A 
ATOM      2  C   UNL     1      -0.138  -7.277  -2.003  0.00  0.00    +0.008 A 
ATOM      3  C   UNL     1      -0.532  -8.391  -2.713  0.00  0.00    +0.016 A 
ATOM      4  C   UNL     1       0.380  -9.419  -2.939  0.00  0.00    +0.063 A 
ATOM      5  C   UNL     1       1.692  -9.317  -2.443  0.00  0.00    +0.056 A 
ATOM      6  C   UNL     1       2.072  -8.186  -1.736  0.00  0.00    +0.034 A 
ATOM      7  N   UNL     1       2.579 -10.356  -2.684  0.00  0.00    -0.307 N 
ATOM      8  H   UNL     1       3.487 -10.300  -2.348  0.00  0.00    +0.170 HD
ATOM      9  C   UNL     1       2.192 -11.441  -3.377  0.00  0.00    +0.330 A 
ATOM     10  O   UNL     1       3.000 -12.329  -3.565  0.00  0.00    -0.246 OA
ATOM     11  N   UNL     1       0.952 -11.584  -3.870  0.00  0.00    -0.261 N 
ATOM     12  C   UNL     1       0.012 -10.631  -3.692  0.00  0.00    +0.264 A 
ATOM     13  O   UNL     1      -1.109 -10.769  -4.142  0.00  0.00    -0.267 OA
ENDROOT
BRANCH   1  16
ATOM     14  C   UNL     1       0.059  -4.275  -0.021  0.00  0.00    +0.180 C 
ATOM     15  N   UNL     1       0.797  -4.781  -1.203  0.00  0.00    -0.265 NA
ATOM     16  C   UNL     1       1.569  -5.952  -0.740  0.00  0.00    +0.242 C 
ATOM     17  O   UNL     1       1.275  -6.130   0.658  0.00  0.00    -0.274 OA
ATOM     18  N   UNL     1       0.842  -4.795   1.132  0.00  0.00    -0.177 NA
ATOM     19  H   UNL     1       0.162  -5.036  -1.944  0.00  0.00    +0.127 HD
ATOM     20  H   UNL     1       0.264  -4.871   1.956  0.00  0.00    +0.156 HD
BRANCH  14  25
ATOM     21  C   UNL     1      -0.018   1.503   0.010  0.00  0.00    +0.044 C 
ATOM     22  C   UNL     1       0.002  -0.004   0.002  0.00  0.00    -0.048 A 
ATOM     23  C   UNL     1       0.006  -0.689  -1.199  0.00  0.00    +0.004 A 
ATOM     24  C   UNL     1       0.025  -2.071  -1.207  0.00  0.00    +0.007 A 
ATOM     25  C   UNL     1       0.040  -2.768  -0.013  0.00  0.00    -0.014 A 
ATOM     26  C   UNL     1       0.037  -2.084   1.188  0.00  0.00    +0.010 A 
ATOM     27  C   UNL     1       0.023  -0.702   1.195  0.00  0.00    -0.047 A 
ATOM     28  C   UNL     1       0.025   0.045   2.504  0.00  0.00    +0.044 C 
ENDBRANCH  14  25
ENDBRANCH   1  16
BRANCH  11  29
ATOM     29  C   UNL     1       0.611 -12.799  -4.615  0.00  0.00    +0.130 C 
BRANCH  29  30
ATOM     30  C   UNL     1       0.079 -13.858  -3.648  0.00  0.00    +0.026 C 
BRANCH  30  31
ATOM     31  C   UNL     1      -0.277 -15.127  -4.426  0.00  0.00    +0.037 C 
BRANCH  31  32
ATOM     32  C   UNL     1      -0.801 -16.170  -3.473  0.00  0.00    -0.047 A 
ATOM     33  C   UNL     1       0.072 -17.056  -2.870  0.00  0.00    +0.003 A 
ATOM     34  C   UNL     1      -0.409 -18.013  -1.996  0.00  0.00    +0.000 A 
ATOM     35  C   UNL     1      -1.762 -18.084  -1.725  0.00  0.00    +0.000 A 
ATOM     36  C   UNL     1      -2.635 -17.197  -2.328  0.00  0.00    +0.000 A 
ATOM     37  C   UNL     1      -2.154 -16.237  -3.198  0.00  0.00    +0.003 A 
ENDBRANCH  31  32
ENDBRANCH  30  31
ENDBRANCH  29  30
ENDBRANCH  11  29
TORSDOF 6
