REMARK  Name = ZINC66986038
REMARK  7 active torsions:
REMARK  status: ('A' for Active; 'I' for Inactive)
REMARK    1  A    between atoms: C_1  and  C_2
REMARK    2  A    between atoms: N_7  and  C_9
REMARK    3  A    between atoms: C_9  and  C_10
REMARK    4  A    between atoms: C_9  and  C_11
REMARK    5  A    between atoms: C_9  and  C_12
REMARK    6  A    between atoms: C_12  and  N_13
REMARK    7  A    between atoms: C_22  and  C_24
REMARK                            x       y       z     vdW  Elec       q    Type
REMARK                         _______ _______ _______ _____ _____    ______ ____
ROOT
ATOM      1  N   UNL     1       3.010  -4.737   1.358  0.00  0.00    -0.301 N 
ATOM      2  C   UNL     1       2.995  -6.048   1.045  0.00  0.00    +0.302 C 
ATOM      3  O   UNL     1       2.699  -6.871   1.890  0.00  0.00    -0.253 OA
ATOM      4  N   UNL     1       3.308  -6.446  -0.204  0.00  0.00    -0.283 N 
ATOM      5  C   UNL     1       3.184  -7.858  -0.591  0.00  0.00    +0.128 C 
ATOM      6  C   UNL     1       2.280  -7.950  -1.827  0.00  0.00    +0.127 C 
ATOM      7  N   UNL     1       2.750  -6.980  -2.826  0.00  0.00    -0.298 N 
ATOM      8  C   UNL     1       2.874  -5.567  -2.438  0.00  0.00    +0.127 C 
ATOM      9  C   UNL     1       3.773  -5.475  -1.204  0.00  0.00    +0.128 C 
ATOM     10  C   UNL     1       3.063  -7.378  -4.075  0.00  0.00    +0.219 C 
ATOM     11  O   UNL     1       2.860  -8.525  -4.414  0.00  0.00    -0.275 OA
ATOM     12  H   UNL     1       3.316  -4.086   0.707  0.00  0.00    +0.150 HD
ENDROOT
BRANCH  10  13
ATOM     13  C   UNL     1       3.664  -6.399  -5.050  0.00  0.00    +0.075 C 
ATOM     14  C   UNL     1       2.582  -5.432  -5.534  0.00  0.00    +0.013 C 
ATOM     15  C   UNL     1       3.193  -4.438  -6.524  0.00  0.00    +0.001 C 
ATOM     16  C   UNL     1       3.770  -5.198  -7.720  0.00  0.00    +0.000 C 
ATOM     17  C   UNL     1       4.852  -6.165  -7.235  0.00  0.00    +0.001 C 
ATOM     18  C   UNL     1       4.242  -7.159  -6.245  0.00  0.00    +0.013 C 
ENDBRANCH  10  13
BRANCH   1  19
ATOM     19  C   UNL     1       2.565  -4.294   2.682  0.00  0.00    +0.093 C 
BRANCH  19  20
ATOM     20  C   UNL     1       2.681  -2.772   2.777  0.00  0.00    -0.055 C 
ATOM     21  C   UNL     1       4.139  -2.358   2.564  0.00  0.00    -0.008 C 
ATOM     22  C   UNL     1       2.216  -2.310   4.159  0.00  0.00    -0.008 C 
BRANCH  20  28
ATOM     23  C   UNL     1       1.275   1.481   0.801  0.00  0.00    +0.005 C 
ATOM     24  C   UNL     1       1.150  -0.041   0.707  0.00  0.00    -0.031 C 
ATOM     25  C   UNL     1      -0.321  -0.443   0.847  0.00  0.00    -0.001 C 
ATOM     26  C   UNL     1      -0.426  -1.971   0.830  0.00  0.00    -0.018 C 
ATOM     27  C   UNL     1       0.443  -2.549   1.950  0.00  0.00    -0.078 C 
ATOM     28  N   UNL     1       1.841  -2.151   1.744  0.00  0.00    +0.384 N 
ATOM     29  C   UNL     1       1.961  -0.691   1.830  0.00  0.00    -0.075 C 
ATOM     30  H   UNL     1       2.147  -2.459   0.834  0.00  0.00    -0.081 HD
ENDBRANCH  20  28
ENDBRANCH  19  20
ENDBRANCH   1  19
TORSDOF 4
