REMARK  Name = ZINC18158376
REMARK  5 active torsions:
REMARK  status: ('A' for Active; 'I' for Inactive)
REMARK    1  A    between atoms: C_1  and  C_2
REMARK    2  A    between atoms: C_3  and  C_14
REMARK    3  A    between atoms: C_4  and  O_13
REMARK    4  A    between atoms: N_5  and  C_7
REMARK    5  A    between atoms: N_15  and  C_16
REMARK                            x       y       z     vdW  Elec       q    Type
REMARK                         _______ _______ _______ _____ _____    ______ ____
ROOT
ATOM      1  C   UNL     1      -0.157   1.489   0.018  0.00  0.00    +0.068 C 
ATOM      2  C   UNL     1       0.136   0.011  -0.006  0.00  0.00    +0.073 A 
ATOM      3  C   UNL     1       0.173  -0.810  -1.159  0.00  0.00    +0.077 A 
ATOM      4  C   UNL     1       0.478  -2.099  -0.731  0.00  0.00    +0.225 A 
ATOM      5  N   UNL     1       0.616  -2.050   0.612  0.00  0.00    -0.200 N 
ATOM      6  N   UNL     1       0.404  -0.732   1.032  0.00  0.00    -0.168 NA
ENDROOT
BRANCH   5   7
ATOM      7  C   UNL     1       0.924  -3.135   1.443  0.00  0.00    +0.069 A 
ATOM      8  C   UNL     1       0.441  -4.402   1.142  0.00  0.00    +0.028 A 
ATOM      9  C   UNL     1       0.746  -5.469   1.964  0.00  0.00    +0.002 A 
ATOM     10  C   UNL     1       1.531  -5.277   3.086  0.00  0.00    +0.000 A 
ATOM     11  C   UNL     1       2.013  -4.017   3.389  0.00  0.00    +0.002 A 
ATOM     12  C   UNL     1       1.716  -2.947   2.568  0.00  0.00    +0.028 A 
ENDBRANCH   5   7
BRANCH   4  13
ATOM     13  O   UNL     1       0.611  -3.196  -1.514  0.00  0.00    -0.492 OA
ATOM     14  H   UNL     1       1.511  -3.343  -1.836  0.00  0.00    +0.294 HD
ENDBRANCH   4  13
BRANCH   3  15
ATOM     15  C   UNL     1      -0.064  -0.384  -2.541  0.00  0.00    +0.126 C 
ATOM     16  N   UNL     1       0.003  -1.254  -3.514  0.00  0.00    -0.253 NA
BRANCH  16  17
ATOM     17  C   UNL     1      -0.112  -0.839  -4.809  0.00  0.00    +0.090 A 
ATOM     18  C   UNL     1       0.624   0.244  -5.266  0.00  0.00    +0.030 A 
ATOM     19  C   UNL     1       0.513   0.674  -6.582  0.00  0.00    +0.003 A 
ATOM     20  C   UNL     1      -0.320   0.045  -7.459  0.00  0.00    +0.010 A 
ATOM     21  C   UNL     1      -1.084  -1.056  -7.039  0.00  0.00    +0.002 A 
ATOM     22  C   UNL     1      -0.982  -1.515  -5.704  0.00  0.00    +0.096 A 
ATOM     23  N   UNL     1      -1.702  -2.563  -5.303  0.00  0.00    -0.253 NA
ATOM     24  C   UNL     1      -2.508  -3.192  -6.125  0.00  0.00    +0.111 A 
ATOM     25  C   UNL     1      -2.651  -2.798  -7.453  0.00  0.00    +0.020 A 
ATOM     26  C   UNL     1      -1.953  -1.723  -7.924  0.00  0.00    +0.011 A 
ENDBRANCH  16  17
ENDBRANCH   3  15
TORSDOF 4
