REMARK  Name = ZINC00919515
REMARK  7 active torsions:
REMARK  status: ('A' for Active; 'I' for Inactive)
REMARK    1  A    between atoms: C_6  and  C_7
REMARK    2  A    between atoms: C_7  and  N_8
REMARK    3  A    between atoms: N_8  and  C_9
REMARK    4  A    between atoms: N_8  and  S_26
REMARK    5  A    between atoms: C_9  and  C_10
REMARK    6  A    between atoms: S_26  and  C_29
REMARK    7  A    between atoms: C_31  and  C_36
REMARK                            x       y       z     vdW  Elec       q    Type
REMARK                         _______ _______ _______ _____ _____    ______ ____
ROOT
ATOM      1  N   UNL     1       0.348   4.266  -1.377  0.00  0.00    -0.168 NA
ENDROOT
BRANCH   1   2
ATOM      2  S   UNL     1       1.156   3.891   0.019  0.00  0.00    +0.063 S 
ATOM      3  O   UNL     1       2.474   3.522  -0.360  0.00  0.00    -0.153 OA
ATOM      4  O   UNL     1       0.306   3.026   0.760  0.00  0.00    -0.153 OA
BRANCH   2   5
ATOM      5  C   UNL     1       1.299   5.378   0.954  0.00  0.00    +0.124 A 
ATOM      6  C   UNL     1       0.636   5.503   2.160  0.00  0.00    +0.042 A 
ATOM      7  C   UNL     1       0.748   6.670   2.893  0.00  0.00    +0.057 A 
ATOM      8  C   UNL     1       1.523   7.713   2.420  0.00  0.00    +0.014 A 
ATOM      9  C   UNL     1       2.186   7.589   1.213  0.00  0.00    +0.022 A 
ATOM     10  C   UNL     1       2.075   6.421   0.479  0.00  0.00    +0.067 A 
ATOM     11 CL   UNL     1       2.901   6.268  -1.039  0.00  0.00    -0.082 Cl
BRANCH   7  12
ATOM     12  C   UNL     1       0.025   6.806   4.208  0.00  0.00    +0.417 C 
ATOM     13  F   UNL     1       0.289   8.065   4.758  0.00  0.00    -0.166 F 
ATOM     14  F   UNL     1      -1.352   6.668   3.999  0.00  0.00    -0.166 F 
ATOM     15  F   UNL     1       0.465   5.811   5.087  0.00  0.00    -0.166 F 
ENDBRANCH   7  12
ENDBRANCH   2   5
ENDBRANCH   1   2
BRANCH   1  16
ATOM     16  C   UNL     1      -1.100   4.484  -1.350  0.00  0.00    +0.145 C 
BRANCH  16  22
ATOM     17  C   UNL     1      -1.505   6.598  -0.073  0.00  0.00    +0.008 A 
ATOM     18  C   UNL     1      -1.762   7.955  -0.022  0.00  0.00    +0.038 A 
ATOM     19  C   UNL     1      -1.909   8.676  -1.195  0.00  0.00    +0.123 A 
ATOM     20  C   UNL     1      -1.794   8.037  -2.418  0.00  0.00    +0.038 A 
ATOM     21  C   UNL     1      -1.532   6.681  -2.467  0.00  0.00    +0.008 A 
ATOM     22  C   UNL     1      -1.385   5.962  -1.295  0.00  0.00    -0.031 A 
ATOM     23  F   UNL     1      -2.164  10.002  -1.146  0.00  0.00    -0.205 F 
ENDBRANCH  16  22
ENDBRANCH   1  16
BRANCH   1  24
ATOM     24  C   UNL     1       1.083   4.380  -2.639  0.00  0.00    +0.150 C 
BRANCH  24  25
ATOM     25  C   UNL     1       1.017   3.069  -3.379  0.00  0.00    +0.033 A 
ATOM     26  C   UNL     1       0.060   2.871  -4.321  0.00  0.00    +0.020 A 
ATOM     27  C   UNL     1       0.026   1.589  -5.025  0.00  0.00    +0.003 A 
ATOM     28  C   UNL     1      -0.935   1.330  -6.009  0.00  0.00    +0.059 A 
ATOM     29  C   UNL     1      -0.946   0.111  -6.652  0.00  0.00    +0.163 A 
ATOM     30  C   UNL     1       0.000  -0.866  -6.326  0.00  0.00    +0.164 A 
ATOM     31  C   UNL     1       0.954  -0.618  -5.354  0.00  0.00    +0.075 A 
ATOM     32  C   UNL     1       0.978   0.604  -4.696  0.00  0.00    +0.053 A 
ATOM     33  N   UNL     1       1.921   0.867  -3.723  0.00  0.00    -0.322 N 
ATOM     34  H   UNL     1       2.596   0.167  -3.489  0.00  0.00    +0.169 HD
ATOM     35  C   UNL     1       1.946   2.050  -3.086  0.00  0.00    +0.254 A 
ATOM     36  O   UNL     1       2.794   2.248  -2.232  0.00  0.00    -0.268 OA
ATOM     37  O   UNL     1      -0.001  -2.070  -6.959  0.00  0.00    -0.485 OA
ATOM     38  C   UNL     1      -1.196  -2.428  -7.661  0.00  0.00    +0.270 C 
ATOM     39  C   UNL     1      -1.643  -1.220  -8.496  0.00  0.00    +0.270 C 
ATOM     40  O   UNL     1      -1.889  -0.127  -7.606  0.00  0.00    -0.485 OA
ENDBRANCH  24  25
ENDBRANCH   1  24
TORSDOF 7
