REMARK  Name = ZINC20572921
REMARK  5 active torsions:
REMARK  status: ('A' for Active; 'I' for Inactive)
REMARK    1  A    between atoms: C_6  and  O_7
REMARK    2  A    between atoms: O_7  and  C_8
REMARK    3  A    between atoms: C_8  and  C_9
REMARK    4  A    between atoms: N_11  and  C_12
REMARK    5  A    between atoms: C_12  and  C_13
REMARK                            x       y       z     vdW  Elec       q    Type
REMARK                         _______ _______ _______ _____ _____    ______ ____
ROOT
ATOM      1  C   UNL     1      -3.857  -6.144   0.007  0.00  0.00    +0.233 C 
ATOM      2  O   UNL     1      -2.768  -6.679  -0.006  0.00  0.00    -0.274 OA
ATOM      3  N   UNL     1      -4.976  -6.894   0.015  0.00  0.00    -0.300 N 
ATOM      4  C   UNL     1      -6.302  -6.261   0.025  0.00  0.00    +0.110 C 
ATOM      5  C   UNL     1      -7.125  -6.820  -1.140  0.00  0.00    +0.047 C 
ATOM      6  C   UNL     1      -7.155  -8.347  -1.052  0.00  0.00    +0.064 C 
ATOM      7  C   UNL     1      -5.732  -8.899  -1.153  0.00  0.00    +0.047 C 
ATOM      8  C   UNL     1      -4.895  -8.361   0.006  0.00  0.00    +0.110 C 
ATOM      9  C   UNL     1      -7.994  -8.902  -2.174  0.00  0.00    +0.057 A 
ATOM     10  C   UNL     1      -8.900  -9.892  -2.001  0.00  0.00    +0.039 A 
ATOM     11  N   UNL     1      -9.466 -10.133  -3.212  0.00  0.00    -0.349 N 
ATOM     12  H   UNL     1     -10.154 -10.789  -3.408  0.00  0.00    +0.166 HD
ATOM     13  C   UNL     1      -8.889  -9.284  -4.095  0.00  0.00    +0.171 A 
ATOM     14  N   UNL     1      -8.009  -8.552  -3.461  0.00  0.00    -0.348 N 
ATOM     15  C   UNL     1      -9.166 -10.553  -0.673  0.00  0.00    +0.070 C 
ATOM     16  C   UNL     1      -8.004 -10.204   0.267  0.00  0.00    +0.088 C 
ATOM     17  N   UNL     1      -7.754  -8.756   0.227  0.00  0.00    -0.305 NA
ATOM     18  H   UNL     1      -7.180  -8.466   1.005  0.00  0.00    +0.123 HD
ATOM     19  H   UNL     1      -7.455  -7.865  -3.863  0.00  0.00    +0.166 HD
ENDROOT
BRANCH   1  20
ATOM     20  C   UNL     1      -3.957  -4.640   0.017  0.00  0.00    +0.200 C 
BRANCH  20  23
ATOM     21  C   UNL     1      -2.454  -2.722   0.012  0.00  0.00    +0.251 C 
ATOM     22  O   UNL     1      -3.426  -1.997   0.025  0.00  0.00    -0.272 OA
ATOM     23  N   UNL     1      -2.611  -4.061   0.006  0.00  0.00    -0.304 N 
ATOM     24  H   UNL     1      -1.834  -4.641  -0.005  0.00  0.00    +0.149 HD
BRANCH  21  25
ATOM     25  C   UNL     1      -1.070  -2.126   0.001  0.00  0.00    +0.324 C 
BRANCH  25  26
ATOM     26  O   UNL     1      -1.165  -0.701   0.010  0.00  0.00    -0.483 OA
BRANCH  26  32
ATOM     27  C   UNL     1      -0.017   1.383   0.010  0.00  0.00    +0.047 A 
ATOM     28  C   UNL     1       1.171   2.089   0.002  0.00  0.00    +0.023 A 
ATOM     29  C   UNL     1       2.378   1.414  -0.013  0.00  0.00    +0.041 A 
ATOM     30  C   UNL     1       2.399   0.030  -0.021  0.00  0.00    +0.023 A 
ATOM     31  C   UNL     1       1.214  -0.679  -0.014  0.00  0.00    +0.047 A 
ATOM     32  C   UNL     1       0.002  -0.004   0.002  0.00  0.00    +0.121 A 
ATOM     33 CL   UNL     1       3.869   2.303  -0.024  0.00  0.00    -0.084 Cl
ENDBRANCH  26  32
ENDBRANCH  25  26
ENDBRANCH  21  25
ENDBRANCH  20  23
ENDBRANCH   1  20
TORSDOF 5
