REMARK  Name = ZINC35422943
REMARK  6 active torsions:
REMARK  status: ('A' for Active; 'I' for Inactive)
REMARK    1  A    between atoms: C_1  and  C_2
REMARK    2  A    between atoms: C_5  and  C_7
REMARK    3  A    between atoms: C_18  and  O_33
REMARK    4  A    between atoms: C_22  and  C_32
REMARK    5  A    between atoms: C_27  and  C_31
REMARK    6  A    between atoms: C_28  and  O_30
REMARK                            x       y       z     vdW  Elec       q    Type
REMARK                         _______ _______ _______ _____ _____    ______ ____
ROOT
ATOM      1  C   UNL     1       1.632  -3.276  -0.055  0.00  0.00    +0.048 C 
ATOM      2  C   UNL     1       2.950  -3.096  -0.048  0.00  0.00    -0.037 C 
ATOM      3  C   UNL     1       3.679  -1.763   0.002  0.00  0.00    +0.038 C 
ATOM      4  C   UNL     1       5.067  -2.068  -0.636  0.00  0.00    +0.005 C 
ATOM      5  C   UNL     1       4.844  -2.107  -2.151  0.00  0.00    +0.001 C 
ATOM      6  C   UNL     1       4.799  -0.657  -2.654  0.00  0.00    +0.031 C 
ATOM      7  C   UNL     1       4.755  -0.632  -4.152  0.00  0.00    -0.027 C 
ATOM      8  C   UNL     1       5.137  -1.618  -4.898  0.00  0.00    -0.065 C 
ATOM      9  C   UNL     1       4.995  -1.518  -6.408  0.00  0.00    +0.062 C 
ATOM     10  C   UNL     1       4.756  -2.942  -6.930  0.00  0.00    +0.119 C 
ATOM     11  C   UNL     1       3.914  -3.720  -5.921  0.00  0.00    +0.032 C 
ATOM     12  C   UNL     1       4.720  -4.042  -4.663  0.00  0.00    +0.014 C 
ATOM     13  C   UNL     1       5.696  -2.907  -4.361  0.00  0.00    -0.008 C 
ATOM     14  C   UNL     1       5.981  -2.841  -2.864  0.00  0.00    +0.003 C 
ATOM     15  C   UNL     1       6.067  -4.274  -2.321  0.00  0.00    +0.005 C 
ATOM     16  C   UNL     1       6.406  -4.219  -0.833  0.00  0.00    +0.010 C 
ATOM     17  C   UNL     1       5.361  -3.462  -0.058  0.00  0.00    +0.001 C 
ATOM     18  C   UNL     1       4.008  -4.185  -0.080  0.00  0.00    +0.147 C 
ATOM     19  C   UNL     1       5.794  -3.314   1.402  0.00  0.00    +0.014 C 
ATOM     20  C   UNL     1       7.013  -3.199  -5.082  0.00  0.00    +0.016 C 
ENDROOT
BRANCH   1  25
ATOM     21  C   UNL     1       0.019   1.469   0.093  0.00  0.00    +0.086 C 
ATOM     22  C   UNL     1       0.018  -0.038   0.045  0.00  0.00    +0.103 A 
ATOM     23  C   UNL     1      -1.078  -0.822   0.018  0.00  0.00    +0.045 A 
ATOM     24  C   UNL     1      -0.630  -2.156  -0.024  0.00  0.00    +0.049 A 
ATOM     25  C   UNL     1       0.731  -2.114  -0.020  0.00  0.00    +0.128 A 
ATOM     26  O   UNL     1       1.109  -0.821   0.016  0.00  0.00    -0.461 OA
ENDBRANCH   1  25
BRANCH  18  27
ATOM     27  O   UNL     1       3.885  -4.955  -1.277  0.00  0.00    -0.387 OA
ATOM     28  H   UNL     1       3.037  -5.412  -1.365  0.00  0.00    +0.210 HD
ENDBRANCH  18  27
BRANCH  10  29
ATOM     29  O   UNL     1       4.066  -2.882  -8.180  0.00  0.00    -0.391 OA
ATOM     30  H   UNL     1       4.544  -2.402  -8.870  0.00  0.00    +0.210 HD
ENDBRANCH  10  29
TORSDOF 3
