REMARK  Name = ZINC04330375
REMARK  7 active torsions:
REMARK  status: ('A' for Active; 'I' for Inactive)
REMARK    1  A    between atoms: C_1  and  C_2
REMARK    2  A    between atoms: C_8  and  N_10
REMARK    3  A    between atoms: C_14  and  C_16
REMARK    4  A    between atoms: C_16  and  S_17
REMARK    5  A    between atoms: S_17  and  C_18
REMARK    6  A    between atoms: C_21  and  C_24
REMARK    7  A    between atoms: N_22  and  C_23
REMARK                            x       y       z     vdW  Elec       q    Type
REMARK                         _______ _______ _______ _____ _____    ______ ____
ROOT
ATOM      1  N   UNL     1      -3.504   1.659   0.104  0.00  0.00    -0.296 N 
ATOM      2  C   UNL     1      -2.314   1.033   0.195  0.00  0.00    +0.306 C 
ATOM      3  O   UNL     1      -2.270  -0.170   0.361  0.00  0.00    -0.252 OA
ATOM      4  N   UNL     1      -1.171   1.742   0.102  0.00  0.00    -0.239 N 
ATOM      5  C   UNL     1       0.019   1.117   0.193  0.00  0.00    +0.231 C 
ATOM      6  O   UNL     1       0.062  -0.083   0.358  0.00  0.00    -0.274 OA
ATOM      7  H   UNL     1      -3.538   2.619  -0.029  0.00  0.00    +0.151 HD
ATOM      8  H   UNL     1      -1.206   2.703  -0.031  0.00  0.00    +0.159 HD
ENDROOT
BRANCH   1  15
ATOM      9  C   UNL     1      -5.498   1.812  -1.991  0.00  0.00    +0.009 C 
ATOM     10  C   UNL     1      -5.869   1.634  -0.518  0.00  0.00    +0.006 C 
ATOM     11  C   UNL     1      -7.166   0.830  -0.412  0.00  0.00    +0.005 C 
ATOM     12  C   UNL     1      -7.538   0.652   1.062  0.00  0.00    +0.000 C 
ATOM     13  C   UNL     1      -6.414  -0.094   1.784  0.00  0.00    +0.002 C 
ATOM     14  C   UNL     1      -5.117   0.711   1.679  0.00  0.00    +0.022 C 
ATOM     15  C   UNL     1      -4.746   0.888   0.205  0.00  0.00    +0.077 C 
ENDBRANCH   1  15
BRANCH   5  16
ATOM     16  C   UNL     1       1.297   1.909   0.082  0.00  0.00    +0.173 C 
BRANCH  16  17
ATOM     17  S   UNL     1       2.713   0.792   0.235  0.00  0.00    -0.077 S 
BRANCH  17  18
ATOM     18  C   UNL     1       4.033   1.949   0.074  0.00  0.00    +0.192 A 
ATOM     19  N   UNL     1       3.916   3.246  -0.104  0.00  0.00    -0.122 NA
ATOM     20  N   UNL     1       5.078   3.788  -0.180  0.00  0.00    -0.128 NA
ATOM     21  C   UNL     1       6.009   2.871  -0.054  0.00  0.00    +0.165 A 
ATOM     22  N   UNL     1       5.368   1.666   0.118  0.00  0.00    -0.305 N 
ATOM     23  C   UNL     1       5.989   0.352   0.305  0.00  0.00    +0.153 C 
BRANCH  21  24
ATOM     24  C   UNL     1       7.471   3.092  -0.086  0.00  0.00    +0.019 A 
ATOM     25  C   UNL     1       7.989   4.373   0.108  0.00  0.00    +0.013 A 
ATOM     26  C   UNL     1       9.354   4.573   0.082  0.00  0.00    +0.021 A 
ATOM     27  C   UNL     1      10.208   3.507  -0.146  0.00  0.00    +0.041 A 
ATOM     28  C   UNL     1       9.699   2.235  -0.344  0.00  0.00    +0.021 A 
ATOM     29  C   UNL     1       8.337   2.022  -0.316  0.00  0.00    +0.013 A 
ATOM     30 CL   UNL     1      11.924   3.768  -0.185  0.00  0.00    -0.084 Cl
ENDBRANCH  21  24
ENDBRANCH  17  18
ENDBRANCH  16  17
ENDBRANCH   5  16
TORSDOF 5
