REMARK  Name = ZINC16717862
REMARK  8 active torsions:
REMARK  status: ('A' for Active; 'I' for Inactive)
REMARK    1  A    between atoms: C_1  and  C_2
REMARK    2  A    between atoms: C_2  and  C_4
REMARK    3  A    between atoms: C_2  and  S_19
REMARK    4  A    between atoms: C_16  and  C_17
REMARK    5  A    between atoms: C_16  and  C_18
REMARK    6  A    between atoms: S_19  and  C_20
REMARK    7  A    between atoms: C_23  and  C_26
REMARK    8  A    between atoms: N_24  and  N_25
REMARK                            x       y       z     vdW  Elec       q    Type
REMARK                         _______ _______ _______ _____ _____    ______ ____
ROOT
ATOM      1  C   UNL     1      -0.821   1.298  -1.210  0.00  0.00    +0.029 C 
ATOM      2  C   UNL     1      -0.351   0.653   0.095  0.00  0.00    +0.137 C 
ENDROOT
BRANCH   2   3
ATOM      3  C   UNL     1       1.048   1.118   0.409  0.00  0.00    +0.234 C 
ATOM      4  O   UNL     1       1.252   1.817   1.379  0.00  0.00    -0.274 OA
ATOM      5  N   UNL     1       2.073   0.757  -0.388  0.00  0.00    -0.255 N 
ATOM      6  C   UNL     1       3.338   1.350  -0.255  0.00  0.00    +0.059 A 
ATOM      7  C   UNL     1       3.474   2.649   0.200  0.00  0.00    +0.025 A 
ATOM      8  C   UNL     1       4.734   3.208   0.316  0.00  0.00    +0.002 A 
ATOM      9  C   UNL     1       5.855   2.471  -0.022  0.00  0.00    +0.002 A 
ATOM     10  C   UNL     1       5.728   1.162  -0.471  0.00  0.00    +0.025 A 
ATOM     11  C   UNL     1       4.468   0.597  -0.592  0.00  0.00    +0.055 A 
ATOM     12  N   UNL     1       4.313  -0.716  -1.050  0.00  0.00    -0.282 N 
ATOM     13  C   UNL     1       3.106  -1.173  -1.433  0.00  0.00    +0.241 C 
ATOM     14  O   UNL     1       2.986  -2.327  -1.786  0.00  0.00    -0.273 OA
ATOM     15  C   UNL     1       1.900  -0.268  -1.429  0.00  0.00    +0.113 C 
ATOM     16  C   UNL     1       0.644  -1.089  -1.136  0.00  0.00    +0.042 C 
ATOM     17  C   UNL     1       1.764   0.409  -2.795  0.00  0.00    +0.042 C 
ATOM     18  H   UNL     1       5.083  -1.303  -1.093  0.00  0.00    +0.155 HD
ENDBRANCH   2   3
BRANCH   2  19
ATOM     19  S   UNL     1      -1.462   1.134   1.440  0.00  0.00    -0.072 S 
BRANCH  19  20
ATOM     20  C   UNL     1      -2.949   0.356   0.901  0.00  0.00    +0.209 A 
ATOM     21  N   UNL     1      -3.104  -0.356  -0.193  0.00  0.00    -0.121 NA
ATOM     22  N   UNL     1      -4.316  -0.774  -0.278  0.00  0.00    -0.127 NA
ATOM     23  C   UNL     1      -5.009  -0.356   0.755  0.00  0.00    +0.183 A 
ATOM     24  N   UNL     1      -4.153   0.376   1.545  0.00  0.00    -0.224 N 
BRANCH  23  25
ATOM     25  C   UNL     1      -6.437  -0.626   1.022  0.00  0.00    +0.039 A 
ATOM     26  C   UNL     1      -7.281   0.407   1.435  0.00  0.00    +0.013 A 
ATOM     27  C   UNL     1      -8.613   0.149   1.682  0.00  0.00    +0.001 A 
ATOM     28  C   UNL     1      -9.115  -1.131   1.522  0.00  0.00    +0.001 A 
ATOM     29  C   UNL     1      -8.285  -2.160   1.114  0.00  0.00    +0.021 A 
ATOM     30  C   UNL     1      -6.951  -1.914   0.858  0.00  0.00    +0.052 A 
ATOM     31 CL   UNL     1      -5.912  -3.205   0.339  0.00  0.00    -0.083 Cl
ENDBRANCH  23  25
BRANCH  24  32
ATOM     32  N   UNL     1      -4.447   0.996   2.726  0.00  0.00    -0.295 N 
ATOM     33  H   UNL     1      -4.846   1.909   2.566  0.00  0.00    +0.163 HD
ATOM     34  H   UNL     1      -5.061   0.428   3.290  0.00  0.00    +0.163 HD
ENDBRANCH  24  32
ENDBRANCH  19  20
ENDBRANCH   2  19
TORSDOF 5
