REMARK  Name = ZINC08636032
REMARK  9 active torsions:
REMARK  status: ('A' for Active; 'I' for Inactive)
REMARK    1  A    between atoms: C_1  and  C_2
REMARK    2  A    between atoms: C_2  and  C_3
REMARK    3  A    between atoms: C_2  and  N_63
REMARK    4  A    between atoms: C_4  and  N_63
REMARK    5  A    between atoms: C_7  and  C_29
REMARK    6  A    between atoms: C_9  and  C_25
REMARK    7  A    between atoms: C_25  and  O_27
REMARK    8  A    between atoms: O_27  and  C_28
REMARK    9  A    between atoms: C_32  and  C_35
REMARK                            x       y       z     vdW  Elec       q    Type
REMARK                         _______ _______ _______ _____ _____    ______ ____
ROOT
ATOM      1  C   UNL     1       3.918   2.619   1.306  0.00  0.00    -0.074 C 
ATOM      2  C   UNL     1       3.362   3.191  -0.001  0.00  0.00    -0.027 C 
ATOM      3  C   UNL     1       1.833   3.104   0.013  0.00  0.00    -0.037 C 
ATOM      4  C   UNL     1      -0.019   1.531   0.011  0.00  0.00    +0.049 C 
ATOM      5  C   UNL     1      -0.337   0.045  -0.210  0.00  0.00    +0.033 C 
ATOM      6  C   UNL     1       0.390  -0.752   0.843  0.00  0.00    -0.022 A 
ATOM      7  C   UNL     1       0.187  -2.123   1.257  0.00  0.00    +0.003 A 
ATOM      8  C   UNL     1      -0.703  -3.119   0.842  0.00  0.00    +0.010 A 
ATOM      9  C   UNL     1      -0.611  -4.335   1.472  0.00  0.00    +0.001 A 
ATOM     10  C   UNL     1       0.316  -4.578   2.472  0.00  0.00    +0.002 A 
ATOM     11  C   UNL     1       1.209  -3.612   2.902  0.00  0.00    +0.026 A 
ATOM     12  C   UNL     1       1.139  -2.367   2.281  0.00  0.00    +0.047 A 
ATOM     13  N   UNL     1       1.853  -1.216   2.456  0.00  0.00    -0.359 N 
ATOM     14  H   UNL     1       2.573  -1.098   3.095  0.00  0.00    +0.166 HD
ATOM     15  C   UNL     1       1.399  -0.254   1.595  0.00  0.00    +0.007 A 
ATOM     16  C   UNL     1       1.901   1.161   1.456  0.00  0.00    -0.020 C 
ATOM     17  C   UNL     1       3.431   1.177   1.476  0.00  0.00    -0.025 C 
ATOM     18  N   UNL     1       1.450   1.683   0.147  0.00  0.00    +0.399 N 
ATOM     19  H   UNL     1       1.908   1.145  -0.599  0.00  0.00    -0.079 HD
ENDROOT
BRANCH   3  20
ATOM     20  C   UNL     1       1.287   3.641  -1.285  0.00  0.00    -0.061 A 
ATOM     21  C   UNL     1       1.292   2.849  -2.417  0.00  0.00    +0.002 A 
ATOM     22  C   UNL     1       0.786   3.339  -3.607  0.00  0.00    +0.012 A 
ATOM     23  C   UNL     1       0.285   4.626  -3.666  0.00  0.00    +0.055 A 
ATOM     24  C   UNL     1       0.285   5.420  -2.534  0.00  0.00    +0.012 A 
ATOM     25  C   UNL     1       0.785   4.928  -1.344  0.00  0.00    +0.002 A 
BRANCH  23  26
ATOM     26  C   UNL     1      -0.262   5.163  -4.963  0.00  0.00    +0.417 C 
ATOM     27  F   UNL     1       0.767   5.781  -5.682  0.00  0.00    -0.166 F 
ATOM     28  F   UNL     1      -0.790   4.110  -5.718  0.00  0.00    -0.166 F 
ATOM     29  F   UNL     1      -1.269   6.096  -4.695  0.00  0.00    -0.166 F 
ENDBRANCH  23  26
ENDBRANCH   3  20
BRANCH   1  30
ATOM     30  N   UNL     1       3.440   3.430   2.442  0.00  0.00    +0.382 N 
ATOM     31  H   UNL     1       2.487   3.759   2.246  0.00  0.00    -0.085 HD
ATOM     32  H   UNL     1       3.435   2.853   3.291  0.00  0.00    -0.085 HD
BRANCH  30  34
ATOM     33  C   UNL     1       3.537   5.703   3.347  0.00  0.00    -0.014 C 
ATOM     34  C   UNL     1       4.324   4.593   2.648  0.00  0.00    -0.078 C 
ATOM     35  C   UNL     1       5.512   4.183   3.521  0.00  0.00    -0.014 C 
ENDBRANCH  30  34
ENDBRANCH   1  30
BRANCH   4  36
ATOM     36  C   UNL     1      -0.724   2.017   1.250  0.00  0.00    +0.294 C 
ATOM     37  O   UNL     1      -0.114   2.639   2.088  0.00  0.00    -0.253 OA
BRANCH  36  38
ATOM     38  O   UNL     1      -2.030   1.759   1.424  0.00  0.00    -0.469 OA
ATOM     39  C   UNL     1      -2.644   2.257   2.642  0.00  0.00    +0.280 C 
ENDBRANCH  36  38
ENDBRANCH   4  36
TORSDOF 6
