REMARK  Name = ZINC20205656
REMARK  8 active torsions:
REMARK  status: ('A' for Active; 'I' for Inactive)
REMARK    1  A    between atoms: C_1  and  S_2
REMARK    2  A    between atoms: S_2  and  C_3
REMARK    3  A    between atoms: C_8  and  C_22
REMARK    4  A    between atoms: C_17  and  C_20
REMARK    5  A    between atoms: C_20  and  O_21
REMARK    6  A    between atoms: C_22  and  N_23
REMARK    7  A    between atoms: N_23  and  C_24
REMARK    8  A    between atoms: C_24  and  C_25
REMARK                            x       y       z     vdW  Elec       q    Type
REMARK                         _______ _______ _______ _____ _____    ______ ____
ROOT
ATOM      1  C   UNL     1       8.234   5.401  -1.204  0.00  0.00    +0.010 A 
ATOM      2  C   UNL     1       8.310   6.776  -1.464  0.00  0.00    +0.015 A 
ATOM      3  C   UNL     1       7.211   7.567  -1.349  0.00  0.00    +0.011 A 
ATOM      4  C   UNL     1       5.981   7.006  -0.967  0.00  0.00    +0.001 A 
ATOM      5  C   UNL     1       4.826   7.803  -0.840  0.00  0.00    +0.015 A 
ATOM      6  C   UNL     1       3.662   7.201  -0.466  0.00  0.00    -0.024 A 
ATOM      7  C   UNL     1       3.638   5.822  -0.217  0.00  0.00    +0.123 A 
ATOM      8  N   UNL     1       4.722   5.082  -0.332  0.00  0.00    -0.232 NA
ATOM      9  C   UNL     1       5.892   5.617  -0.702  0.00  0.00    +0.074 A 
ATOM     10  C   UNL     1       7.040   4.821  -0.827  0.00  0.00    +0.043 A 
ATOM     11  N   UNL     1       2.446   5.223   0.164  0.00  0.00    -0.315 N 
ATOM     12  C   UNL     1       2.338   5.148   1.626  0.00  0.00    +0.106 C 
ATOM     13  C   UNL     1       0.955   4.618   2.011  0.00  0.00    +0.019 C 
ATOM     14  C   UNL     1       0.756   3.231   1.394  0.00  0.00    +0.009 C 
ATOM     15  C   UNL     1       0.922   3.327  -0.125  0.00  0.00    +0.032 C 
ATOM     16  C   UNL     1       2.306   3.895  -0.447  0.00  0.00    +0.112 C 
ENDROOT
BRANCH   1  18
ATOM     17  C   UNL     1      10.967   5.573  -1.866  0.00  0.00    +0.090 C 
ATOM     18  S   UNL     1       9.677   4.403  -1.362  0.00  0.00    -0.129 S 
ENDBRANCH   1  18
BRANCH  15  19
ATOM     19  C   UNL     1       0.784   1.934  -0.743  0.00  0.00    +0.160 C 
BRANCH  19  20
ATOM     20  O   UNL     1      -0.546   1.453  -0.542  0.00  0.00    -0.395 OA
ATOM     21  H   UNL     1      -0.836   0.461  -0.920  0.00  0.00    +0.209 HD
ENDBRANCH  19  20
ENDBRANCH  15  19
BRANCH   6  22
ATOM     22  C   UNL     1       2.403   8.016  -0.319  0.00  0.00    -0.043 C 
BRANCH  22  23
ATOM     23  N   UNL     1       2.157   8.286   1.104  0.00  0.00    +0.385 N 
ATOM     24  H   UNL     1       2.042   7.333   1.643  0.00  0.00    -0.085 HD
ATOM     25  H   UNL     1       3.007   8.844   1.524  0.00  0.00    -0.085 HD
BRANCH  23  26
ATOM     26  C   UNL     1       0.935   9.080   1.286  0.00  0.00    -0.043 C 
BRANCH  26  27
ATOM     27  C   UNL     1       0.716   9.336   2.755  0.00  0.00    -0.029 A 
ATOM     28  C   UNL     1      -0.195   8.573   3.461  0.00  0.00    +0.004 A 
ATOM     29  C   UNL     1      -0.392   8.803   4.809  0.00  0.00    +0.000 A 
ATOM     30  C   UNL     1       0.313   9.805   5.451  0.00  0.00    +0.003 A 
ATOM     31  C   UNL     1       1.220  10.573   4.746  0.00  0.00    +0.038 A 
ATOM     32  C   UNL     1       1.422  10.339   3.396  0.00  0.00    +0.125 A 
ATOM     33  F   UNL     1       2.308  11.090   2.705  0.00  0.00    -0.205 F 
ENDBRANCH  26  27
ENDBRANCH  23  26
ENDBRANCH  22  23
ENDBRANCH   6  22
TORSDOF 7
