REMARK  Name = ZINC15800143
REMARK  8 active torsions:
REMARK  status: ('A' for Active; 'I' for Inactive)
REMARK    1  A    between atoms: C_1  and  C_2
REMARK    2  A    between atoms: C_2  and  C_4
REMARK    3  A    between atoms: C_2  and  S_14
REMARK    4  A    between atoms: N_9  and  C_10
REMARK    5  A    between atoms: C_10  and  C_11
REMARK    6  A    between atoms: C_10  and  C_12
REMARK    7  A    between atoms: C_10  and  C_13
REMARK    8  A    between atoms: S_14  and  C_15
REMARK                            x       y       z     vdW  Elec       q    Type
REMARK                         _______ _______ _______ _____ _____    ______ ____
ROOT
ATOM      1  C   UNL     1      -2.849   0.476   1.455  0.00  0.00    +0.029 C 
ATOM      2  C   UNL     1      -2.482   0.853   0.018  0.00  0.00    +0.136 C 
ENDROOT
BRANCH   2   3
ATOM      3  C   UNL     1      -1.187   1.624   0.017  0.00  0.00    +0.233 C 
ATOM      4  O   UNL     1      -1.204   2.836   0.023  0.00  0.00    -0.274 OA
ATOM      5  N   UNL     1      -0.011   0.966   0.007  0.00  0.00    -0.239 N 
ATOM      6  C   UNL     1       1.147   1.655   0.000  0.00  0.00    +0.306 C 
ATOM      7  O   UNL     1       1.130   2.871   0.007  0.00  0.00    -0.252 OA
ATOM      8  N   UNL     1       2.323   0.998  -0.015  0.00  0.00    -0.294 N 
ATOM      9  H   UNL     1       0.002  -0.004   0.002  0.00  0.00    +0.159 HD
ATOM     10  H   UNL     1       2.336   0.028  -0.020  0.00  0.00    +0.151 HD
BRANCH   8  11
ATOM     11  C   UNL     1       3.582   1.747  -0.023  0.00  0.00    +0.028 C 
ATOM     12  C   UNL     1       3.663   2.621   1.230  0.00  0.00    +0.031 C 
ATOM     13  C   UNL     1       4.758   0.769  -0.039  0.00  0.00    +0.031 C 
ATOM     14  C   UNL     1       3.639   2.635  -1.268  0.00  0.00    +0.031 C 
ENDBRANCH   8  11
ENDBRANCH   2   3
BRANCH   2  15
ATOM     15  S   UNL     1      -3.795   1.877  -0.691  0.00  0.00    -0.086 S 
BRANCH  15  16
ATOM     16  C   UNL     1      -5.117   0.712  -0.707  0.00  0.00    +0.136 A 
ATOM     17  N   UNL     1      -5.115  -0.543  -0.313  0.00  0.00    -0.233 NA
ATOM     18  C   UNL     1      -6.215  -1.325  -0.379  0.00  0.00    +0.081 A 
ATOM     19  C   UNL     1      -6.348  -2.677   0.011  0.00  0.00    +0.049 A 
ATOM     20  C   UNL     1      -7.545  -3.333  -0.130  0.00  0.00    +0.043 A 
ATOM     21  C   UNL     1      -8.661  -2.698  -0.658  0.00  0.00    +0.021 A 
ATOM     22  C   UNL     1      -8.565  -1.375  -1.050  0.00  0.00    +0.018 A 
ATOM     23  C   UNL     1      -7.371  -0.712  -0.912  0.00  0.00    +0.040 A 
ATOM     24  S   UNL     1      -6.799   0.932  -1.268  0.00  0.00    -0.061 S 
ATOM     25 CL   UNL     1      -7.666  -4.993   0.362  0.00  0.00    -0.083 Cl
ENDBRANCH  15  16
ENDBRANCH   2  15
TORSDOF 4
