REMARK  Name = ZINC64165009
REMARK  9 active torsions:
REMARK  status: ('A' for Active; 'I' for Inactive)
REMARK    1  A    between atoms: C_7  and  C_37
REMARK    2  A    between atoms: C_11  and  S_15
REMARK    3  A    between atoms: C_12  and  C_13
REMARK    4  A    between atoms: S_15  and  C_16
REMARK    5  A    between atoms: C_16  and  C_17
REMARK    6  A    between atoms: C_17  and  S_18
REMARK    7  A    between atoms: S_18  and  C_19
REMARK    8  A    between atoms: C_20  and  C_34
REMARK    9  A    between atoms: C_27  and  C_32
REMARK                            x       y       z     vdW  Elec       q    Type
REMARK                         _______ _______ _______ _____ _____    ______ ____
ROOT
ATOM      1  C   UNL     1       6.814   0.678  -3.328  0.00  0.00    +0.086 C 
ENDROOT
BRANCH   1   2
ATOM      2  S   UNL     1       5.149   0.210  -3.877  0.00  0.00    -0.111 S 
BRANCH   2  12
ATOM      3  C   UNL     1      -0.019   1.526   0.010  0.00  0.00    +0.000 C 
ATOM      4  C   UNL     1       1.416   2.056  -0.000  0.00  0.00    +0.001 C 
ATOM      5  C   UNL     1       2.132   1.564  -1.260  0.00  0.00    +0.010 C 
ATOM      6  C   UNL     1       2.150   0.035  -1.273  0.00  0.00    +0.016 C 
ATOM      7  C   UNL     1       0.717  -0.497  -1.258  0.00  0.00    +0.010 C 
ATOM      8  C   UNL     1       0.002  -0.004   0.002  0.00  0.00    +0.001 C 
ATOM      9  C   UNL     1       2.903  -0.479  -0.042  0.00  0.00    +0.187 C 
ATOM     10  C   UNL     1       4.348  -0.066  -0.143  0.00  0.00    +0.254 C 
ATOM     11  N   UNL     1       4.935   0.112  -1.323  0.00  0.00    -0.176 NA
ATOM     12  C   UNL     1       4.317  -0.048  -2.464  0.00  0.00    +0.084 C 
ATOM     13  C   UNL     1       2.871  -0.461  -2.529  0.00  0.00    +0.152 C 
ATOM     14  O   UNL     1       4.989   0.108   0.873  0.00  0.00    -0.272 OA
BRANCH  13  15
ATOM     15  C   UNL     1       2.781  -1.928  -2.602  0.00  0.00    +0.073 C 
ATOM     16  N   UNL     1       2.711  -3.060  -2.657  0.00  0.00    -0.196 NA
ENDBRANCH  13  15
BRANCH   9  17
ATOM     17  C   UNL     1       2.811  -1.948   0.013  0.00  0.00    +0.076 C 
ATOM     18  N   UNL     1       2.740  -3.080   0.056  0.00  0.00    -0.196 NA
ENDBRANCH   9  17
ENDBRANCH   2  12
ENDBRANCH   1   2
BRANCH   1  19
ATOM     19  C   UNL     1       7.697   0.948  -4.548  0.00  0.00    +0.086 C 
BRANCH  19  20
ATOM     20  S   UNL     1       9.361   1.416  -3.998  0.00  0.00    -0.111 S 
BRANCH  20  21
ATOM     21  C   UNL     1      10.193   1.674  -5.411  0.00  0.00    +0.084 C 
ATOM     22  C   UNL     1      11.641   2.081  -5.346  0.00  0.00    +0.152 C 
ATOM     23  C   UNL     1      12.359   1.584  -6.604  0.00  0.00    +0.016 C 
ATOM     24  C   UNL     1      13.794   2.111  -6.619  0.00  0.00    +0.010 C 
ATOM     25  C   UNL     1      14.506   1.617  -7.880  0.00  0.00    +0.001 C 
ATOM     26  C   UNL     1      14.520   0.087  -7.892  0.00  0.00    +0.000 C 
ATOM     27  C   UNL     1      13.083  -0.437  -7.881  0.00  0.00    +0.001 C 
ATOM     28  C   UNL     1      12.371   0.056  -6.619  0.00  0.00    +0.010 C 
ATOM     29  C   UNL     1      11.608   2.104  -7.833  0.00  0.00    +0.187 C 
ATOM     30  C   UNL     1      10.161   1.697  -7.732  0.00  0.00    +0.254 C 
ATOM     31  N   UNL     1       9.575   1.514  -6.553  0.00  0.00    -0.176 NA
ATOM     32  O   UNL     1       9.518   1.528  -8.748  0.00  0.00    -0.272 OA
BRANCH  29  33
ATOM     33  C   UNL     1      12.199   1.529  -9.053  0.00  0.00    +0.076 C 
ATOM     34  N   UNL     1      12.656   1.086  -9.993  0.00  0.00    -0.196 NA
ENDBRANCH  29  33
BRANCH  22  35
ATOM     35  C   UNL     1      11.737   3.548  -5.271  0.00  0.00    +0.073 C 
ATOM     36  N   UNL     1      11.812   4.680  -5.214  0.00  0.00    -0.196 NA
ENDBRANCH  22  35
ENDBRANCH  20  21
ENDBRANCH  19  20
ENDBRANCH   1  19
TORSDOF 9
