REMARK  Name = ZINC34789934
REMARK  4 active torsions:
REMARK  status: ('A' for Active; 'I' for Inactive)
REMARK    1  A    between atoms: C_1  and  N_2
REMARK    2  A    between atoms: N_2  and  C_3
REMARK    3  A    between atoms: C_9  and  C_11
REMARK    4  A    between atoms: C_21  and  C_23
REMARK                            x       y       z     vdW  Elec       q    Type
REMARK                         _______ _______ _______ _____ _____    ______ ____
ROOT
ATOM      1  C   UNL     1      -0.986   0.596  -2.529  0.00  0.00    +0.152 A 
ATOM      2  C   UNL     1      -0.941  -0.077  -3.761  0.00  0.00    +0.023 A 
ATOM      3  C   UNL     1      -0.885   0.886  -4.713  0.00  0.00    +0.043 A 
ATOM      4  N   UNL     1      -0.892   2.071  -4.077  0.00  0.00    -0.280 N 
ATOM      5  H   UNL     1      -0.857   2.936  -4.514  0.00  0.00    +0.189 HD
ATOM      6  N   UNL     1      -0.958   1.889  -2.804  0.00  0.00    -0.169 NA
ATOM      7  C   UNL     1      -0.833   0.613  -6.194  0.00  0.00    +0.074 C 
ATOM      8  C   UNL     1      -0.402  -0.843  -6.413  0.00  0.00    +0.114 C 
ATOM      9  N   UNL     1      -1.155  -1.715  -5.499  0.00  0.00    -0.290 N 
ATOM     10  C   UNL     1      -0.946  -1.555  -4.047  0.00  0.00    +0.147 C 
ATOM     11  C   UNL     1      -2.014  -2.638  -5.976  0.00  0.00    +0.282 C 
ATOM     12  O   UNL     1      -2.248  -2.691  -7.169  0.00  0.00    -0.267 OA
ENDROOT
BRANCH  11  13
ATOM     13  C   UNL     1      -2.665  -3.577  -5.057  0.00  0.00    +0.189 A 
ATOM     14  C   UNL     1      -3.644  -4.471  -5.385  0.00  0.00    +0.054 A 
ATOM     15  C   UNL     1      -3.971  -5.161  -4.207  0.00  0.00    +0.042 A 
ATOM     16  C   UNL     1      -3.187  -4.664  -3.224  0.00  0.00    +0.196 A 
ATOM     17  O   UNL     1      -2.398  -3.713  -3.742  0.00  0.00    -0.458 OA
ENDBRANCH  11  13
BRANCH   1  20
ATOM     18  C   UNL     1      -1.516   2.183  -0.257  0.00  0.00    +0.132 C 
ATOM     19  N   UNL     1      -1.244   0.752  -0.101  0.00  0.00    -0.296 N 
ATOM     20  C   UNL     1      -1.057  -0.021  -1.189  0.00  0.00    +0.267 C 
ATOM     21  O   UNL     1      -0.947  -1.226  -1.067  0.00  0.00    -0.268 OA
BRANCH  19  22
ATOM     22  C   UNL     1      -1.176   0.160   1.238  0.00  0.00    +0.076 C 
ATOM     23  C   UNL     1      -2.513   0.363   1.953  0.00  0.00    +0.022 C 
ATOM     24  C   UNL     1      -2.442  -0.254   3.352  0.00  0.00    +0.002 C 
ATOM     25  C   UNL     1      -1.328   0.423   4.152  0.00  0.00    +0.000 C 
ATOM     26  C   UNL     1       0.009   0.220   3.436  0.00  0.00    +0.002 C 
ATOM     27  C   UNL     1      -0.062   0.837   2.038  0.00  0.00    +0.022 C 
ENDBRANCH  19  22
ENDBRANCH   1  20
TORSDOF 3
