REMARK  Name = ZINC37444070
REMARK  7 active torsions:
REMARK  status: ('A' for Active; 'I' for Inactive)
REMARK    1  A    between atoms: C_1  and  C_2
REMARK    2  A    between atoms: C_7  and  N_12
REMARK    3  A    between atoms: C_9  and  C_11
REMARK    4  A    between atoms: C_13  and  C_15
REMARK    5  A    between atoms: C_15  and  C_36
REMARK    6  A    between atoms: N_28  and  C_29
REMARK    7  A    between atoms: C_29  and  C_30
REMARK                            x       y       z     vdW  Elec       q    Type
REMARK                         _______ _______ _______ _____ _____    ______ ____
ROOT
ATOM      1  C   UNL     1       2.785  -4.239   3.627  0.00  0.00    +0.129 C 
ATOM      2  C   UNL     1       1.790  -4.955   4.539  0.00  0.00    +0.159 C 
ATOM      3  N   UNL     1       0.931  -3.966   5.193  0.00  0.00    -0.317 N 
ATOM      4  C   UNL     1      -0.347  -4.045   5.629  0.00  0.00    +0.069 A 
ATOM      5  C   UNL     1      -1.300  -5.061   5.605  0.00  0.00    +0.028 A 
ATOM      6  C   UNL     1      -2.535  -4.778   6.162  0.00  0.00    +0.002 A 
ATOM      7  C   UNL     1      -2.825  -3.543   6.722  0.00  0.00    +0.002 A 
ATOM      8  C   UNL     1      -1.910  -2.524   6.760  0.00  0.00    +0.030 A 
ATOM      9  C   UNL     1      -0.647  -2.778   6.203  0.00  0.00    +0.090 A 
ATOM     10  N   UNL     1       0.441  -2.013   6.080  0.00  0.00    -0.223 NA
ATOM     11  C   UNL     1       1.379  -2.687   5.481  0.00  0.00    +0.198 A 
ATOM     12  C   UNL     1       2.749  -2.268   5.094  0.00  0.00    +0.283 C 
ATOM     13  O   UNL     1       3.232  -1.223   5.483  0.00  0.00    -0.267 OA
ATOM     14  N   UNL     1       3.433  -3.110   4.285  0.00  0.00    -0.277 N 
ATOM     15  C   UNL     1       3.858  -5.238   3.188  0.00  0.00    +0.043 C 
ENDROOT
BRANCH   1  17
ATOM     16  N   UNL     1       1.471  -2.526   2.420  0.00  0.00    -0.310 N 
ATOM     17  C   UNL     1       2.056  -3.740   2.406  0.00  0.00    +0.238 C 
ATOM     18  O   UNL     1       1.996  -4.431   1.411  0.00  0.00    -0.273 OA
ATOM     19  H   UNL     1       1.520  -1.974   3.216  0.00  0.00    +0.149 HD
BRANCH  16  25
ATOM     20  C   UNL     1      -0.019   1.526   0.010  0.00  0.00    +0.008 C 
ATOM     21  C   UNL     1       0.002  -0.004   0.002  0.00  0.00    -0.009 C 
ATOM     22  C   UNL     1      -1.433  -0.534   0.013  0.00  0.00    +0.003 C 
ATOM     23  C   UNL     1      -1.413  -2.063   0.004  0.00  0.00    +0.002 C 
ATOM     24  C   UNL     1      -0.673  -2.570   1.244  0.00  0.00    +0.022 C 
ATOM     25  C   UNL     1       0.763  -2.041   1.233  0.00  0.00    +0.076 C 
ATOM     26  C   UNL     1       0.742  -0.511   1.242  0.00  0.00    +0.009 C 
ATOM     27  C   UNL     1       0.026  -0.018   2.500  0.00  0.00    +0.009 C 
ENDBRANCH  16  25
ENDBRANCH   1  17
BRANCH  14  28
ATOM     28  C   UNL     1       4.863  -2.881   4.063  0.00  0.00    +0.140 C 
BRANCH  28  29
ATOM     29  C   UNL     1       5.051  -1.964   2.853  0.00  0.00    +0.136 C 
ATOM     30  C   UNL     1       6.555  -1.814   2.538  0.00  0.00    +0.035 C 
ATOM     31  C   UNL     1       6.662  -0.314   2.150  0.00  0.00    +0.031 C 
ATOM     32  C   UNL     1       5.597   0.309   3.087  0.00  0.00    +0.160 C 
ATOM     33  O   UNL     1       4.536  -0.660   3.147  0.00  0.00    -0.375 OA
ENDBRANCH  28  29
ENDBRANCH  14  28
TORSDOF 4
