REMARK  Name = ZINC59913033
REMARK  13 active torsions:
REMARK  status: ('A' for Active; 'I' for Inactive)
REMARK    1  A    between atoms: C_1  and  C_2
REMARK    2  A    between atoms: C_2  and  N_3
REMARK    3  A    between atoms: N_3  and  C_4
REMARK    4  A    between atoms: N_3  and  C_6
REMARK    5  A    between atoms: C_4  and  C_5
REMARK    6  A    between atoms: C_9  and  N_12
REMARK    7  A    between atoms: C_13  and  C_15
REMARK    8  A    between atoms: C_15  and  S_16
REMARK    9  A    between atoms: S_16  and  C_17
REMARK   10  A    between atoms: C_20  and  C_23
REMARK   11  A    between atoms: N_21  and  N_22
REMARK   12  A    between atoms: C_23  and  C_24
REMARK   13  A    between atoms: C_23  and  C_25
REMARK                            x       y       z     vdW  Elec       q    Type
REMARK                         _______ _______ _______ _____ _____    ______ ____
ROOT
ATOM      1  N   UNL     1       0.976  -6.104   1.364  0.00  0.00    -0.285 N 
ATOM      2  C   UNL     1       2.154  -6.729   1.554  0.00  0.00    +0.227 C 
ATOM      3  O   UNL     1       3.156  -6.082   1.770  0.00  0.00    -0.275 OA
ATOM      4  H   UNL     1       0.162  -6.622   1.264  0.00  0.00    +0.155 HD
ENDROOT
BRANCH   1   8
ATOM      5  C   UNL     1       0.828  -1.943   1.204  0.00  0.00    +0.014 A 
ATOM      6  C   UNL     1       1.927  -2.614   0.701  0.00  0.00    +0.023 A 
ATOM      7  C   UNL     1       1.979  -3.993   0.752  0.00  0.00    +0.025 A 
ATOM      8  C   UNL     1       0.926  -4.706   1.310  0.00  0.00    +0.034 A 
ATOM      9  C   UNL     1      -0.176  -4.029   1.816  0.00  0.00    +0.025 A 
ATOM     10  C   UNL     1      -0.220  -2.650   1.766  0.00  0.00    +0.023 A 
BRANCH   5  11
ATOM     11  N   UNL     1       0.778  -0.547   1.151  0.00  0.00    -0.394 NA
ATOM     12  H   UNL     1      -0.085  -0.225   1.562  0.00  0.00    +0.126 HD
BRANCH  11  14
ATOM     13  C   UNL     1       1.791  -0.364   3.373  0.00  0.00    +0.022 C 
ATOM     14  C   UNL     1       1.914   0.012   1.895  0.00  0.00    +0.081 C 
ENDBRANCH  11  14
BRANCH  11  15
ATOM     15  C   UNL     1       0.846  -0.108  -0.250  0.00  0.00    +0.081 C 
ATOM     16  C   UNL     1      -0.394  -0.599  -0.999  0.00  0.00    +0.022 C 
ENDBRANCH  11  15
ENDBRANCH   5  11
ENDBRANCH   1   8
BRANCH   2  17
ATOM     17  C   UNL     1       2.226  -8.234   1.498  0.00  0.00    +0.173 C 
BRANCH  17  18
ATOM     18  S   UNL     1       3.934  -8.768   1.791  0.00  0.00    -0.075 S 
BRANCH  18  19
ATOM     19  C   UNL     1       3.853 -10.526   1.694  0.00  0.00    +0.209 A 
ATOM     20  N   UNL     1       2.782 -11.246   1.456  0.00  0.00    -0.121 NA
ATOM     21  N   UNL     1       3.086 -12.495   1.456  0.00  0.00    -0.132 NA
ATOM     22  C   UNL     1       4.358 -12.645   1.693  0.00  0.00    +0.154 A 
ATOM     23  N   UNL     1       4.894 -11.396   1.847  0.00  0.00    -0.228 N 
BRANCH  23  24
ATOM     24  N   UNL     1       6.199 -11.085   2.104  0.00  0.00    -0.295 N 
ATOM     25  H   UNL     1       6.372 -11.046   3.098  0.00  0.00    +0.163 HD
ATOM     26  H   UNL     1       6.822 -11.738   1.654  0.00  0.00    +0.163 HD
ENDBRANCH  23  24
BRANCH  22  27
ATOM     27  C   UNL     1       5.103 -13.953   1.776  0.00  0.00    +0.052 C 
ATOM     28  C   UNL     1       4.507 -14.809   2.895  0.00  0.00    +0.015 C 
ATOM     29  C   UNL     1       4.978 -14.696   0.444  0.00  0.00    +0.015 C 
ENDBRANCH  22  27
ENDBRANCH  18  19
ENDBRANCH  17  18
ENDBRANCH   2  17
TORSDOF 9
