REMARK  Name = ZINC60571615
REMARK  6 active torsions:
REMARK  status: ('A' for Active; 'I' for Inactive)
REMARK    1  A    between atoms: C_1  and  C_2
REMARK    2  A    between atoms: C_5  and  C_7
REMARK    3  A    between atoms: C_10  and  N_13
REMARK    4  A    between atoms: C_14  and  C_16
REMARK    5  A    between atoms: C_16  and  C_17
REMARK    6  A    between atoms: C_17  and  C_18
REMARK                            x       y       z     vdW  Elec       q    Type
REMARK                         _______ _______ _______ _____ _____    ______ ____
ROOT
ATOM      1  N   UNL     1       3.622  -6.386  -0.051  0.00  0.00    -0.176 NA
ATOM      2  C   UNL     1       4.761  -5.754  -0.053  0.00  0.00    +0.250 C 
ATOM      3  O   UNL     1       4.783  -4.407  -0.046  0.00  0.00    -0.271 OA
ENDROOT
BRANCH   1   7
ATOM      4  C   UNL     1       1.039  -4.034  -0.026  0.00  0.00    +0.190 A 
ATOM      5  N   UNL     1       2.336  -4.371  -0.034  0.00  0.00    -0.189 NA
ATOM      6  H   UNL     1       0.969  -7.158  -0.042  0.00  0.00    +0.192 HD
ATOM      7  C   UNL     1       2.453  -5.685  -0.041  0.00  0.00    +0.249 A 
ATOM      8  N   UNL     1       1.200  -6.216  -0.038  0.00  0.00    -0.243 N 
ATOM      9  N   UNL     1       0.310  -5.130  -0.023  0.00  0.00    -0.150 NA
BRANCH   4  14
ATOM     10  C   UNL     1      -0.018   1.503   0.010  0.00  0.00    +0.051 C 
ATOM     11  C   UNL     1       0.002  -0.004   0.002  0.00  0.00    -0.013 A 
ATOM     12  C   UNL     1      -1.042  -0.872   0.002  0.00  0.00    +0.011 A 
ATOM     13  C   UNL     1      -0.789  -2.226  -0.007  0.00  0.00    +0.019 A 
ATOM     14  C   UNL     1       0.511  -2.653  -0.016  0.00  0.00    +0.058 A 
ATOM     15  S   UNL     1       1.405  -1.107  -0.018  0.00  0.00    -0.090 S 
ENDBRANCH   4  14
ENDBRANCH   1   7
BRANCH   2  16
ATOM     16  C   UNL     1       6.053  -6.529  -0.064  0.00  0.00    +0.107 C 
BRANCH  16  17
ATOM     17  C   UNL     1       5.748  -8.029  -0.071  0.00  0.00    +0.072 C 
BRANCH  17  18
ATOM     18  C   UNL     1       7.040  -8.804  -0.081  0.00  0.00    +0.080 A 
ATOM     19  N   UNL     1       7.726  -9.225   0.941  0.00  0.00    -0.244 NA
ATOM     20  C   UNL     1       8.877  -9.915   0.800  0.00  0.00    +0.078 A 
ATOM     21  C   UNL     1       9.742 -10.443   1.781  0.00  0.00    +0.029 A 
ATOM     22  C   UNL     1      10.869 -11.116   1.420  0.00  0.00    +0.002 A 
ATOM     23  C   UNL     1      11.207 -11.307   0.087  0.00  0.00    +0.001 A 
ATOM     24  C   UNL     1      10.383 -10.805  -0.903  0.00  0.00    +0.017 A 
ATOM     25  C   UNL     1       9.243 -10.124  -0.549  0.00  0.00    +0.039 A 
ATOM     26  S   UNL     1       7.918  -9.328  -1.419  0.00  0.00    -0.072 S 
ENDBRANCH  17  18
ENDBRANCH  16  17
ENDBRANCH   2  16
TORSDOF 5
