REMARK  Name = ZINC06601279
REMARK  15 active torsions:
REMARK  status: ('A' for Active; 'I' for Inactive)
REMARK    1  A    between atoms: C_1  and  C_2
REMARK    2  A    between atoms: C_2  and  O_3
REMARK    3  A    between atoms: O_3  and  C_4
REMARK    4  A    between atoms: C_7  and  C_10
REMARK    5  A    between atoms: C_10  and  C_12
REMARK    6  A    between atoms: C_10  and  N_20
REMARK    7  A    between atoms: N_14  and  C_15
REMARK    8  A    between atoms: N_20  and  C_21
REMARK    9  A    between atoms: C_21  and  C_22
REMARK   10  A    between atoms: C_22  and  C_23
REMARK   11  A    between atoms: C_23  and  O_24
REMARK   12  A    between atoms: C_25  and  C_27
REMARK   13  A    between atoms: C_27  and  N_28
REMARK   14  A    between atoms: C_30  and  C_33
REMARK   15  A    between atoms: C_36  and  C_39
REMARK                            x       y       z     vdW  Elec       q    Type
REMARK                         _______ _______ _______ _____ _____    ______ ____
ROOT
ATOM      1  N   UNL     1      -0.181   2.161   6.090  0.00  0.00    -0.284 N 
ATOM      2  C   UNL     1       0.152   2.262   7.392  0.00  0.00    +0.240 C 
ATOM      3  O   UNL     1       1.268   2.616   7.706  0.00  0.00    -0.273 OA
ENDROOT
BRANCH   1   4
ATOM      4  C   UNL     1       0.805   2.479   5.054  0.00  0.00    +0.192 C 
BRANCH   4   8
ATOM      5  C   UNL     1       4.187  -0.101   5.470  0.00  0.00    +0.121 A 
ATOM      6  C   UNL     1       4.360   1.208   5.044  0.00  0.00    +0.046 A 
ATOM      7  C   UNL     1       3.265   2.040   4.910  0.00  0.00    +0.009 A 
ATOM      8  C   UNL     1       1.998   1.569   5.201  0.00  0.00    -0.018 A 
ATOM      9  C   UNL     1       1.824   0.266   5.631  0.00  0.00    +0.009 A 
ATOM     10  C   UNL     1       2.915  -0.571   5.760  0.00  0.00    +0.046 A 
BRANCH   5  11
ATOM     11  O   UNL     1       5.263  -0.921   5.603  0.00  0.00    -0.492 OA
BRANCH  11  13
ATOM     12  C   UNL     1       6.331  -3.023   6.135  0.00  0.00    +0.048 C 
ATOM     13  C   UNL     1       5.010  -2.256   6.046  0.00  0.00    +0.225 C 
ENDBRANCH  11  13
ENDBRANCH   5  11
ENDBRANCH   4   8
BRANCH   4  14
ATOM     14  C   UNL     1       0.188   2.282   3.694  0.00  0.00    +0.238 C 
ATOM     15  O   UNL     1      -0.382   1.244   3.431  0.00  0.00    -0.273 OA
ATOM     16  N   UNL     1       0.268   3.260   2.770  0.00  0.00    -0.311 N 
ATOM     17  H   UNL     1       0.723   4.090   2.980  0.00  0.00    +0.149 HD
BRANCH  16  18
ATOM     18  C   UNL     1      -0.333   3.068   1.447  0.00  0.00    +0.073 C 
ATOM     19  C   UNL     1       0.370   3.957   0.401  0.00  0.00    +0.022 C 
ATOM     20  C   UNL     1      -0.724   4.462  -0.555  0.00  0.00    +0.002 C 
ATOM     21  C   UNL     1      -2.055   3.862  -0.058  0.00  0.00    +0.002 C 
ATOM     22  C   UNL     1      -1.801   3.564   1.440  0.00  0.00    +0.022 C 
ENDBRANCH  16  18
ENDBRANCH   4  14
ENDBRANCH   1   4
BRANCH   1  23
ATOM     23  C   UNL     1      -1.530   1.733   5.709  0.00  0.00    +0.111 C 
BRANCH  23  24
ATOM     24  C   UNL     1      -1.599   0.204   5.709  0.00  0.00    +0.047 C 
BRANCH  24  25
ATOM     25  C   UNL     1      -3.038  -0.241   5.442  0.00  0.00    +0.157 C 
BRANCH  25  26
ATOM     26  O   UNL     1      -3.102  -1.669   5.442  0.00  0.00    -0.395 OA
ATOM     27  H   UNL     1      -3.987  -2.022   5.279  0.00  0.00    +0.209 HD
ENDBRANCH  25  26
ENDBRANCH  24  25
ENDBRANCH  23  24
ENDBRANCH   1  23
BRANCH   2  28
ATOM     28  C   UNL     1      -0.864   1.935   8.456  0.00  0.00    +0.264 C 
BRANCH  28  29
ATOM     29  N   UNL     1      -0.261   2.122   9.779  0.00  0.00    -0.154 N 
ATOM     30  N   UNL     1       0.359   1.214  10.450  0.00  0.00    -0.130 NA
ATOM     31  C   UNL     1       0.759   1.754  11.584  0.00  0.00    +0.205 A 
ATOM     32  N   UNL     1       0.344   3.028  11.571  0.00  0.00    -0.108 NA
ATOM     33  N   UNL     1      -0.274   3.217  10.455  0.00  0.00    -0.045 NA
BRANCH  31  34
ATOM     34  C   UNL     1       1.517   1.079  12.668  0.00  0.00    +0.023 A 
ATOM     35  C   UNL     1       1.876  -0.261  12.542  0.00  0.00    +0.012 A 
ATOM     36  C   UNL     1       2.585  -0.881  13.550  0.00  0.00    +0.004 A 
ATOM     37  C   UNL     1       2.930  -0.178  14.690  0.00  0.00    -0.050 A 
ATOM     38  C   UNL     1       2.572   1.151  14.824  0.00  0.00    +0.004 A 
ATOM     39  C   UNL     1       1.867   1.783  13.819  0.00  0.00    +0.012 A 
ATOM     40  C   UNL     1       3.698  -0.862  15.791  0.00  0.00    +0.044 C 
ENDBRANCH  31  34
ENDBRANCH  28  29
ENDBRANCH   2  28
TORSDOF 13
