REMARK  Name = ZINC58006208
REMARK  4 active torsions:
REMARK  status: ('A' for Active; 'I' for Inactive)
REMARK    1  A    between atoms: C_4  and  C_7
REMARK    2  A    between atoms: C_7  and  C_9
REMARK    3  A    between atoms: C_7  and  N_25
REMARK    4  A    between atoms: N_11  and  C_12
REMARK                            x       y       z     vdW  Elec       q    Type
REMARK                         _______ _______ _______ _____ _____    ______ ____
ROOT
ATOM      1  C   UNL     1       3.789  -1.567  -1.272  0.00  0.00    +0.246 C 
ATOM      2  O   UNL     1       2.864  -1.587  -2.057  0.00  0.00    -0.273 OA
ATOM      3  N   UNL     1       4.884  -2.319  -1.502  0.00  0.00    -0.283 N 
ATOM      4  H   UNL     1       5.650  -2.253  -0.911  0.00  0.00    +0.155 HD
ENDROOT
BRANCH   3   5
ATOM      5  C   UNL     1       4.915  -3.197  -2.594  0.00  0.00    +0.037 A 
ATOM      6  C   UNL     1       5.574  -4.414  -2.487  0.00  0.00    +0.027 A 
ATOM      7  C   UNL     1       5.606  -5.282  -3.563  0.00  0.00    +0.051 A 
ATOM      8  C   UNL     1       4.980  -4.938  -4.749  0.00  0.00    +0.167 A 
ATOM      9  C   UNL     1       4.316  -3.716  -4.858  0.00  0.00    +0.169 A 
ATOM     10  C   UNL     1       4.282  -2.851  -3.780  0.00  0.00    +0.073 A 
ATOM     11  O   UNL     1       3.787  -3.626  -6.119  0.00  0.00    -0.447 OA
ATOM     12  C   UNL     1       4.559  -4.561  -6.885  0.00  0.00    +0.254 C 
ATOM     13  O   UNL     1       4.861  -5.601  -5.944  0.00  0.00    -0.448 OA
ATOM     14  C   UNL     1       5.836  -3.914  -7.431  0.00  0.00    +0.093 C 
ATOM     15  C   UNL     1       6.039  -4.593  -8.810  0.00  0.00    +0.008 C 
ATOM     16  C   UNL     1       4.589  -4.750  -9.336  0.00  0.00    +0.008 C 
ATOM     17  C   UNL     1       3.765  -5.099  -8.076  0.00  0.00    +0.093 C 
ENDBRANCH   3   5
BRANCH   1  18
ATOM     18  C   UNL     1       3.714  -0.702  -0.041  0.00  0.00    +0.223 C 
BRANCH  18  22
ATOM     19  C   UNL     1      -0.018   1.375   0.013  0.00  0.00    +0.000 A 
ATOM     20  C   UNL     1       1.168   2.085  -0.004  0.00  0.00    +0.000 A 
ATOM     21  C   UNL     1       2.376   1.413  -0.021  0.00  0.00    +0.006 A 
ATOM     22  C   UNL     1       2.397   0.031  -0.021  0.00  0.00    -0.014 A 
ATOM     23  C   UNL     1       1.212  -0.679  -0.003  0.00  0.00    +0.006 A 
ATOM     24  C   UNL     1       0.004  -0.007   0.012  0.00  0.00    +0.000 A 
ENDBRANCH  18  22
BRANCH  18  25
ATOM     25  N   UNL     1       3.823  -1.542   1.154  0.00  0.00    -0.255 N 
ATOM     26  C   UNL     1       3.336  -2.793   1.292  0.00  0.00    +0.109 A 
ATOM     27  C   UNL     1       3.644  -3.221   2.539  0.00  0.00    +0.041 A 
ATOM     28  C   UNL     1       4.344  -2.196   3.184  0.00  0.00    +0.134 A 
ATOM     29  N   UNL     1       4.457  -1.192   2.353  0.00  0.00    -0.179 NA
ENDBRANCH  18  25
ENDBRANCH   1  18
TORSDOF 4
