REMARK  Name = ZINC39201175
REMARK  10 active torsions:
REMARK  status: ('A' for Active; 'I' for Inactive)
REMARK    1  A    between atoms: C_1  and  C_2
REMARK    2  A    between atoms: C_2  and  C_4
REMARK    3  A    between atoms: C_2  and  N_8
REMARK    4  A    between atoms: C_4  and  C_5
REMARK    5  A    between atoms: C_5  and  C_6
REMARK    6  A    between atoms: C_5  and  C_7
REMARK    7  A    between atoms: C_9  and  C_11
REMARK    8  A    between atoms: C_29  and  N_32
REMARK    9  A    between atoms: C_33  and  C_35
REMARK   10  A    between atoms: C_35  and  N_36
REMARK                            x       y       z     vdW  Elec       q    Type
REMARK                         _______ _______ _______ _____ _____    ______ ____
ROOT
ATOM      1  C   UNL     1      -3.465  -1.164  -1.134  0.00  0.00    +0.167 C 
ATOM      2  C   UNL     1      -3.492  -2.587  -0.552  0.00  0.00    +0.069 C 
ATOM      3  C   UNL     1      -2.942  -3.553  -1.571  0.00  0.00    -0.015 A 
ATOM      4  C   UNL     1      -2.394  -4.875  -1.335  0.00  0.00    +0.003 A 
ATOM      5  C   UNL     1      -2.204  -5.625  -0.171  0.00  0.00    +0.010 A 
ATOM      6  C   UNL     1      -1.646  -6.871  -0.320  0.00  0.00    +0.001 A 
ATOM      7  C   UNL     1      -1.283  -7.371  -1.560  0.00  0.00    +0.002 A 
ATOM      8  C   UNL     1      -1.459  -6.649  -2.728  0.00  0.00    +0.026 A 
ATOM      9  C   UNL     1      -2.025  -5.382  -2.607  0.00  0.00    +0.047 A 
ATOM     10  N   UNL     1      -2.331  -4.424  -3.530  0.00  0.00    -0.356 N 
ATOM     11  C   UNL     1      -2.874  -3.334  -2.904  0.00  0.00    +0.041 A 
ATOM     12  H   UNL     1      -2.187  -4.504  -4.486  0.00  0.00    +0.166 HD
ATOM     13  C   UNL     1      -3.327  -2.052  -3.558  0.00  0.00    +0.126 C 
ATOM     14  N   UNL     1      -3.981  -1.238  -2.511  0.00  0.00    -0.280 N 
ATOM     15  C   UNL     1      -5.088  -0.650  -2.986  0.00  0.00    +0.237 C 
ATOM     16  O   UNL     1      -5.782   0.127  -2.364  0.00  0.00    -0.274 OA
ATOM     17  C   UNL     1      -5.347  -1.093  -4.410  0.00  0.00    +0.161 C 
ATOM     18  C   UNL     1      -4.416  -2.332  -4.609  0.00  0.00    +0.060 C 
ENDROOT
BRANCH   1  20
ATOM     19  N   UNL     1      -1.372  -0.511   0.012  0.00  0.00    -0.311 N 
ATOM     20  C   UNL     1      -2.051  -0.643  -1.145  0.00  0.00    +0.234 C 
ATOM     21  O   UNL     1      -1.524  -0.341  -2.194  0.00  0.00    -0.274 OA
ATOM     22  H   UNL     1      -1.794  -0.752   0.852  0.00  0.00    +0.149 HD
BRANCH  19  24
ATOM     23  C   UNL     1      -0.019   1.526   0.010  0.00  0.00    +0.028 C 
ATOM     24  C   UNL     1       0.002  -0.004   0.002  0.00  0.00    +0.070 C 
BRANCH  24  25
ATOM     25  C   UNL     1       0.742  -0.511   1.242  0.00  0.00    +0.025 C 
BRANCH  25  26
ATOM     26  C   UNL     1       0.872  -2.034   1.171  0.00  0.00    -0.015 C 
ATOM     27  C   UNL     1       1.760  -2.415  -0.015  0.00  0.00    +0.007 C 
ATOM     28  C   UNL     1       1.500  -2.553   2.466  0.00  0.00    +0.007 C 
ENDBRANCH  25  26
ENDBRANCH  24  25
ENDBRANCH  19  24
ENDBRANCH   1  20
BRANCH  17  29
ATOM     29  N   UNL     1      -4.983  -0.032  -5.352  0.00  0.00    -0.305 N 
ATOM     30  C   UNL     1      -5.877   0.927  -5.666  0.00  0.00    +0.197 C 
ATOM     31  O   UNL     1      -6.983   0.910  -5.169  0.00  0.00    -0.278 OA
ATOM     32  H   UNL     1      -4.098  -0.018  -5.749  0.00  0.00    +0.149 HD
BRANCH  30  33
ATOM     33  C   UNL     1      -5.502   2.019  -6.635  0.00  0.00    +0.019 C 
BRANCH  33  34
ATOM     34  N   UNL     1      -6.640   2.931  -6.809  0.00  0.00    +0.385 N 
ATOM     35  C   UNL     1      -6.878   3.696  -5.558  0.00  0.00    -0.078 C 
ATOM     36  C   UNL     1      -7.662   4.940  -6.048  0.00  0.00    -0.020 C 
ATOM     37  C   UNL     1      -6.993   5.258  -7.405  0.00  0.00    -0.020 C 
ATOM     38  C   UNL     1      -6.331   3.939  -7.846  0.00  0.00    -0.078 C 
ATOM     39  H   UNL     1      -7.467   2.412  -7.063  0.00  0.00    -0.081 HD
ENDBRANCH  33  34
ENDBRANCH  30  33
ENDBRANCH  17  29
TORSDOF 7
