REMARK  Name = ZINC36264947
REMARK  6 active torsions:
REMARK  status: ('A' for Active; 'I' for Inactive)
REMARK    1  A    between atoms: C_1  and  C_2
REMARK    2  A    between atoms: C_5  and  C_19
REMARK    3  A    between atoms: C_6  and  S_9
REMARK    4  A    between atoms: S_9  and  N_12
REMARK    5  A    between atoms: N_12  and  C_13
REMARK    6  A    between atoms: C_16  and  N_18
REMARK                            x       y       z     vdW  Elec       q    Type
REMARK                         _______ _______ _______ _____ _____    ______ ____
ROOT
ATOM      1  S   UNL     1       0.647  -3.039   2.472  0.00  0.00    +0.060 S 
ATOM      2  O   UNL     1       1.351  -4.191   2.029  0.00  0.00    -0.153 OA
ATOM      3  O   UNL     1       1.238  -2.067   3.324  0.00  0.00    -0.153 OA
ENDROOT
BRANCH   1   9
ATOM      4  C   UNL     1      -1.082   1.263   0.053  0.00  0.00    +0.045 C 
ATOM      5  C   UNL     1      -0.673  -0.185  -0.033  0.00  0.00    -0.029 A 
ATOM      6  C   UNL     1      -0.715  -0.843  -1.248  0.00  0.00    +0.025 A 
ATOM      7  C   UNL     1      -0.339  -2.172  -1.327  0.00  0.00    +0.046 A 
ATOM      8  C   UNL     1       0.077  -2.843  -0.190  0.00  0.00    -0.004 A 
ATOM      9  C   UNL     1       0.118  -2.185   1.024  0.00  0.00    +0.128 A 
ATOM     10  C   UNL     1      -0.252  -0.854   1.102  0.00  0.00    +0.070 A 
ATOM     11 CL   UNL     1      -0.193  -0.025   2.627  0.00  0.00    -0.081 Cl
ATOM     12  C   UNL     1       0.485  -4.291  -0.276  0.00  0.00    +0.047 C 
ATOM     13 CL   UNL     1      -0.392  -3.000  -2.852  0.00  0.00    -0.083 Cl
ENDBRANCH   1   9
BRANCH   1  14
ATOM     14  N   UNL     1      -0.713  -3.582   3.245  0.00  0.00    -0.188 NA
ATOM     15  H   UNL     1      -0.917  -3.273   4.141  0.00  0.00    +0.148 HD
BRANCH  14  16
ATOM     16  C   UNL     1      -1.607  -4.529   2.575  0.00  0.00    +0.061 C 
ATOM     17  C   UNL     1      -2.343  -5.545   3.450  0.00  0.00    +0.004 C 
ATOM     18  C   UNL     1      -3.109  -4.378   2.822  0.00  0.00    -0.055 C 
BRANCH  18  19
ATOM     19  N   UNL     1      -4.014  -4.683   1.706  0.00  0.00    +0.381 N 
ATOM     20  H   UNL     1      -3.886  -5.643   1.421  0.00  0.00    -0.090 HD
ATOM     21  H   UNL     1      -4.969  -4.545   1.999  0.00  0.00    -0.090 HD
ATOM     22  H   UNL     1      -3.809  -4.072   0.929  0.00  0.00    -0.090 HD
ENDBRANCH  18  19
ENDBRANCH  14  16
ENDBRANCH   1  14
TORSDOF 4
