REMARK  Name = ZINC63708627
REMARK  10 active torsions:
REMARK  status: ('A' for Active; 'I' for Inactive)
REMARK    1  A    between atoms: C_1  and  C_2
REMARK    2  A    between atoms: C_4  and  N_8
REMARK    3  A    between atoms: C_9  and  C_11
REMARK    4  A    between atoms: C_11  and  S_12
REMARK    5  A    between atoms: S_12  and  C_13
REMARK    6  A    between atoms: C_18  and  C_31
REMARK    7  A    between atoms: N_24  and  C_25
REMARK    8  A    between atoms: C_25  and  C_26
REMARK    9  A    between atoms: N_33  and  C_34
REMARK   10  A    between atoms: C_34  and  C_35
REMARK                            x       y       z     vdW  Elec       q    Type
REMARK                         _______ _______ _______ _____ _____    ______ ____
ROOT
ATOM      1  C   UNL     1      -2.860  -7.353   3.444  0.00  0.00    +0.223 C 
ATOM      2  N   UNL     1      -1.692  -7.397   4.330  0.00  0.00    -0.317 N 
ATOM      3  C   UNL     1      -1.290  -6.228   4.968  0.00  0.00    +0.042 A 
ATOM      4  C   UNL     1       0.032  -6.006   5.311  0.00  0.00    +0.036 A 
ATOM      5  C   UNL     1       0.385  -4.824   5.959  0.00  0.00    +0.038 A 
ATOM      6  C   UNL     1      -0.589  -3.868   6.260  0.00  0.00    +0.014 A 
ATOM      7  C   UNL     1      -1.906  -4.084   5.915  0.00  0.00    +0.015 A 
ATOM      8  C   UNL     1      -2.266  -5.261   5.264  0.00  0.00    +0.058 A 
ATOM      9  C   UNL     1      -3.661  -5.519   4.856  0.00  0.00    +0.251 C 
ATOM     10  O   UNL     1      -4.556  -4.790   5.236  0.00  0.00    -0.270 OA
ATOM     11  N   UNL     1      -3.931  -6.568   4.059  0.00  0.00    -0.263 N 
ATOM     12  H   UNL     1      -1.208  -8.226   4.469  0.00  0.00    +0.149 HD
ENDROOT
BRANCH   5  13
ATOM     13  C   UNL     1       1.798  -4.579   6.329  0.00  0.00    +0.244 C 
ATOM     14  O   UNL     1       2.647  -5.408   6.068  0.00  0.00    -0.270 OA
ATOM     15  N   UNL     1       2.142  -3.436   6.956  0.00  0.00    -0.304 N 
ATOM     16  H   UNL     1       1.464  -2.774   7.164  0.00  0.00    +0.149 HD
BRANCH  15  17
ATOM     17  C   UNL     1       3.539  -3.194   7.322  0.00  0.00    +0.179 C 
BRANCH  17  18
ATOM     18  C   UNL     1       3.655  -1.855   8.005  0.00  0.00    +0.122 A 
ATOM     19  C   UNL     1       3.550  -1.636   9.329  0.00  0.00    +0.046 A 
ATOM     20  C   UNL     1       3.722  -0.247   9.528  0.00  0.00    +0.041 A 
ATOM     21  C   UNL     1       3.921   0.299   8.315  0.00  0.00    +0.195 A 
ATOM     22  O   UNL     1       3.885  -0.680   7.397  0.00  0.00    -0.466 OA
ENDBRANCH  17  18
ENDBRANCH  15  17
ENDBRANCH   5  13
BRANCH   1  23
ATOM     23  S   UNL     1      -2.389  -6.593   1.865  0.00  0.00    -0.110 S 
BRANCH  23  24
ATOM     24  C   UNL     1      -1.828  -4.931   2.329  0.00  0.00    +0.168 C 
BRANCH  24  26
ATOM     25  N   UNL     1      -0.946  -2.918   1.194  0.00  0.00    -0.288 N 
ATOM     26  C   UNL     1      -1.402  -4.182   1.093  0.00  0.00    +0.225 C 
ATOM     27  O   UNL     1      -1.470  -4.717   0.006  0.00  0.00    -0.275 OA
ATOM     28  H   UNL     1      -0.891  -2.491   2.063  0.00  0.00    +0.151 HD
BRANCH  25  32
ATOM     29  C   UNL     1      -0.018   1.503   0.010  0.00  0.00    +0.067 C 
ATOM     30  C   UNL     1       0.002  -0.004   0.002  0.00  0.00    +0.060 C 
ATOM     31  C   UNL     1      -1.086  -0.777   0.003  0.00  0.00    +0.045 C 
ATOM     32  C   UNL     1      -0.531  -2.190  -0.007  0.00  0.00    +0.239 C 
ATOM     33  N   UNL     1       0.926  -1.973  -0.013  0.00  0.00    -0.160 NA
ATOM     34  N   UNL     1       1.125  -0.756  -0.013  0.00  0.00    -0.157 NA
ENDBRANCH  25  32
ENDBRANCH  24  26
ENDBRANCH  23  24
ENDBRANCH   1  23
BRANCH  11  35
ATOM     35  C   UNL     1      -5.327  -6.929   3.801  0.00  0.00    +0.185 C 
BRANCH  35  36
ATOM     36  C   UNL     1      -5.791  -7.916   4.842  0.00  0.00    +0.122 A 
ATOM     37  C   UNL     1      -6.367  -7.607   6.017  0.00  0.00    +0.046 A 
ATOM     38  C   UNL     1      -6.638  -8.830   6.674  0.00  0.00    +0.041 A 
ATOM     39  C   UNL     1      -6.210  -9.812   5.861  0.00  0.00    +0.195 A 
ATOM     40  O   UNL     1      -5.703  -9.253   4.750  0.00  0.00    -0.466 OA
ENDBRANCH  35  36
ENDBRANCH  11  35
TORSDOF 9
