REMARK  Name = ZINC12995459
REMARK  10 active torsions:
REMARK  status: ('A' for Active; 'I' for Inactive)
REMARK    1  A    between atoms: C_1  and  C_2
REMARK    2  A    between atoms: C_2  and  N_3
REMARK    3  A    between atoms: N_3  and  C_4
REMARK    4  A    between atoms: N_3  and  S_6
REMARK    5  A    between atoms: C_4  and  C_5
REMARK    6  A    between atoms: S_6  and  C_9
REMARK    7  A    between atoms: C_13  and  N_15
REMARK    8  A    between atoms: C_16  and  C_18
REMARK    9  A    between atoms: C_18  and  N_19
REMARK   10  A    between atoms: C_27  and  C_29
REMARK                            x       y       z     vdW  Elec       q    Type
REMARK                         _______ _______ _______ _____ _____    ______ ____
ROOT
ATOM      1  N   UNL     1       4.235  -3.520  -1.825  0.00  0.00    -0.284 N 
ATOM      2  C   UNL     1       5.444  -3.748  -2.374  0.00  0.00    +0.235 C 
ATOM      3  O   UNL     1       5.945  -2.919  -3.103  0.00  0.00    -0.274 OA
ATOM      4  H   UNL     1       3.868  -4.147  -1.182  0.00  0.00    +0.155 HD
ENDROOT
BRANCH   1   9
ATOM      5  C   UNL     1       2.881  -0.744  -3.820  0.00  0.00    +0.107 A 
ATOM      6  C   UNL     1       2.074  -0.120  -2.887  0.00  0.00    +0.028 A 
ATOM      7  C   UNL     1       1.976  -0.627  -1.604  0.00  0.00    +0.004 A 
ATOM      8  C   UNL     1       2.692  -1.753  -1.248  0.00  0.00    +0.023 A 
ATOM      9  C   UNL     1       3.508  -2.379  -2.182  0.00  0.00    +0.035 A 
ATOM     10  C   UNL     1       3.600  -1.870  -3.471  0.00  0.00    +0.051 A 
BRANCH   5  11
ATOM     11  S   UNL     1       2.998  -0.098  -5.455  0.00  0.00    +0.061 S 
ATOM     12  O   UNL     1       4.244  -0.539  -5.979  0.00  0.00    -0.153 OA
ATOM     13  O   UNL     1       2.652   1.278  -5.374  0.00  0.00    -0.153 OA
BRANCH  11  14
ATOM     14  N   UNL     1       1.819  -0.831  -6.357  0.00  0.00    -0.177 NA
BRANCH  14  16
ATOM     15  C   UNL     1      -0.432  -0.862  -5.401  0.00  0.00    +0.022 C 
ATOM     16  C   UNL     1       0.486  -0.229  -6.448  0.00  0.00    +0.106 C 
ENDBRANCH  14  16
BRANCH  14  17
ATOM     17  C   UNL     1       2.108  -2.080  -7.064  0.00  0.00    +0.106 C 
ATOM     18  C   UNL     1       2.508  -1.769  -8.508  0.00  0.00    +0.022 C 
ENDBRANCH  14  17
ENDBRANCH  11  14
ENDBRANCH   5  11
ENDBRANCH   1   9
BRANCH   2  19
ATOM     19  C   UNL     1       6.174  -5.034  -2.081  0.00  0.00    +0.214 C 
BRANCH  19  20
ATOM     20  N   UNL     1       7.456  -5.040  -2.791  0.00  0.00    -0.215 N 
ATOM     21  C   UNL     1       7.630  -5.526  -4.037  0.00  0.00    +0.247 C 
ATOM     22  O   UNL     1       6.789  -6.022  -4.756  0.00  0.00    -0.273 OA
ATOM     23  C   UNL     1       9.094  -5.320  -4.350  0.00  0.00    +0.115 C 
ATOM     24  C   UNL     1       9.262  -4.395  -5.550  0.00  0.00    +0.035 C 
ATOM     25  C   UNL     1       8.664  -5.056  -6.795  0.00  0.00    +0.003 C 
ATOM     26  C   UNL     1       9.372  -6.387  -7.054  0.00  0.00    +0.000 C 
ATOM     27  C   UNL     1       9.175  -7.313  -5.852  0.00  0.00    +0.006 C 
ATOM     28  C   UNL     1       9.774  -6.661  -4.603  0.00  0.00    +0.018 C 
ATOM     29  C   UNL     1       9.559  -7.578  -3.397  0.00  0.00    +0.010 C 
ATOM     30  N   UNL     1       9.633  -4.692  -3.137  0.00  0.00    -0.285 N 
ATOM     31  C   UNL     1       8.600  -4.568  -2.282  0.00  0.00    +0.310 C 
ATOM     32  O   UNL     1       8.697  -4.082  -1.172  0.00  0.00    -0.252 OA
ATOM     33  H   UNL     1      10.551  -4.420  -2.983  0.00  0.00    +0.151 HD
ENDBRANCH  19  20
ENDBRANCH   2  19
TORSDOF 7
