REMARK  Name = ZINC11855691
REMARK  9 active torsions:
REMARK  status: ('A' for Active; 'I' for Inactive)
REMARK    1  A    between atoms: C_1  and  C_2
REMARK    2  A    between atoms: C_2  and  O_3
REMARK    3  A    between atoms: O_3  and  C_4
REMARK    4  A    between atoms: C_4  and  C_6
REMARK    5  A    between atoms: N_8  and  C_9
REMARK    6  A    between atoms: C_11  and  C_25
REMARK    7  A    between atoms: C_20  and  C_22
REMARK    8  A    between atoms: C_22  and  C_23
REMARK    9  A    between atoms: C_22  and  C_24
REMARK                            x       y       z     vdW  Elec       q    Type
REMARK                         _______ _______ _______ _____ _____    ______ ____
ROOT
ATOM      1  C   UNL     1       0.011   1.387   0.004  0.00  0.00    +0.133 A 
ATOM      2  C   UNL     1       1.076   2.228   0.028  0.00  0.00    +0.074 A 
ATOM      3  C   UNL     1       0.583   3.550   0.036  0.00  0.00    +0.102 A 
ATOM      4  N   UNL     1      -0.734   3.498   0.017  0.00  0.00    -0.162 NA
ATOM      5  N   UNL     1      -1.122   2.152  -0.009  0.00  0.00    -0.185 N 
ATOM      6  C   UNL     1      -2.420   1.681  -0.039  0.00  0.00    +0.234 A 
ATOM      7  N   UNL     1      -3.448   2.565  -0.150  0.00  0.00    -0.291 N 
ATOM      8  H   UNL     1      -3.268   3.516  -0.208  0.00  0.00    +0.172 HD
ATOM      9  C   UNL     1      -4.719   2.112  -0.185  0.00  0.00    +0.253 A 
ATOM     10  O   UNL     1      -5.654   2.890  -0.288  0.00  0.00    -0.268 OA
ATOM     11  C   UNL     1      -4.947   0.726  -0.094  0.00  0.00    +0.093 A 
ATOM     12  C   UNL     1      -3.875  -0.110   0.021  0.00  0.00    +0.053 A 
ATOM     13  N   UNL     1      -2.640   0.387   0.045  0.00  0.00    -0.217 NA
ENDROOT
BRANCH   3  14
ATOM     14  C   UNL     1       1.401   4.780   0.060  0.00  0.00    +0.039 A 
ATOM     15  C   UNL     1       0.994   6.088   0.069  0.00  0.00    +0.018 A 
ATOM     16  C   UNL     1       1.950   7.079   0.093  0.00  0.00    +0.008 A 
ATOM     17  C   UNL     1       3.263   6.732   0.107  0.00  0.00    +0.046 A 
ATOM     18  S   UNL     1       3.178   4.949   0.094  0.00  0.00    -0.095 S 
ENDBRANCH   3  14
BRANCH   1  21
ATOM     19  C   UNL     1       1.248  -0.631  -0.132  0.00  0.00    +0.327 C 
ATOM     20  O   UNL     1       2.271   0.015  -0.227  0.00  0.00    -0.263 OA
ATOM     21  N   UNL     1       0.062  -0.002  -0.011  0.00  0.00    -0.261 N 
ATOM     22  H   UNL     1      -0.755  -0.519   0.065  0.00  0.00    +0.157 HD
BRANCH  19  23
ATOM     23  C   UNL     1       1.303  -2.123  -0.148  0.00  0.00    +0.395 C 
ATOM     24  O   UNL     1       0.281  -2.769  -0.052  0.00  0.00    -0.240 OA
BRANCH  23  25
ATOM     25  O   UNL     1       2.487  -2.751  -0.268  0.00  0.00    -0.458 OA
BRANCH  25  27
ATOM     26  C   UNL     1       3.893  -4.734  -0.419  0.00  0.00    +0.048 C 
ATOM     27  C   UNL     1       2.466  -4.203  -0.276  0.00  0.00    +0.229 C 
ENDBRANCH  25  27
ENDBRANCH  23  25
ENDBRANCH  19  23
ENDBRANCH   1  21
BRANCH  12  28
ATOM     28  C   UNL     1      -4.089  -1.598   0.120  0.00  0.00    +0.032 C 
ATOM     29  C   UNL     1      -3.387  -2.294  -1.048  0.00  0.00    +0.014 C 
ATOM     30  C   UNL     1      -3.510  -2.110   1.441  0.00  0.00    +0.014 C 
ENDBRANCH  12  28
TORSDOF 6
