REMARK  Name = ZINC12630860
REMARK  12 active torsions:
REMARK  status: ('A' for Active; 'I' for Inactive)
REMARK    1  A    between atoms: C_1  and  O_2
REMARK    2  A    between atoms: O_2  and  C_3
REMARK    3  A    between atoms: C_3  and  C_4
REMARK    4  A    between atoms: C_4  and  N_5
REMARK    5  A    between atoms: C_9  and  S_30
REMARK    6  A    between atoms: N_14  and  C_15
REMARK    7  A    between atoms: C_15  and  C_17
REMARK    8  A    between atoms: C_17  and  C_18
REMARK    9  A    between atoms: C_18  and  C_19
REMARK   10  A    between atoms: C_19  and  S_20
REMARK   11  A    between atoms: S_20  and  C_23
REMARK   12  A    between atoms: S_30  and  N_33
REMARK                            x       y       z     vdW  Elec       q    Type
REMARK                         _______ _______ _______ _____ _____    ______ ____
ROOT
ATOM      1  N   UNL     1      -7.254   5.382   5.981  0.00  0.00    -0.319 N 
ATOM      2  C   UNL     1      -8.476   6.024   5.913  0.00  0.00    +0.058 A 
ATOM      3  C   UNL     1      -9.299   6.446   6.970  0.00  0.00    +0.029 A 
ATOM      4  C   UNL     1     -10.497   7.071   6.721  0.00  0.00    +0.030 A 
ATOM      5  C   UNL     1     -10.930   7.305   5.426  0.00  0.00    +0.106 A 
ATOM      6  C   UNL     1     -10.139   6.899   4.365  0.00  0.00    +0.045 A 
ATOM      7  C   UNL     1      -8.940   6.274   4.613  0.00  0.00    +0.041 A 
ATOM      8  S   UNL     1      -7.652   5.611   3.587  0.00  0.00    -0.052 S 
ATOM      9  C   UNL     1      -6.592   5.051   4.841  0.00  0.00    +0.166 A 
ATOM     10  N   UNL     1      -5.416   4.440   4.716  0.00  0.00    -0.156 NA
ENDROOT
BRANCH   5  11
ATOM     11  S   UNL     1     -12.470   8.108   5.132  0.00  0.00    +0.056 S 
ATOM     12  O   UNL     1     -12.892   7.715   3.834  0.00  0.00    -0.153 OA
ATOM     13  O   UNL     1     -13.267   7.894   6.290  0.00  0.00    -0.153 OA
BRANCH  11  14
ATOM     14  N   UNL     1     -12.168   9.735   5.059  0.00  0.00    -0.204 NA
ATOM     15  H   UNL     1     -12.723  10.307   4.507  0.00  0.00    +0.144 HD
ATOM     16  H   UNL     1     -11.435  10.115   5.569  0.00  0.00    +0.144 HD
ENDBRANCH  11  14
ENDBRANCH   5  11
BRANCH  10  17
ATOM     17  C   UNL     1      -4.922   4.191   3.508  0.00  0.00    +0.238 C 
ATOM     18  O   UNL     1      -5.544   4.521   2.516  0.00  0.00    -0.274 OA
BRANCH  17  19
ATOM     19  C   UNL     1      -3.591   3.498   3.366  0.00  0.00    +0.099 C 
BRANCH  19  20
ATOM     20  C   UNL     1      -3.257   3.334   1.883  0.00  0.00    +0.032 C 
BRANCH  20  21
ATOM     21  C   UNL     1      -1.905   2.632   1.739  0.00  0.00    +0.172 C 
BRANCH  21  22
ATOM     22  S   UNL     1      -1.509   2.437  -0.020  0.00  0.00    -0.003 S 
ATOM     23  O   UNL     1      -1.266   3.706  -0.611  0.00  0.00    -0.169 OA
ATOM     24  O   UNL     1      -2.406   1.516  -0.625  0.00  0.00    -0.169 OA
BRANCH  22  25
ATOM     25  C   UNL     1       0.054   1.623  -0.045  0.00  0.00    +0.088 A 
ATOM     26  C   UNL     1       1.220   2.367  -0.053  0.00  0.00    +0.030 A 
ATOM     27  C   UNL     1       2.446   1.730  -0.079  0.00  0.00    +0.040 A 
ATOM     28  C   UNL     1       2.507   0.347  -0.095  0.00  0.00    +0.124 A 
ATOM     29  C   UNL     1       1.339  -0.397  -0.087  0.00  0.00    +0.040 A 
ATOM     30  C   UNL     1       0.114   0.242  -0.062  0.00  0.00    +0.030 A 
ATOM     31  F   UNL     1       3.705  -0.277  -0.119  0.00  0.00    -0.205 F 
ENDBRANCH  22  25
ENDBRANCH  21  22
ENDBRANCH  20  21
ENDBRANCH  19  20
ENDBRANCH  17  19
ENDBRANCH  10  17
BRANCH   1  32
ATOM     32  C   UNL     1      -6.668   5.061   7.285  0.00  0.00    +0.152 C 
BRANCH  32  33
ATOM     33  C   UNL     1      -5.950   3.712   7.204  0.00  0.00    +0.181 C 
BRANCH  33  35
ATOM     34  C   UNL     1      -4.807   2.083   8.540  0.00  0.00    +0.194 C 
ATOM     35  O   UNL     1      -5.495   3.336   8.505  0.00  0.00    -0.381 OA
ENDBRANCH  33  35
ENDBRANCH  32  33
ENDBRANCH   1  32
TORSDOF 11
