REMARK  Name = ZINC40154716
REMARK  5 active torsions:
REMARK  status: ('A' for Active; 'I' for Inactive)
REMARK    1  A    between atoms: C_6  and  C_7
REMARK    2  A    between atoms: N_10  and  C_14
REMARK    3  A    between atoms: C_14  and  C_15
REMARK    4  A    between atoms: C_15  and  C_16
REMARK    5  A    between atoms: N_18  and  N_19
REMARK                            x       y       z     vdW  Elec       q    Type
REMARK                         _______ _______ _______ _____ _____    ______ ____
ROOT
ATOM      1  C   UNL     1      -5.001  -3.553  -4.091  0.00  0.00    +0.231 C 
ATOM      2  O   UNL     1      -4.237  -3.379  -5.018  0.00  0.00    -0.274 OA
ATOM      3  N   UNL     1      -6.197  -4.136  -4.305  0.00  0.00    -0.224 N 
ATOM      4  H   UNL     1      -6.808  -4.275  -3.564  0.00  0.00    +0.174 HD
ENDROOT
BRANCH   3   5
ATOM      5  N   UNL     1      -6.558  -4.543  -5.596  0.00  0.00    -0.137 N 
ATOM      6  C   UNL     1      -7.442  -3.888  -6.377  0.00  0.00    +0.263 C 
ATOM      7  O   UNL     1      -8.052  -2.876  -6.107  0.00  0.00    -0.271 OA
ATOM      8  C   UNL     1      -7.511  -4.683  -7.661  0.00  0.00    +0.114 C 
ATOM      9  C   UNL     1      -8.925  -5.208  -7.886  0.00  0.00    +0.035 C 
ATOM     10  C   UNL     1      -8.966  -6.035  -9.174  0.00  0.00    +0.003 C 
ATOM     11  C   UNL     1      -8.535  -5.160 -10.353  0.00  0.00    +0.000 C 
ATOM     12  C   UNL     1      -7.107  -4.660 -10.125  0.00  0.00    +0.003 C 
ATOM     13  C   UNL     1      -7.059  -3.829  -8.840  0.00  0.00    +0.035 C 
ATOM     14  N   UNL     1      -6.577  -5.795  -7.443  0.00  0.00    -0.284 N 
ATOM     15  C   UNL     1      -6.064  -5.625  -6.210  0.00  0.00    +0.326 C 
ATOM     16  O   UNL     1      -5.247  -6.373  -5.708  0.00  0.00    -0.251 OA
ATOM     17  H   UNL     1      -6.369  -6.509  -8.066  0.00  0.00    +0.151 HD
ENDBRANCH   3   5
BRANCH   1  18
ATOM     18  C   UNL     1      -4.613  -3.116  -2.703  0.00  0.00    +0.112 C 
BRANCH  18  19
ATOM     19  C   UNL     1      -3.218  -2.488  -2.737  0.00  0.00    +0.094 C 
BRANCH  19  22
ATOM     20  C   UNL     1      -1.293  -0.775   0.011  0.00  0.00    +0.162 C 
ATOM     21  C   UNL     1      -1.617  -1.246  -1.409  0.00  0.00    +0.120 C 
ATOM     22  N   UNL     1      -2.839  -2.062  -1.383  0.00  0.00    -0.297 NA
ATOM     23  C   UNL     1      -2.673  -3.221  -0.493  0.00  0.00    +0.112 C 
ATOM     24  C   UNL     1      -2.338  -2.730   0.918  0.00  0.00    +0.176 C 
ATOM     25  O   UNL     1      -1.166  -1.912   0.868  0.00  0.00    -0.369 OA
BRANCH  20  31
ATOM     26  C   UNL     1      -0.017   1.378   0.010  0.00  0.00    +0.007 A 
ATOM     27  C   UNL     1       1.171   2.086   0.002  0.00  0.00    +0.020 A 
ATOM     28  C   UNL     1       2.378   1.410  -0.013  0.00  0.00    +0.041 A 
ATOM     29  C   UNL     1       2.396   0.027  -0.021  0.00  0.00    +0.020 A 
ATOM     30  C   UNL     1       1.208  -0.679  -0.013  0.00  0.00    +0.007 A 
ATOM     31  C   UNL     1       0.002  -0.004   0.002  0.00  0.00    -0.018 A 
ATOM     32 CL   UNL     1       3.870   2.298  -0.023  0.00  0.00    -0.084 Cl
ENDBRANCH  20  31
ENDBRANCH  19  22
ENDBRANCH  18  19
ENDBRANCH   1  18
TORSDOF 5
