REMARK  Name = ZINC39689216
REMARK  5 active torsions:
REMARK  status: ('A' for Active; 'I' for Inactive)
REMARK    1  A    between atoms: C_9  and  C_12
REMARK    2  A    between atoms: C_16  and  C_25
REMARK    3  A    between atoms: N_27  and  C_28
REMARK    4  A    between atoms: C_28  and  C_29
REMARK    5  A    between atoms: N_32  and  C_35
REMARK                            x       y       z     vdW  Elec       q    Type
REMARK                         _______ _______ _______ _____ _____    ______ ____
ROOT
ATOM      1  C   UNL     1       5.032  -2.688   0.034  0.00  0.00    +0.260 C 
ATOM      2  O   UNL     1       5.912  -2.063   0.587  0.00  0.00    -0.271 OA
ATOM      3  N   UNL     1       5.250  -3.960  -0.353  0.00  0.00    -0.297 N 
ATOM      4  C   UNL     1       4.310  -4.874  -1.043  0.00  0.00    +0.121 C 
ATOM      5  C   UNL     1       5.183  -5.634  -2.066  0.00  0.00    +0.100 C 
ATOM      6  C   UNL     1       6.610  -5.558  -1.497  0.00  0.00    -0.004 C 
ATOM      7  C   UNL     1       6.489  -4.759  -0.192  0.00  0.00    +0.115 C 
ATOM      8  C   UNL     1       7.529  -4.829  -2.472  0.00  0.00    -0.010 C 
ATOM      9  C   UNL     1       8.954  -4.816  -1.910  0.00  0.00    -0.082 C 
ATOM     10  N   UNL     1       9.415  -6.195  -1.710  0.00  0.00    +0.379 N 
ATOM     11  C   UNL     1       8.581  -6.861  -0.702  0.00  0.00    -0.082 C 
ATOM     12  C   UNL     1       7.141  -6.960  -1.212  0.00  0.00    -0.010 C 
ATOM     13  H   UNL     1       9.353  -6.699  -2.582  0.00  0.00    -0.086 HD
ATOM     14  H   UNL     1      10.374  -6.186  -1.398  0.00  0.00    -0.086 HD
ENDROOT
BRANCH   1  23
ATOM     15  C   UNL     1       0.116   1.296   0.544  0.00  0.00    +0.004 A 
ATOM     16  C   UNL     1       1.295   2.013   0.466  0.00  0.00    +0.004 A 
ATOM     17  C   UNL     1       2.503   1.351   0.349  0.00  0.00    +0.049 A 
ATOM     18  C   UNL     1       2.534  -0.035   0.308  0.00  0.00    +0.163 A 
ATOM     19  C   UNL     1       1.349  -0.756   0.383  0.00  0.00    +0.162 A 
ATOM     20  C   UNL     1       0.140  -0.085   0.503  0.00  0.00    +0.049 A 
ATOM     21  O   UNL     1       1.357  -2.116   0.337  0.00  0.00    -0.484 OA
ATOM     22  C   UNL     1       2.609  -2.761   0.591  0.00  0.00    +0.283 C 
ATOM     23  C   UNL     1       3.695  -2.042  -0.221  0.00  0.00    +0.296 C 
ATOM     24  O   UNL     1       3.732  -0.672   0.195  0.00  0.00    -0.473 OA
ENDBRANCH   1  23
BRANCH   5  25
ATOM     25  C   UNL     1       4.735  -7.069  -2.175  0.00  0.00    +0.218 C 
ATOM     26  O   UNL     1       4.249  -7.627  -1.214  0.00  0.00    -0.275 OA
ATOM     27  N   UNL     1       4.874  -7.732  -3.340  0.00  0.00    -0.315 N 
ATOM     28  H   UNL     1       5.263  -7.285  -4.109  0.00  0.00    +0.149 HD
BRANCH  27  29
ATOM     29  C   UNL     1       4.438  -9.126  -3.446  0.00  0.00    +0.107 C 
BRANCH  29  30
ATOM     30  C   UNL     1       4.706  -9.638  -4.863  0.00  0.00    +0.003 C 
ATOM     31  C   UNL     1       3.830  -8.873  -5.859  0.00  0.00    -0.014 C 
ATOM     32  C   UNL     1       4.044  -9.443  -7.262  0.00  0.00    -0.078 C 
ATOM     33  N   UNL     1       3.678 -10.865  -7.278  0.00  0.00    +0.382 N 
ATOM     34  C   UNL     1       4.562 -11.616  -6.379  0.00  0.00    -0.078 C 
ATOM     35  C   UNL     1       4.368 -11.130  -4.941  0.00  0.00    -0.014 C 
ATOM     36  H   UNL     1       2.722 -10.968  -6.972  0.00  0.00    -0.081 HD
BRANCH  33  37
ATOM     37  C   UNL     1       3.811 -11.388  -8.644  0.00  0.00    -0.069 C 
ATOM     38  C   UNL     1       2.829 -10.662  -9.586  0.00  0.00    -0.015 C 
ATOM     39  C   UNL     1       2.349 -11.767 -10.559  0.00  0.00    -0.002 C 
ATOM     40  C   UNL     1       2.231 -13.006  -9.638  0.00  0.00    -0.002 C 
ATOM     41  C   UNL     1       3.431 -12.879  -8.677  0.00  0.00    -0.015 C 
ENDBRANCH  33  37
ENDBRANCH  29  30
ENDBRANCH  27  29
ENDBRANCH   5  25
TORSDOF 5
