REMARK  Name = ZINC36591475
REMARK  13 active torsions:
REMARK  status: ('A' for Active; 'I' for Inactive)
REMARK    1  A    between atoms: C_1  and  C_2
REMARK    2  A    between atoms: C_2  and  C_3
REMARK    3  A    between atoms: C_3  and  C_4
REMARK    4  A    between atoms: C_4  and  N_5
REMARK    5  A    between atoms: C_6  and  C_8
REMARK    6  A    between atoms: C_8  and  C_10
REMARK    7  A    between atoms: C_8  and  N_20
REMARK    8  A    between atoms: C_12  and  N_17
REMARK    9  A    between atoms: N_20  and  C_30
REMARK   10  A    between atoms: C_21  and  C_23
REMARK   11  A    between atoms: C_30  and  C_31
REMARK   12  A    between atoms: C_30  and  C_32
REMARK   13  A    between atoms: C_30  and  C_33
REMARK                            x       y       z     vdW  Elec       q    Type
REMARK                         _______ _______ _______ _____ _____    ______ ____
ROOT
ATOM      1  C   UNL     1       1.093  -4.371   4.740  0.00  0.00    +0.194 C 
ENDROOT
BRANCH   1   2
ATOM      2  C   UNL     1       1.955  -4.137   5.954  0.00  0.00    +0.002 A 
ATOM      3  C   UNL     1       3.203  -4.725   6.038  0.00  0.00    +0.040 A 
ATOM      4  C   UNL     1       3.995  -4.511   7.151  0.00  0.00    +0.127 A 
ATOM      5  C   UNL     1       3.538  -3.708   8.180  0.00  0.00    +0.034 A 
ATOM      6  C   UNL     1       2.291  -3.120   8.097  0.00  0.00    +0.022 A 
ATOM      7  C   UNL     1       1.501  -3.329   6.980  0.00  0.00    +0.047 A 
ATOM      8 CL   UNL     1      -0.064  -2.584   6.871  0.00  0.00    -0.083 Cl
BRANCH   4   9
ATOM      9  N   UNL     1       5.331  -5.141   7.241  0.00  0.00    +0.056 N 
ATOM     10  O   UNL     1       5.730  -5.843   6.341  0.00  0.00    -0.126 OA
ATOM     11  O   UNL     1       6.023  -4.954   8.215  0.00  0.00    -0.126 OA
ENDBRANCH   4   9
ENDBRANCH   1   2
BRANCH   1  13
ATOM     12  N   UNL     1       1.173  -1.954   4.219  0.00  0.00    -0.313 N 
ATOM     13  C   UNL     1       1.259  -3.225   3.777  0.00  0.00    +0.238 C 
ATOM     14  O   UNL     1       1.470  -3.445   2.603  0.00  0.00    -0.273 OA
ATOM     15  H   UNL     1       1.004  -1.778   5.158  0.00  0.00    +0.149 HD
BRANCH  12  16
ATOM     16  C   UNL     1       1.335  -0.840   3.283  0.00  0.00    +0.104 C 
BRANCH  16  17
ATOM     17  C   UNL     1       1.193   0.484   4.036  0.00  0.00    +0.018 C 
BRANCH  17  19
ATOM     18  C   UNL     1       1.220   2.973   3.811  0.00  0.00    +0.004 C 
ATOM     19  C   UNL     1       1.362   1.648   3.058  0.00  0.00    -0.002 C 
ENDBRANCH  17  19
ENDBRANCH  16  17
ENDBRANCH  12  16
ENDBRANCH   1  13
BRANCH   1  20
ATOM     20  N   UNL     1       1.495  -5.620   4.088  0.00  0.00    -0.279 N 
ATOM     21  C   UNL     1       2.686  -5.699   3.461  0.00  0.00    +0.237 C 
ATOM     22  O   UNL     1       3.332  -4.692   3.258  0.00  0.00    -0.274 OA
BRANCH  21  23
ATOM     23  C   UNL     1       3.213  -7.037   3.011  0.00  0.00    +0.159 C 
ATOM     24  C   UNL     1       4.155  -7.628   4.084  0.00  0.00    +0.041 C 
ATOM     25  C   UNL     1       5.537  -7.140   3.593  0.00  0.00    +0.098 C 
ATOM     26  C   UNL     1       5.349  -6.927   2.107  0.00  0.00    +0.214 C 
ATOM     27  O   UNL     1       6.250  -6.817   1.301  0.00  0.00    -0.276 OA
ATOM     28  N   UNL     1       4.038  -6.879   1.808  0.00  0.00    -0.304 N 
ATOM     29  H   UNL     1       3.683  -6.756   0.913  0.00  0.00    +0.149 HD
ENDBRANCH  21  23
BRANCH  20  30
ATOM     30  C   UNL     1       0.605  -6.782   4.118  0.00  0.00    +0.030 C 
ATOM     31  C   UNL     1      -0.676  -6.425   4.876  0.00  0.00    +0.031 C 
ATOM     32  C   UNL     1       0.253  -7.192   2.687  0.00  0.00    +0.031 C 
ATOM     33  C   UNL     1       1.306  -7.944   4.824  0.00  0.00    +0.031 C 
ENDBRANCH  20  30
ENDBRANCH   1  20
TORSDOF 9
