REMARK  Name = ZINC63244201
REMARK  7 active torsions:
REMARK  status: ('A' for Active; 'I' for Inactive)
REMARK    1  A    between atoms: C_1  and  C_2
REMARK    2  A    between atoms: C_4  and  C_27
REMARK    3  A    between atoms: C_5  and  S_23
REMARK    4  A    between atoms: C_7  and  C_8
REMARK    5  A    between atoms: N_10  and  C_11
REMARK    6  A    between atoms: N_18  and  C_20
REMARK    7  A    between atoms: S_23  and  N_26
REMARK                            x       y       z     vdW  Elec       q    Type
REMARK                         _______ _______ _______ _____ _____    ______ ____
ROOT
ATOM      1  C   UNL     1       0.242   0.021   2.481  0.00  0.00    +0.245 C 
ATOM      2  O   UNL     1       0.135   1.232   2.503  0.00  0.00    -0.270 OA
ATOM      3  N   UNL     1       0.465  -0.656   3.625  0.00  0.00    -0.308 N 
ATOM      4  H   UNL     1       0.551  -1.622   3.607  0.00  0.00    +0.149 HD
ENDROOT
BRANCH   3   5
ATOM      5  C   UNL     1       0.578   0.065   4.891  0.00  0.00    +0.076 C 
ATOM      6  C   UNL     1       2.017   0.536   5.113  0.00  0.00    -0.007 C 
ATOM      7  C   UNL     1       2.963  -0.659   5.076  0.00  0.00    +0.003 C 
ATOM      8  C   UNL     1       2.597  -1.718   6.106  0.00  0.00    +0.001 C 
ATOM      9  C   UNL     1       1.118  -2.071   6.088  0.00  0.00    +0.003 C 
ATOM     10  C   UNL     1       0.212  -0.850   6.061  0.00  0.00    -0.007 C 
ATOM     11  C   UNL     1       0.298  -0.056   7.360  0.00  0.00    -0.073 C 
ATOM     12  N   UNL     1       1.616   0.535   7.575  0.00  0.00    +0.382 N 
ATOM     13  C   UNL     1       2.112   1.292   6.431  0.00  0.00    -0.073 C 
ATOM     14  H   UNL     1       2.278  -0.175   7.842  0.00  0.00    -0.081 HD
BRANCH  12  15
ATOM     15  C   UNL     1       1.518   1.453   8.717  0.00  0.00    -0.069 C 
ATOM     16  C   UNL     1       2.541   1.292   9.843  0.00  0.00    -0.017 C 
ATOM     17  C   UNL     1       1.088   0.865  10.062  0.00  0.00    -0.017 C 
ENDBRANCH  12  15
ENDBRANCH   3   5
BRANCH   1  24
ATOM     18  C   UNL     1      -0.511   1.452   0.082  0.00  0.00    +0.044 C 
ATOM     19  C   UNL     1      -0.234  -0.028   0.036  0.00  0.00    -0.038 A 
ATOM     20  C   UNL     1      -0.334  -0.714  -1.157  0.00  0.00    +0.009 A 
ATOM     21  C   UNL     1      -0.080  -2.073  -1.200  0.00  0.00    -0.024 A 
ATOM     22  C   UNL     1       0.275  -2.754  -0.049  0.00  0.00    +0.109 A 
ATOM     23  C   UNL     1       0.378  -2.080   1.150  0.00  0.00    +0.042 A 
ATOM     24  C   UNL     1       0.128  -0.708   1.200  0.00  0.00    +0.041 A 
ATOM     25  C   UNL     1      -0.190  -2.815  -2.507  0.00  0.00    +0.046 C 
BRANCH  22  26
ATOM     26  S   UNL     1       0.595  -4.486  -0.115  0.00  0.00    +0.056 S 
ATOM     27  O   UNL     1       1.487  -4.692  -1.202  0.00  0.00    -0.153 OA
ATOM     28  O   UNL     1       0.903  -4.893   1.211  0.00  0.00    -0.153 OA
BRANCH  26  29
ATOM     29  N   UNL     1      -0.827  -5.231  -0.521  0.00  0.00    -0.204 NA
ATOM     30  H   UNL     1      -0.813  -6.062  -1.021  0.00  0.00    +0.144 HD
ATOM     31  H   UNL     1      -1.674  -4.836  -0.260  0.00  0.00    +0.144 HD
ENDBRANCH  26  29
ENDBRANCH  22  26
ENDBRANCH   1  24
TORSDOF 5
