REMARK  Name = ZINC21740560
REMARK  9 active torsions:
REMARK  status: ('A' for Active; 'I' for Inactive)
REMARK    1  A    between atoms: C_1  and  C_2
REMARK    2  A    between atoms: C_2  and  C_4
REMARK    3  A    between atoms: C_2  and  O_16
REMARK    4  A    between atoms: N_6  and  C_7
REMARK    5  A    between atoms: C_12  and  N_13
REMARK    6  A    between atoms: O_16  and  C_17
REMARK    7  A    between atoms: C_17  and  C_19
REMARK    8  A    between atoms: C_23  and  N_24
REMARK    9  A    between atoms: C_25  and  C_27
REMARK                            x       y       z     vdW  Elec       q    Type
REMARK                         _______ _______ _______ _____ _____    ______ ____
ROOT
ATOM      1  O   UNL     1       0.688  -0.440   1.159  0.00  0.00    -0.449 OA
ENDROOT
BRANCH   1   3
ATOM      2  C   UNL     1      -0.049   1.561   0.021  0.00  0.00    +0.062 C 
ATOM      3  C   UNL     1      -0.009   0.032   0.003  0.00  0.00    +0.259 C 
BRANCH   3   4
ATOM      4  C   UNL     1      -1.416  -0.508   0.010  0.00  0.00    +0.258 C 
ATOM      5  O   UNL     1      -1.814  -1.150   0.958  0.00  0.00    -0.271 OA
ATOM      6  N   UNL     1      -2.231  -0.276  -1.038  0.00  0.00    -0.281 N 
ATOM      7  H   UNL     1      -1.935   0.291  -1.767  0.00  0.00    +0.155 HD
BRANCH   6   8
ATOM      8  C   UNL     1      -3.505  -0.855  -1.075  0.00  0.00    +0.064 A 
ATOM      9  C   UNL     1      -4.229  -1.018   0.099  0.00  0.00    +0.025 A 
ATOM     10  C   UNL     1      -5.486  -1.589   0.059  0.00  0.00    +0.002 A 
ATOM     11  C   UNL     1      -6.023  -1.999  -1.147  0.00  0.00    +0.002 A 
ATOM     12  C   UNL     1      -5.304  -1.839  -2.317  0.00  0.00    +0.034 A 
ATOM     13  C   UNL     1      -4.049  -1.263  -2.285  0.00  0.00    +0.147 A 
BRANCH  13  14
ATOM     14  N   UNL     1      -3.283  -1.085  -3.539  0.00  0.00    +0.058 N 
ATOM     15  O   UNL     1      -3.794  -1.350  -4.602  0.00  0.00    -0.126 OA
ATOM     16  O   UNL     1      -2.146  -0.676  -3.500  0.00  0.00    -0.126 OA
ENDBRANCH  13  14
ENDBRANCH   6   8
ENDBRANCH   3   4
ENDBRANCH   1   3
BRANCH   1  17
ATOM     17  C   UNL     1       2.021  -0.608   1.044  0.00  0.00    +0.343 C 
ATOM     18  O   UNL     1       2.577  -0.360  -0.010  0.00  0.00    -0.245 OA
BRANCH  17  19
ATOM     19  C   UNL     1       2.800  -1.088   2.187  0.00  0.00    +0.091 A 
ATOM     20  C   UNL     1       3.028  -2.506   2.405  0.00  0.00    -0.021 A 
ATOM     21  C   UNL     1       3.764  -2.785   3.502  0.00  0.00    -0.004 A 
ATOM     22  S   UNL     1       4.133  -1.206   4.209  0.00  0.00    -0.077 S 
ATOM     23  C   UNL     1       3.356  -0.208   3.104  0.00  0.00    +0.086 A 
ATOM     24  C   UNL     1       4.167  -4.140   3.995  0.00  0.00    +0.043 C 
ATOM     25  C   UNL     1       3.303  -5.190   3.280  0.00  0.00    +0.005 C 
ATOM     26  C   UNL     1       3.302  -4.890   1.778  0.00  0.00    +0.005 C 
ATOM     27  C   UNL     1       2.504  -3.613   1.503  0.00  0.00    +0.037 C 
BRANCH  23  28
ATOM     28  N   UNL     1       3.284   1.176   3.108  0.00  0.00    -0.280 N 
ATOM     29  C   UNL     1       3.890   1.879   4.086  0.00  0.00    +0.214 C 
ATOM     30  O   UNL     1       4.497   1.300   4.962  0.00  0.00    -0.276 OA
ATOM     31  C   UNL     1       3.812   3.384   4.091  0.00  0.00    +0.109 C 
ATOM     32  H   UNL     1       2.799   1.639   2.408  0.00  0.00    +0.155 HD
ENDBRANCH  23  28
ENDBRANCH  17  19
ENDBRANCH   1  17
TORSDOF 7
