REMARK  Name = ZINC09613921
REMARK  8 active torsions:
REMARK  status: ('A' for Active; 'I' for Inactive)
REMARK    1  A    between atoms: C_1  and  N_2
REMARK    2  A    between atoms: C_6  and  C_8
REMARK    3  A    between atoms: C_8  and  N_10
REMARK    4  A    between atoms: N_11  and  C_12
REMARK    5  A    between atoms: C_12  and  C_14
REMARK    6  A    between atoms: C_17  and  C_20
REMARK    7  A    between atoms: C_20  and  O_21
REMARK    8  A    between atoms: O_21  and  C_22
REMARK                            x       y       z     vdW  Elec       q    Type
REMARK                         _______ _______ _______ _____ _____    ______ ____
ROOT
ATOM      1  C   UNL     1       2.969  -5.342   3.493  0.00  0.00    +0.283 C 
ATOM      2  O   UNL     1       3.160  -5.922   2.441  0.00  0.00    -0.267 OA
ENDROOT
BRANCH   1   3
ATOM      3  C   UNL     1       3.472  -5.920   4.758  0.00  0.00    +0.040 A 
ATOM      4  C   UNL     1       3.250  -5.259   5.968  0.00  0.00    +0.013 A 
ATOM      5  C   UNL     1       3.721  -5.804   7.144  0.00  0.00    +0.008 A 
ATOM      6  C   UNL     1       4.412  -7.003   7.127  0.00  0.00    -0.010 A 
ATOM      7  C   UNL     1       4.636  -7.662   5.931  0.00  0.00    +0.008 A 
ATOM      8  C   UNL     1       4.166  -7.132   4.748  0.00  0.00    +0.013 A 
BRANCH   6   9
ATOM      9  C   UNL     1       4.924  -7.592   8.416  0.00  0.00    +0.264 C 
BRANCH   9  10
ATOM     10  O   UNL     1       3.928  -8.448   8.977  0.00  0.00    -0.487 OA
BRANCH  10  11
ATOM     11  C   UNL     1       4.232  -9.064  10.150  0.00  0.00    +0.121 A 
ATOM     12  C   UNL     1       5.463  -8.843  10.751  0.00  0.00    +0.047 A 
ATOM     13  C   UNL     1       5.771  -9.470  11.943  0.00  0.00    +0.023 A 
ATOM     14  C   UNL     1       4.853 -10.317  12.537  0.00  0.00    +0.041 A 
ATOM     15  C   UNL     1       3.625 -10.539  11.939  0.00  0.00    +0.023 A 
ATOM     16  C   UNL     1       3.311  -9.909  10.750  0.00  0.00    +0.047 A 
ATOM     17 CL   UNL     1       5.242 -11.104  14.035  0.00  0.00    -0.084 Cl
ENDBRANCH  10  11
ENDBRANCH   9  10
ENDBRANCH   6   9
ENDBRANCH   1   3
BRANCH   1  19
ATOM     18  N   UNL     1       1.861  -3.668   2.402  0.00  0.00    -0.083 NA
ATOM     19  N   UNL     1       2.300  -4.172   3.506  0.00  0.00    -0.084 NA
BRANCH  18  20
ATOM     20  C   UNL     1       1.192  -2.498   2.415  0.00  0.00    +0.298 C 
ATOM     21  O   UNL     1       1.000  -1.915   3.473  0.00  0.00    -0.265 OA
BRANCH  20  27
ATOM     22  C   UNL     1      -0.018   1.461   0.010  0.00  0.00    +0.157 C 
ATOM     23  N   UNL     1       0.002  -0.004   0.002  0.00  0.00    -0.222 N 
ATOM     24  C   UNL     1       0.006  -0.703  -1.173  0.00  0.00    +0.255 C 
ATOM     25  C   UNL     1       0.514  -2.002  -1.188  0.00  0.00    +0.071 C 
ATOM     26  C   UNL     1       0.923  -2.603  -0.011  0.00  0.00    +0.035 C 
ATOM     27  C   UNL     1       0.714  -1.949   1.213  0.00  0.00    +0.110 C 
ATOM     28  N   UNL     1       0.024  -0.738   1.205  0.00  0.00    -0.257 N 
ATOM     29  O   UNL     1      -0.474  -0.146  -2.301  0.00  0.00    -0.269 OA
ATOM     30  H   UNL     1      -0.428  -0.414   2.000  0.00  0.00    +0.170 HD
ENDBRANCH  20  27
ENDBRANCH  18  20
ENDBRANCH   1  19
TORSDOF 7
