REMARK  Name = ZINC17889484
REMARK  2 active torsions:
REMARK  status: ('A' for Active; 'I' for Inactive)
REMARK    1  A    between atoms: C_10  and  C_13
REMARK    2  A    between atoms: N_14  and  C_15
REMARK                            x       y       z     vdW  Elec       q    Type
REMARK                         _______ _______ _______ _____ _____    ______ ____
ROOT
ATOM      1  C   UNL     1      -0.017   1.384   0.010  0.00  0.00    +0.016 A 
ATOM      2  C   UNL     1       1.165   2.092   0.002  0.00  0.00    +0.016 A 
ATOM      3  C   UNL     1       2.378   1.406  -0.014  0.00  0.00    +0.065 A 
ATOM      4  C   UNL     1       2.401   0.001  -0.029  0.00  0.00    +0.139 A 
ATOM      5  C   UNL     1       1.197  -0.694  -0.017  0.00  0.00    +0.062 A 
ATOM      6  C   UNL     1       0.002  -0.004   0.002  0.00  0.00    +0.021 A 
ATOM      7 BR   UNL     1      -1.629  -0.961   0.018  0.00  0.00    -0.050 Br
ATOM      8  O   UNL     1       3.572  -0.664  -0.061  0.00  0.00    -0.462 OA
ATOM      9  C   UNL     1       4.728  -0.071   0.223  0.00  0.00    +0.208 A 
ATOM     10  C   UNL     1       4.867   1.302   0.260  0.00  0.00    +0.075 A 
ATOM     11  C   UNL     1       3.668   2.126  -0.014  0.00  0.00    +0.201 A 
ATOM     12  O   UNL     1       3.740   3.322  -0.226  0.00  0.00    -0.286 OA
ENDROOT
BRANCH  10  13
ATOM     13  C   UNL     1       6.158   1.924   0.559  0.00  0.00    +0.128 C 
ATOM     14  N   UNL     1       7.206   1.175   0.797  0.00  0.00    -0.235 NA
BRANCH  14  15
ATOM     15  C   UNL     1       8.405   1.753   1.075  0.00  0.00    +0.160 A 
ATOM     16  C   UNL     1       9.536   0.952   1.327  0.00  0.00    +0.118 A 
ATOM     17  C   UNL     1      10.726   1.562   1.603  0.00  0.00    +0.254 A 
ATOM     18  O   UNL     1      11.832   0.825   1.849  0.00  0.00    -0.268 OA
ATOM     19  N   UNL     1      10.785   2.927   1.627  0.00  0.00    -0.301 N 
ATOM     20  H   UNL     1      11.626   3.371   1.822  0.00  0.00    +0.171 HD
ATOM     21  C   UNL     1       9.684   3.659   1.382  0.00  0.00    +0.182 A 
ATOM     22  S   UNL     1       9.785   5.368   1.418  0.00  0.00    -0.011 S 
ATOM     23  N   UNL     1       8.519   3.081   1.106  0.00  0.00    -0.204 NA
ENDBRANCH  14  15
ENDBRANCH  10  13
TORSDOF 2
