REMARK  Name = ZINC09379512
REMARK  8 active torsions:
REMARK  status: ('A' for Active; 'I' for Inactive)
REMARK    1  A    between atoms: C_1  and  C_2
REMARK    2  A    between atoms: C_5  and  S_8
REMARK    3  A    between atoms: S_8  and  N_11
REMARK    4  A    between atoms: C_15  and  C_17
REMARK    5  A    between atoms: N_19  and  C_20
REMARK    6  A    between atoms: C_20  and  C_21
REMARK    7  A    between atoms: C_21  and  N_22
REMARK    8  A    between atoms: C_23  and  C_31
REMARK                            x       y       z     vdW  Elec       q    Type
REMARK                         _______ _______ _______ _____ _____    ______ ____
ROOT
ATOM      1  C   UNL     1      -1.159   0.300   2.281  0.00  0.00    +0.232 C 
ATOM      2  O   UNL     1      -2.290  -0.108   2.442  0.00  0.00    -0.274 OA
ATOM      3  N   UNL     1      -0.140  -0.249   2.971  0.00  0.00    -0.312 N 
ATOM      4  H   UNL     1       0.764   0.078   2.843  0.00  0.00    +0.149 HD
ENDROOT
BRANCH   1   9
ATOM      5  N   UNL     1      -2.114   2.230   1.127  0.00  0.00    -0.165 NA
ATOM      6  C   UNL     1      -2.523   2.156  -0.288  0.00  0.00    +0.110 C 
ATOM      7  C   UNL     1      -1.225   1.812  -1.059  0.00  0.00    +0.019 C 
ATOM      8  C   UNL     1      -0.524   0.842  -0.072  0.00  0.00    +0.031 C 
ATOM      9  C   UNL     1      -0.894   1.421   1.310  0.00  0.00    +0.165 C 
BRANCH   5  10
ATOM     10  S   UNL     1      -2.894   3.080   2.314  0.00  0.00    +0.062 S 
ATOM     11  O   UNL     1      -4.269   3.108   1.957  0.00  0.00    -0.153 OA
ATOM     12  O   UNL     1      -2.439   2.555   3.554  0.00  0.00    -0.153 OA
BRANCH  10  17
ATOM     13  C   UNL     1      -0.921   8.775   2.025  0.00  0.00    +0.044 C 
ATOM     14  C   UNL     1      -1.414   7.352   2.097  0.00  0.00    -0.050 A 
ATOM     15  C   UNL     1      -2.583   6.992   1.454  0.00  0.00    +0.005 A 
ATOM     16  C   UNL     1      -3.035   5.688   1.520  0.00  0.00    +0.029 A 
ATOM     17  C   UNL     1      -2.318   4.743   2.229  0.00  0.00    +0.106 A 
ATOM     18  C   UNL     1      -1.151   5.104   2.877  0.00  0.00    +0.029 A 
ATOM     19  C   UNL     1      -0.696   6.407   2.806  0.00  0.00    +0.005 A 
ENDBRANCH  10  17
ENDBRANCH   5  10
ENDBRANCH   1   9
BRANCH   3  20
ATOM     20  C   UNL     1      -0.398  -1.339   3.916  0.00  0.00    +0.126 C 
BRANCH  20  21
ATOM     21  C   UNL     1       0.919  -1.777   4.561  0.00  0.00    +0.142 C 
BRANCH  21  22
ATOM     22  N   UNL     1       0.661  -2.867   5.505  0.00  0.00    -0.326 N 
ATOM     23  C   UNL     1       0.375  -2.736   6.828  0.00  0.00    +0.108 A 
ATOM     24  N   UNL     1       0.199  -3.908   7.366  0.00  0.00    -0.233 NA
ATOM     25  C   UNL     1       0.370  -4.872   6.425  0.00  0.00    +0.089 A 
ATOM     26  C   UNL     1       0.669  -4.217   5.218  0.00  0.00    +0.069 A 
ATOM     27  C   UNL     1       0.897  -4.960   4.068  0.00  0.00    +0.028 A 
ATOM     28  C   UNL     1       0.828  -6.336   4.119  0.00  0.00    +0.002 A 
ATOM     29  C   UNL     1       0.534  -6.982   5.311  0.00  0.00    +0.002 A 
ATOM     30  C   UNL     1       0.306  -6.267   6.453  0.00  0.00    +0.030 A 
ATOM     31  C   UNL     1       0.272  -1.425   7.564  0.00  0.00    +0.086 C 
ENDBRANCH  21  22
ENDBRANCH  20  21
ENDBRANCH   3  20
TORSDOF 6
