REMARK  Name = ZINC27987350
REMARK  4 active torsions:
REMARK  status: ('A' for Active; 'I' for Inactive)
REMARK    1  A    between atoms: C_9  and  C_11
REMARK    2  A    between atoms: C_18  and  C_21
REMARK    3  A    between atoms: C_19  and  N_20
REMARK    4  A    between atoms: C_21  and  C_23
REMARK                            x       y       z     vdW  Elec       q    Type
REMARK                         _______ _______ _______ _____ _____    ______ ____
ROOT
ATOM      1  C   UNL     1      -2.799   3.537   0.029  0.00  0.00    +0.064 A 
ATOM      2  C   UNL     1      -3.450   2.286   0.090  0.00  0.00    +0.059 A 
ATOM      3  C   UNL     1      -4.808   1.943   0.132  0.00  0.00    +0.027 A 
ATOM      4  C   UNL     1      -5.166   0.627   0.189  0.00  0.00    +0.003 A 
ATOM      5  C   UNL     1      -4.169  -0.358   0.203  0.00  0.00    +0.018 A 
ATOM      6  C   UNL     1      -2.864  -0.006   0.161  0.00  0.00    +0.092 A 
ATOM      7  N   UNL     1      -2.496   1.306   0.104  0.00  0.00    -0.311 N 
ATOM      8  C   UNL     1      -1.245   1.902   0.054  0.00  0.00    +0.116 A 
ATOM      9  C   UNL     1      -1.417   3.286   0.013  0.00  0.00    +0.065 A 
ENDROOT
BRANCH   1  18
ATOM     10  C   UNL     1      -4.879   9.161  -0.211  0.00  0.00    +0.002 A 
ATOM     11  C   UNL     1      -6.095   8.530   0.002  0.00  0.00    +0.002 A 
ATOM     12  C   UNL     1      -6.159   7.161   0.134  0.00  0.00    +0.030 A 
ATOM     13  C   UNL     1      -4.988   6.400   0.052  0.00  0.00    +0.089 A 
ATOM     14  C   UNL     1      -3.758   7.045  -0.164  0.00  0.00    +0.066 A 
ATOM     15  C   UNL     1      -3.714   8.425  -0.294  0.00  0.00    +0.028 A 
ATOM     16  N   UNL     1      -2.798   6.049  -0.197  0.00  0.00    -0.338 N 
ATOM     17  H   UNL     1      -1.741   6.308  -0.356  0.00  0.00    +0.167 HD
ATOM     18  C   UNL     1      -3.446   4.856  -0.006  0.00  0.00    +0.143 A 
ATOM     19  N   UNL     1      -4.736   5.070   0.135  0.00  0.00    -0.228 NA
ENDBRANCH   1  18
BRANCH   9  20
ATOM     20  N   UNL     1      -0.408   4.239  -0.038  0.00  0.00    -0.356 N 
ATOM     21  H   UNL     1       0.646   3.924  -0.046  0.00  0.00    +0.142 HD
ATOM     22  H   UNL     1      -0.664   5.308  -0.071  0.00  0.00    +0.142 HD
ENDBRANCH   9  20
BRANCH   8  23
ATOM     23  C   UNL     1      -0.011   1.225   0.052  0.00  0.00    +0.212 C 
ATOM     24  O   UNL     1       0.544   0.971  -1.004  0.00  0.00    -0.285 OA
BRANCH  23  25
ATOM     25  C   UNL     1       0.617   0.827   1.331  0.00  0.00    +0.024 A 
ATOM     26  C   UNL     1       0.046   1.218   2.543  0.00  0.00    +0.013 A 
ATOM     27  C   UNL     1       0.632   0.838   3.733  0.00  0.00    +0.021 A 
ATOM     28  C   UNL     1       1.792   0.082   3.726  0.00  0.00    +0.041 A 
ATOM     29  C   UNL     1       2.367  -0.303   2.526  0.00  0.00    +0.021 A 
ATOM     30  C   UNL     1       1.786   0.065   1.331  0.00  0.00    +0.013 A 
ATOM     31 CL   UNL     1       2.529  -0.385   5.227  0.00  0.00    -0.084 Cl
ENDBRANCH  23  25
ENDBRANCH   8  23
TORSDOF 4
