REMARK  Name = ZINC10361108
REMARK  9 active torsions:
REMARK  status: ('A' for Active; 'I' for Inactive)
REMARK    1  A    between atoms: C_1  and  C_2
REMARK    2  A    between atoms: C_4  and  C_27
REMARK    3  A    between atoms: C_6  and  N_8
REMARK    4  A    between atoms: C_9  and  C_26
REMARK    5  A    between atoms: C_10  and  C_22
REMARK    6  A    between atoms: C_11  and  C_16
REMARK    7  A    between atoms: N_19  and  C_21
REMARK    8  A    between atoms: C_22  and  O_24
REMARK    9  A    between atoms: O_24  and  C_25
REMARK                            x       y       z     vdW  Elec       q    Type
REMARK                         _______ _______ _______ _____ _____    ______ ____
ROOT
ATOM      1  N   UNL     1       1.202  -0.693  -0.014  0.00  0.00    -0.255 N 
ATOM      2  C   UNL     1       0.159  -0.017  -0.582  0.00  0.00    +0.027 C 
ATOM      3  C   UNL     1       0.133   1.333  -0.602  0.00  0.00    +0.078 C 
ATOM      4  C   UNL     1       1.298   2.071   0.025  0.00  0.00    +0.144 C 
ATOM      5  N   UNL     1       2.371   1.250   0.610  0.00  0.00    -0.315 N 
ATOM      6  C   UNL     1       2.255  -0.092   0.554  0.00  0.00    +0.142 C 
ATOM      7  S   UNL     1       3.495  -1.059   1.230  0.00  0.00    -0.018 S 
ATOM      8  C   UNL     1      -0.979  -0.791  -1.196  0.00  0.00    +0.062 C 
ATOM      9  H   UNL     1       3.143   1.664   1.026  0.00  0.00    +0.149 HD
ENDROOT
BRANCH   1  15
ATOM     10  C   UNL     1       2.480  -4.940  -2.138  0.00  0.00    +0.044 C 
ATOM     11  C   UNL     1       1.778  -4.177  -1.045  0.00  0.00    -0.048 A 
ATOM     12  C   UNL     1       1.099  -4.859  -0.052  0.00  0.00    +0.006 A 
ATOM     13  C   UNL     1       0.455  -4.162   0.954  0.00  0.00    -0.048 A 
ATOM     14  C   UNL     1       0.487  -2.781   0.969  0.00  0.00    +0.027 A 
ATOM     15  C   UNL     1       1.168  -2.093  -0.027  0.00  0.00    +0.041 A 
ATOM     16  C   UNL     1       1.809  -2.796  -1.038  0.00  0.00    +0.027 A 
ATOM     17  C   UNL     1      -0.283  -4.910   2.034  0.00  0.00    +0.044 C 
ENDBRANCH   1  15
BRANCH   4  18
ATOM     18  C   UNL     1       1.911   2.954  -1.030  0.00  0.00    +0.015 A 
ATOM     19  C   UNL     1       2.797   2.545  -2.033  0.00  0.00    +0.140 A 
ATOM     20  N   UNL     1       3.109   3.590  -2.755  0.00  0.00    -0.180 NA
ATOM     21  N   UNL     1       2.430   4.700  -2.234  0.00  0.00    -0.274 N 
ATOM     22  C   UNL     1       1.698   4.282  -1.180  0.00  0.00    +0.113 A 
ATOM     23  C   UNL     1       2.499   6.070  -2.747  0.00  0.00    +0.172 C 
ENDBRANCH   4  18
BRANCH   3  24
ATOM     24  C   UNL     1      -0.944   2.034  -1.195  0.00  0.00    +0.339 C 
ATOM     25  O   UNL     1      -1.815   1.425  -1.787  0.00  0.00    -0.245 OA
BRANCH  24  26
ATOM     26  O   UNL     1      -1.004   3.379  -1.103  0.00  0.00    -0.465 OA
ATOM     27  C   UNL     1      -2.119   4.022  -1.725  0.00  0.00    +0.280 C 
ENDBRANCH  24  26
ENDBRANCH   3  24
TORSDOF 4
