REMARK  Name = ZINC39468229
REMARK  6 active torsions:
REMARK  status: ('A' for Active; 'I' for Inactive)
REMARK    1  A    between atoms: C_1  and  S_2
REMARK    2  A    between atoms: S_2  and  P_3
REMARK    3  A    between atoms: C_11  and  C_28
REMARK    4  A    between atoms: C_12  and  C_21
REMARK    5  A    between atoms: C_21  and  C_22
REMARK    6  A    between atoms: C_33  and  O_34
REMARK                            x       y       z     vdW  Elec       q    Type
REMARK                         _______ _______ _______ _____ _____    ______ ____
ROOT
ATOM      1  P   UNL     1      -2.048  -0.545   0.019  0.00  0.00    +0.314 P 
ATOM      2  O   UNL     1      -2.721  -0.040  -1.199  0.00  0.00    -0.262 OA
ATOM      3  N   UNL     1      -2.206  -2.184   0.126  0.00  0.00    -0.283 NA
ATOM      4  N   UNL     1      -3.411  -2.686   0.572  0.00  0.00    +0.398 N 
ATOM      5  C   UNL     1      -3.231  -4.143   0.677  0.00  0.00    -0.046 C 
ATOM      6  C   UNL     1      -4.512  -4.818   1.147  0.00  0.00    +0.005 C 
ATOM      7  C   UNL     1      -5.632  -4.560   0.174  0.00  0.00    -0.016 C 
ATOM      8  C   UNL     1      -6.905  -4.661   0.595  0.00  0.00    -0.015 C 
ATOM      9  C   UNL     1      -7.173  -5.037   2.000  0.00  0.00    -0.039 C 
ATOM     10  C   UNL     1      -6.236  -4.854   2.921  0.00  0.00    -0.019 C 
ATOM     11  C   UNL     1      -4.908  -4.262   2.519  0.00  0.00    +0.016 C 
ATOM     12  C   UNL     1      -5.048  -2.743   2.406  0.00  0.00    -0.003 C 
ATOM     13  C   UNL     1      -3.751  -2.119   1.879  0.00  0.00    -0.020 C 
ATOM     14  C   UNL     1      -3.982  -0.605   1.792  0.00  0.00    +0.157 C 
ATOM     15  O   UNL     1      -2.775   0.042   1.351  0.00  0.00    -0.312 OA
ATOM     16  H   UNL     1      -1.476  -2.775  -0.117  0.00  0.00    +0.112 HD
ATOM     17  H   UNL     1      -4.138  -2.467  -0.093  0.00  0.00    -0.055 HD
ENDROOT
BRANCH   8  18
ATOM     18  C   UNL     1      -8.026  -4.399  -0.340  0.00  0.00    +0.024 A 
ATOM     19  C   UNL     1      -8.774  -5.458  -0.850  0.00  0.00    +0.012 A 
ATOM     20  C   UNL     1      -9.816  -5.209  -1.719  0.00  0.00    +0.001 A 
ATOM     21  C   UNL     1     -10.123  -3.910  -2.086  0.00  0.00    +0.004 A 
ATOM     22  C   UNL     1      -9.388  -2.852  -1.585  0.00  0.00    +0.046 A 
ATOM     23  C   UNL     1      -8.342  -3.088  -0.707  0.00  0.00    +0.125 A 
BRANCH  23  24
ATOM     24  O   UNL     1      -7.623  -2.048  -0.210  0.00  0.00    -0.506 OA
ATOM     25  H   UNL     1      -6.858  -1.805  -0.750  0.00  0.00    +0.292 HD
ENDBRANCH  23  24
ENDBRANCH   8  18
BRANCH   1  27
ATOM     26  C   UNL     1      -0.022   1.810   0.012  0.00  0.00    +0.096 C 
ATOM     27  S   UNL     1       0.002  -0.004   0.002  0.00  0.00    -0.059 S 
ENDBRANCH   1  27
BRANCH   9  28
ATOM     28  C   UNL     1      -8.507  -5.625   2.384  0.00  0.00    +0.070 C 
BRANCH  28  29
ATOM     29  C   UNL     1      -9.490  -4.513   2.646  0.00  0.00    -0.043 A 
ATOM     30  C   UNL     1      -9.611  -3.983   3.917  0.00  0.00    +0.004 A 
ATOM     31  C   UNL     1     -10.513  -2.963   4.157  0.00  0.00    +0.000 A 
ATOM     32  C   UNL     1     -11.292  -2.472   3.126  0.00  0.00    +0.000 A 
ATOM     33  C   UNL     1     -11.170  -3.001   1.855  0.00  0.00    +0.000 A 
ATOM     34  C   UNL     1     -10.265  -4.018   1.614  0.00  0.00    +0.004 A 
ENDBRANCH  28  29
ENDBRANCH   9  28
TORSDOF 5
