REMARK  Name = ZINC08801583
REMARK  10 active torsions:
REMARK  status: ('A' for Active; 'I' for Inactive)
REMARK    1  A    between atoms: C_1  and  C_2
REMARK    2  A    between atoms: C_4  and  C_31
REMARK    3  A    between atoms: C_5  and  S_9
REMARK    4  A    between atoms: C_6  and  C_8
REMARK    5  A    between atoms: S_9  and  N_12
REMARK    6  A    between atoms: N_12  and  C_13
REMARK    7  A    between atoms: C_13  and  C_14
REMARK    8  A    between atoms: C_14  and  C_16
REMARK    9  A    between atoms: C_14  and  N_66
REMARK   10  A    between atoms: N_24  and  C_25
REMARK                            x       y       z     vdW  Elec       q    Type
REMARK                         _______ _______ _______ _____ _____    ______ ____
ROOT
ATOM      1  C   UNL     1      -3.342   5.961   0.565  0.00  0.00    -0.022 C 
ENDROOT
BRANCH   1   2
ATOM      2  C   UNL     1      -2.727   4.632   0.923  0.00  0.00    -0.059 A 
ATOM      3  C   UNL     1      -2.971   4.068   2.162  0.00  0.00    +0.004 A 
ATOM      4  C   UNL     1      -2.413   2.850   2.493  0.00  0.00    +0.023 A 
ATOM      5  C   UNL     1      -1.599   2.181   1.581  0.00  0.00    +0.033 A 
ATOM      6  C   UNL     1      -1.356   2.759   0.341  0.00  0.00    -0.025 A 
ATOM      7  C   UNL     1      -1.919   3.975   0.014  0.00  0.00    +0.007 A 
ATOM      8  C   UNL     1      -0.443   1.832  -0.436  0.00  0.00    +0.056 C 
ATOM      9  C   UNL     1       0.111   0.896   0.662  0.00  0.00    +0.109 C 
ATOM     10  N   UNL     1      -0.943   0.946   1.698  0.00  0.00    -0.332 N 
ATOM     11  C   UNL     1      -0.371   0.773   3.040  0.00  0.00    +0.129 C 
ENDBRANCH   1   2
BRANCH   1  17
ATOM     12  C   UNL     1      -4.008   8.108   1.464  0.00  0.00    -0.078 C 
ATOM     13  C   UNL     1      -4.064   8.947   2.742  0.00  0.00    -0.019 C 
ATOM     14  C   UNL     1      -2.638   9.240   3.218  0.00  0.00    -0.004 C 
ATOM     15  C   UNL     1      -1.902   7.916   3.443  0.00  0.00    -0.019 C 
ATOM     16  C   UNL     1      -1.909   7.107   2.145  0.00  0.00    -0.078 C 
ATOM     17  N   UNL     1      -3.309   6.838   1.754  0.00  0.00    +0.385 N 
ATOM     18  H   UNL     1      -3.787   6.365   2.530  0.00  0.00    -0.081 HD
ENDBRANCH   1  17
BRANCH   1  19
ATOM     19  C   UNL     1      -4.797   5.752   0.141  0.00  0.00    +0.095 C 
BRANCH  19  20
ATOM     20  N   UNL     1      -4.841   4.900  -1.050  0.00  0.00    -0.191 NA
ATOM     21  H   UNL     1      -4.040   4.766  -1.580  0.00  0.00    +0.148 HD
BRANCH  20  22
ATOM     22  S   UNL     1      -6.258   4.165  -1.490  0.00  0.00    +0.059 S 
ATOM     23  O   UNL     1      -5.987   3.441  -2.682  0.00  0.00    -0.153 OA
ATOM     24  O   UNL     1      -6.773   3.543  -0.321  0.00  0.00    -0.153 OA
BRANCH  22  29
ATOM     25  C   UNL     1     -10.146   8.534  -2.974  0.00  0.00    +0.044 C 
ATOM     26  C   UNL     1      -9.175   7.443  -2.603  0.00  0.00    -0.050 A 
ATOM     27  C   UNL     1      -9.053   7.044  -1.285  0.00  0.00    +0.008 A 
ATOM     28  C   UNL     1      -8.162   6.043  -0.945  0.00  0.00    -0.024 A 
ATOM     29  C   UNL     1      -7.394   5.441  -1.923  0.00  0.00    +0.111 A 
ATOM     30  C   UNL     1      -7.511   5.843  -3.241  0.00  0.00    -0.024 A 
ATOM     31  C   UNL     1      -8.406   6.840  -3.581  0.00  0.00    +0.008 A 
ATOM     32  C   UNL     1      -6.669   5.190  -4.306  0.00  0.00    +0.046 C 
ATOM     33  C   UNL     1      -8.029   5.609   0.492  0.00  0.00    +0.046 C 
ENDBRANCH  22  29
ENDBRANCH  20  22
ENDBRANCH  19  20
ENDBRANCH   1  19
TORSDOF 6
