REMARK  Name = ZINC39670096
REMARK  6 active torsions:
REMARK  status: ('A' for Active; 'I' for Inactive)
REMARK    1  A    between atoms: C_1  and  C_2
REMARK    2  A    between atoms: C_7  and  C_11
REMARK    3  A    between atoms: C_11  and  N_12
REMARK    4  A    between atoms: C_13  and  C_15
REMARK    5  A    between atoms: C_26  and  C_28
REMARK    6  A    between atoms: C_28  and  C_34
REMARK                            x       y       z     vdW  Elec       q    Type
REMARK                         _______ _______ _______ _____ _____    ______ ____
ROOT
ATOM      1  C   UNL     1       3.165  -7.365   3.711  0.00  0.00    +0.100 C 
ATOM      2  C   UNL     1       3.962  -7.697   2.430  0.00  0.00    +0.121 C 
ATOM      3  N   UNL     1       4.850  -8.817   2.821  0.00  0.00    -0.300 N 
ATOM      4  C   UNL     1       4.011  -9.663   3.702  0.00  0.00    +0.115 C 
ATOM      5  C   UNL     1       3.199  -8.658   4.543  0.00  0.00    -0.004 C 
ATOM      6  C   UNL     1       3.891  -8.408   5.880  0.00  0.00    -0.010 C 
ATOM      7  C   UNL     1       3.862  -9.693   6.712  0.00  0.00    -0.082 C 
ATOM      8  N   UNL     1       2.470 -10.107   6.929  0.00  0.00    +0.379 N 
ATOM      9  C   UNL     1       1.839 -10.434   5.644  0.00  0.00    -0.082 C 
ATOM     10  C   UNL     1       1.783  -9.180   4.767  0.00  0.00    -0.010 C 
ATOM     11  C   UNL     1       6.132  -9.020   2.457  0.00  0.00    +0.222 C 
ATOM     12  O   UNL     1       6.705 -10.034   2.795  0.00  0.00    -0.275 OA
ATOM     13  H   UNL     1       2.451 -10.918   7.528  0.00  0.00    -0.086 HD
ATOM     14  H   UNL     1       1.962  -9.354   7.370  0.00  0.00    -0.086 HD
ENDROOT
BRANCH  11  15
ATOM     15  C   UNL     1       6.854  -7.987   1.631  0.00  0.00    +0.044 C 
ATOM     16  C   UNL     1       6.057  -7.707   0.355  0.00  0.00    +0.016 C 
ATOM     17  C   UNL     1       5.917  -9.000  -0.453  0.00  0.00    +0.001 C 
ATOM     18  C   UNL     1       7.306  -9.523  -0.823  0.00  0.00    +0.000 C 
ATOM     19  C   UNL     1       8.103  -9.803   0.453  0.00  0.00    +0.001 C 
ATOM     20  C   UNL     1       8.243  -8.510   1.260  0.00  0.00    +0.016 C 
ATOM     21  C   UNL     1       6.994  -6.695   2.438  0.00  0.00    +0.021 C 
ENDBRANCH  11  15
BRANCH   1  23
ATOM     22  N   UNL     1       1.000  -6.291   4.237  0.00  0.00    -0.309 N 
ATOM     23  C   UNL     1       1.744  -7.000   3.366  0.00  0.00    +0.219 C 
ATOM     24  O   UNL     1       1.271  -7.345   2.304  0.00  0.00    -0.275 OA
ATOM     25  H   UNL     1       1.379  -6.015   5.086  0.00  0.00    +0.149 HD
BRANCH  22  26
ATOM     26  C   UNL     1      -0.381  -5.936   3.901  0.00  0.00    +0.159 C 
BRANCH  26  33
ATOM     27  C   UNL     1      -3.672  -3.455  10.055  0.00  0.00    +0.044 C 
ATOM     28  C   UNL     1      -2.963  -3.485   8.726  0.00  0.00    -0.046 A 
ATOM     29  C   UNL     1      -2.622  -2.285   8.080  0.00  0.00    +0.021 A 
ATOM     30  C   UNL     1      -1.986  -2.308   6.890  0.00  0.00    +0.093 A 
ATOM     31  N   UNL     1      -1.666  -3.495   6.297  0.00  0.00    -0.308 N 
ATOM     32  C   UNL     1      -1.037  -3.802   5.121  0.00  0.00    +0.115 A 
ATOM     33  C   UNL     1      -0.988  -5.149   5.035  0.00  0.00    +0.051 A 
ATOM     34  N   UNL     1      -1.566  -5.668   6.121  0.00  0.00    -0.342 N 
ATOM     35  C   UNL     1      -1.985  -4.683   6.902  0.00  0.00    +0.116 A 
ATOM     36  C   UNL     1      -2.644  -4.675   8.148  0.00  0.00    +0.048 A 
ATOM     37  H   UNL     1      -1.663  -6.614   6.308  0.00  0.00    +0.167 HD
ENDBRANCH  26  33
ENDBRANCH  22  26
ENDBRANCH   1  23
TORSDOF 4
