REMARK  Name = ZINC15235980
REMARK  8 active torsions:
REMARK  status: ('A' for Active; 'I' for Inactive)
REMARK    1  A    between atoms: C_1  and  C_2
REMARK    2  A    between atoms: C_2  and  C_23
REMARK    3  A    between atoms: N_5  and  C_9
REMARK    4  A    between atoms: C_9  and  C_10
REMARK    5  A    between atoms: C_10  and  C_12
REMARK    6  A    between atoms: C_10  and  O_22
REMARK    7  A    between atoms: C_12  and  O_13
REMARK    8  A    between atoms: O_13  and  C_14
REMARK                            x       y       z     vdW  Elec       q    Type
REMARK                         _______ _______ _______ _____ _____    ______ ____
ROOT
ATOM      1  C   UNL     1      -0.019   1.526   0.010  0.00  0.00    +0.047 C 
ATOM      2  C   UNL     1       0.002  -0.004   0.002  0.00  0.00    +0.135 C 
ATOM      3  C   UNL     1       0.815  -0.520  -1.169  0.00  0.00    +0.251 C 
ATOM      4  O   UNL     1       0.595  -0.342  -2.348  0.00  0.00    -0.272 OA
ATOM      5  N   UNL     1       1.833  -1.217  -0.627  0.00  0.00    -0.221 N 
ATOM      6  C   UNL     1       1.777  -1.214   0.710  0.00  0.00    +0.310 C 
ATOM      7  O   UNL     1       2.586  -1.776   1.421  0.00  0.00    -0.252 OA
ATOM      8  N   UNL     1       0.724  -0.519   1.178  0.00  0.00    -0.281 N 
ATOM      9  H   UNL     1       0.487  -0.383   2.109  0.00  0.00    +0.152 HD
ENDROOT
BRANCH   2  10
ATOM     10  C   UNL     1      -1.401  -0.551  -0.040  0.00  0.00    -0.015 A 
ATOM     11  C   UNL     1      -2.004  -0.815  -1.256  0.00  0.00    +0.007 A 
ATOM     12  C   UNL     1      -3.291  -1.317  -1.295  0.00  0.00    +0.020 A 
ATOM     13  C   UNL     1      -3.976  -1.556  -0.117  0.00  0.00    +0.041 A 
ATOM     14  C   UNL     1      -3.372  -1.293   1.100  0.00  0.00    +0.020 A 
ATOM     15  C   UNL     1      -2.083  -0.796   1.137  0.00  0.00    +0.007 A 
ATOM     16 CL   UNL     1      -5.593  -2.186  -0.165  0.00  0.00    -0.084 Cl
ENDBRANCH   2  10
BRANCH   5  17
ATOM     17  C   UNL     1       2.871  -1.896  -1.406  0.00  0.00    +0.152 C 
BRANCH  17  18
ATOM     18  C   UNL     1       4.037  -0.936  -1.647  0.00  0.00    +0.170 C 
BRANCH  18  19
ATOM     19  O   UNL     1       4.652  -0.610  -0.399  0.00  0.00    -0.387 OA
ATOM     20  H   UNL     1       5.006  -1.374   0.076  0.00  0.00    +0.210 HD
ENDBRANCH  18  19
BRANCH  18  21
ATOM     21  C   UNL     1       5.065  -1.602  -2.564  0.00  0.00    +0.262 C 
BRANCH  21  22
ATOM     22  O   UNL     1       6.096  -0.665  -2.884  0.00  0.00    -0.488 OA
BRANCH  22  23
ATOM     23  C   UNL     1       7.096  -1.100  -3.696  0.00  0.00    +0.139 A 
ATOM     24  C   UNL     1       7.081  -2.400  -4.179  0.00  0.00    +0.048 A 
ATOM     25  C   UNL     1       8.098  -2.841  -5.004  0.00  0.00    +0.023 A 
ATOM     26  C   UNL     1       9.130  -1.987  -5.349  0.00  0.00    +0.043 A 
ATOM     27  C   UNL     1       9.148  -0.690  -4.868  0.00  0.00    +0.043 A 
ATOM     28  C   UNL     1       8.129  -0.243  -4.047  0.00  0.00    +0.084 A 
ATOM     29 CL   UNL     1       8.147   1.387  -3.449  0.00  0.00    -0.080 Cl
ATOM     30 CL   UNL     1      10.407  -2.544  -6.385  0.00  0.00    -0.083 Cl
ENDBRANCH  22  23
ENDBRANCH  21  22
ENDBRANCH  18  21
ENDBRANCH  17  18
ENDBRANCH   5  17
TORSDOF 7
