REMARK  Name = ZINC63222006
REMARK  4 active torsions:
REMARK  status: ('A' for Active; 'I' for Inactive)
REMARK    1  A    between atoms: C_1  and  C_2
REMARK    2  A    between atoms: C_2  and  C_35
REMARK    3  A    between atoms: C_6  and  C_18
REMARK    4  A    between atoms: C_21  and  C_23
REMARK                            x       y       z     vdW  Elec       q    Type
REMARK                         _______ _______ _______ _____ _____    ______ ____
ROOT
ATOM      1  C   UNL     1      -0.019   1.526   0.010  0.00  0.00    +0.011 C 
ATOM      2  C   UNL     1       0.002  -0.004   0.002  0.00  0.00    -0.023 C 
ATOM      3  C   UNL     1      -1.431  -0.540   0.042  0.00  0.00    +0.058 C 
ATOM      4  C   UNL     1      -1.407  -2.050   0.074  0.00  0.00    +0.017 C 
ATOM      5  C   UNL     1      -0.394  -2.715   0.660  0.00  0.00    +0.024 C 
ATOM      6  C   UNL     1      -0.337  -4.225   0.698  0.00  0.00    +0.109 C 
ATOM      7  C   UNL     1      -1.735  -4.815   0.502  0.00  0.00    +0.151 C 
ATOM      8  C   UNL     1      -2.386  -4.070  -0.639  0.00  0.00    +0.106 C 
ATOM      9  N   UNL     1      -2.837  -4.673  -1.695  0.00  0.00    -0.151 NA
ATOM     10  C   UNL     1      -2.738  -5.999  -1.866  0.00  0.00    +0.331 C 
ATOM     11  O   UNL     1      -3.205  -6.505  -2.869  0.00  0.00    -0.250 OA
ATOM     12  N   UNL     1      -2.135  -6.783  -0.958  0.00  0.00    -0.238 N 
ATOM     13  C   UNL     1      -1.636  -6.280   0.189  0.00  0.00    +0.231 C 
ATOM     14  O   UNL     1      -1.093  -7.020   0.981  0.00  0.00    -0.275 OA
ATOM     15  N   UNL     1      -2.466  -2.711  -0.509  0.00  0.00    -0.307 N 
ATOM     16  C   UNL     1       0.674  -2.019   1.263  0.00  0.00    +0.162 C 
ATOM     17  O   UNL     1       1.558  -2.647   1.812  0.00  0.00    -0.292 OA
ATOM     18  C   UNL     1       0.742  -0.518   1.242  0.00  0.00    +0.086 C 
ATOM     19  C   UNL     1       0.705  -0.503  -1.262  0.00  0.00    +0.011 C 
ATOM     20  H   UNL     1      -2.060  -7.735  -1.128  0.00  0.00    +0.159 HD
ATOM     21  H   UNL     1      -3.247  -2.226  -0.818  0.00  0.00    +0.153 HD
ENDROOT
BRANCH   6  22
ATOM     22  C   UNL     1       0.567  -4.718  -0.403  0.00  0.00    +0.114 A 
ATOM     23  C   UNL     1       1.684  -5.454  -0.232  0.00  0.00    +0.046 A 
ATOM     24  C   UNL     1       2.220  -5.695  -1.511  0.00  0.00    +0.052 A 
ATOM     25  C   UNL     1       1.391  -5.085  -2.405  0.00  0.00    +0.160 A 
ATOM     26  O   UNL     1       0.390  -4.501  -1.716  0.00  0.00    -0.457 OA
BRANCH  25  27
ATOM     27  C   UNL     1       1.557  -5.071  -3.865  0.00  0.00    +0.144 A 
ATOM     28  N   UNL     1       2.502  -5.628  -4.596  0.00  0.00    -0.236 NA
ATOM     29  C   UNL     1       2.528  -5.532  -5.939  0.00  0.00    +0.079 A 
ATOM     30  C   UNL     1       3.477  -6.078  -6.836  0.00  0.00    +0.029 A 
ATOM     31  C   UNL     1       3.359  -5.888  -8.177  0.00  0.00    +0.002 A 
ATOM     32  C   UNL     1       2.311  -5.157  -8.720  0.00  0.00    +0.001 A 
ATOM     33  C   UNL     1       1.361  -4.607  -7.879  0.00  0.00    +0.017 A 
ATOM     34  C   UNL     1       1.472  -4.793  -6.523  0.00  0.00    +0.040 A 
ATOM     35  S   UNL     1       0.523  -4.300  -5.104  0.00  0.00    -0.064 S 
ENDBRANCH  25  27
ENDBRANCH   6  22
TORSDOF 2
