REMARK  Name = ZINC14472572
REMARK  2 active torsions:
REMARK  status: ('A' for Active; 'I' for Inactive)
REMARK    1  A    between atoms: C_4  and  C_10
REMARK    2  A    between atoms: C_6  and  N_7
REMARK                            x       y       z     vdW  Elec       q    Type
REMARK                         _______ _______ _______ _____ _____    ______ ____
ROOT
ATOM      1  C   UNL     1       1.101   6.612  -0.405  0.00  0.00    +0.106 C 
ATOM      2  C   UNL     1       2.482   6.798   0.229  0.00  0.00    +0.029 C 
ATOM      3  C   UNL     1       3.268   7.840  -0.621  0.00  0.00    +0.033 C 
ATOM      4  C   UNL     1       3.823   7.013  -1.764  0.00  0.00    -0.030 C 
ATOM      5  C   UNL     1       3.871   5.745  -1.434  0.00  0.00    -0.023 C 
ATOM      6  C   UNL     1       3.352   5.552  -0.029  0.00  0.00    +0.049 C 
ATOM      7  C   UNL     1       2.589   4.271   0.099  0.00  0.00    -0.018 A 
ATOM      8  C   UNL     1       3.296   3.076   0.140  0.00  0.00    +0.026 A 
ATOM      9  C   UNL     1       2.631   1.872   0.259  0.00  0.00    +0.041 A 
ATOM     10  C   UNL     1       1.250   1.842   0.334  0.00  0.00    +0.022 A 
ATOM     11  C   UNL     1       0.537   3.024   0.300  0.00  0.00    +0.024 A 
ATOM     12  C   UNL     1       1.206   4.236   0.179  0.00  0.00    +0.031 A 
ATOM     13  N   UNL     1       0.471   5.419   0.170  0.00  0.00    -0.336 N 
ATOM     14 CL   UNL     1       3.532   0.389   0.307  0.00  0.00    -0.084 Cl
ATOM     15  H   UNL     1      -0.437   5.452   0.512  0.00  0.00    +0.147 HD
ENDROOT
BRANCH   1  19
ATOM     16  C   UNL     1       1.520   6.113  -4.628  0.00  0.00    +0.034 A 
ATOM     17  C   UNL     1       1.274   7.368  -4.102  0.00  0.00    +0.022 A 
ATOM     18  C   UNL     1       1.134   7.529  -2.735  0.00  0.00    +0.046 A 
ATOM     19  C   UNL     1       1.249   6.436  -1.895  0.00  0.00    -0.007 A 
ATOM     20  C   UNL     1       1.495   5.183  -2.421  0.00  0.00    +0.039 A 
ATOM     21  C   UNL     1       1.630   5.021  -3.788  0.00  0.00    +0.127 A 
ATOM     22 CL   UNL     1       0.818   9.103  -2.075  0.00  0.00    -0.083 Cl
BRANCH  21  23
ATOM     23  N   UNL     1       1.894   3.678  -4.351  0.00  0.00    +0.056 N 
ATOM     24  O   UNL     1       1.991   2.715  -3.611  0.00  0.00    -0.126 OA
ATOM     25  O   UNL     1       2.013   3.535  -5.555  0.00  0.00    -0.126 OA
ENDBRANCH  21  23
ENDBRANCH   1  19
TORSDOF 2
