REMARK  Name = ZINC39671536
REMARK  7 active torsions:
REMARK  status: ('A' for Active; 'I' for Inactive)
REMARK    1  A    between atoms: C_1  and  C_2
REMARK    2  A    between atoms: C_4  and  C_7
REMARK    3  A    between atoms: C_9  and  C_14
REMARK    4  A    between atoms: C_10  and  C_13
REMARK    5  A    between atoms: C_18  and  C_27
REMARK    6  A    between atoms: N_29  and  C_30
REMARK    7  A    between atoms: C_30  and  C_31
REMARK                            x       y       z     vdW  Elec       q    Type
REMARK                         _______ _______ _______ _____ _____    ______ ____
ROOT
ATOM      1  C   UNL     1       0.173  -4.658  -1.448  0.00  0.00    +0.247 C 
ATOM      2  O   UNL     1       0.420  -5.264  -2.475  0.00  0.00    -0.270 OA
ATOM      3  N   UNL     1       1.126  -4.514  -0.505  0.00  0.00    -0.296 N 
ATOM      4  C   UNL     1       0.986  -3.914   0.843  0.00  0.00    +0.121 C 
ATOM      5  C   UNL     1       1.845  -4.813   1.761  0.00  0.00    +0.100 C 
ATOM      6  C   UNL     1       2.869  -5.469   0.821  0.00  0.00    -0.004 C 
ATOM      7  C   UNL     1       2.548  -4.927  -0.579  0.00  0.00    +0.115 C 
ATOM      8  C   UNL     1       2.710  -6.987   0.842  0.00  0.00    -0.010 C 
ATOM      9  C   UNL     1       3.776  -7.620  -0.056  0.00  0.00    -0.082 C 
ATOM     10  N   UNL     1       5.111  -7.241   0.424  0.00  0.00    +0.379 N 
ATOM     11  C   UNL     1       5.289  -5.789   0.313  0.00  0.00    -0.082 C 
ATOM     12  C   UNL     1       4.287  -5.078   1.227  0.00  0.00    -0.010 C 
ATOM     13  H   UNL     1       5.210  -7.519   1.389  0.00  0.00    -0.086 HD
ATOM     14  H   UNL     1       5.812  -7.708  -0.132  0.00  0.00    -0.086 HD
ENDROOT
BRANCH   1  16
ATOM     15  C   UNL     1      -2.367  -4.862  -0.870  0.00  0.00    +0.237 C 
ATOM     16  C   UNL     1      -1.113  -4.105  -1.244  0.00  0.00    +0.072 C 
ATOM     17  C   UNL     1      -1.450  -2.805  -1.346  0.00  0.00    +0.047 C 
ATOM     18  N   UNL     1      -2.772  -2.624  -1.085  0.00  0.00    -0.269 N 
ATOM     19  O   UNL     1      -3.393  -3.862  -0.785  0.00  0.00    -0.260 OA
ATOM     20  C   UNL     1      -0.490  -1.700  -1.703  0.00  0.00    +0.066 C 
ATOM     21  H   UNL     1      -3.227  -1.767  -1.102  0.00  0.00    +0.194 HD
BRANCH  15  25
ATOM     22  C   UNL     1      -3.063  -6.242   3.984  0.00  0.00    +0.089 C 
ATOM     23  C   UNL     1      -2.510  -6.138   2.586  0.00  0.00    +0.135 A 
ATOM     24  C   UNL     1      -2.984  -5.347   1.604  0.00  0.00    +0.073 A 
ATOM     25  C   UNL     1      -2.190  -5.546   0.461  0.00  0.00    +0.120 A 
ATOM     26  N   UNL     1      -1.274  -6.426   0.753  0.00  0.00    -0.080 NA
ATOM     27  O   UNL     1      -1.456  -6.812   2.103  0.00  0.00    -0.360 OA
ENDBRANCH  15  25
ENDBRANCH   1  16
BRANCH   5  28
ATOM     28  C   UNL     1       2.545  -3.980   2.804  0.00  0.00    +0.219 C 
ATOM     29  O   UNL     1       2.891  -2.848   2.544  0.00  0.00    -0.275 OA
ATOM     30  N   UNL     1       2.786  -4.495   4.027  0.00  0.00    -0.309 N 
ATOM     31  H   UNL     1       2.509  -5.401   4.235  0.00  0.00    +0.149 HD
BRANCH  30  32
ATOM     32  C   UNL     1       3.466  -3.686   5.041  0.00  0.00    +0.157 C 
BRANCH  32  33
ATOM     33  C   UNL     1       3.612  -4.487   6.308  0.00  0.00    +0.034 A 
ATOM     34  H   UNL     1       1.790  -4.163   7.264  0.00  0.00    +0.166 HD
ATOM     35  C   UNL     1       4.698  -5.199   6.649  0.00  0.00    +0.032 A 
ATOM     36  C   UNL     1       4.415  -5.816   7.948  0.00  0.00    -0.000 A 
ATOM     37  C   UNL     1       5.136  -6.651   8.803  0.00  0.00    +0.010 A 
ATOM     38  C   UNL     1       4.576  -7.065   9.979  0.00  0.00    +0.001 A 
ATOM     39  C   UNL     1       3.296  -6.661  10.330  0.00  0.00    +0.002 A 
ATOM     40  C   UNL     1       2.566  -5.837   9.501  0.00  0.00    +0.026 A 
ATOM     41  C   UNL     1       3.117  -5.404   8.300  0.00  0.00    +0.047 A 
ATOM     42  N   UNL     1       2.659  -4.593   7.285  0.00  0.00    -0.357 N 
ENDBRANCH  32  33
ENDBRANCH  30  32
ENDBRANCH   5  28
TORSDOF 5
