REMARK  Name = ZINC39710525
REMARK  13 active torsions:
REMARK  status: ('A' for Active; 'I' for Inactive)
REMARK    1  A    between atoms: C_1  and  C_2
REMARK    2  A    between atoms: C_2  and  C_3
REMARK    3  A    between atoms: C_10  and  C_15
REMARK    4  A    between atoms: C_15  and  C_17
REMARK    5  A    between atoms: C_15  and  N_27
REMARK    6  A    between atoms: N_22  and  C_23
REMARK    7  A    between atoms: C_23  and  C_24
REMARK    8  A    between atoms: C_23  and  C_25
REMARK    9  A    between atoms: C_23  and  C_26
REMARK   10  A    between atoms: N_27  and  C_28
REMARK   11  A    between atoms: N_27  and  C_36
REMARK   12  A    between atoms: C_28  and  C_29
REMARK   13  A    between atoms: C_36  and  C_37
REMARK                            x       y       z     vdW  Elec       q    Type
REMARK                         _______ _______ _______ _____ _____    ______ ____
ROOT
ATOM      1  C   UNL     1      -6.453  -2.097  -3.029  0.00  0.00    -0.008 C 
ENDROOT
BRANCH   1   9
ATOM      2  C   UNL     1      -3.995  -7.248  -4.247  0.00  0.00    -0.047 A 
ATOM      3  C   UNL     1      -2.804  -6.882  -3.621  0.00  0.00    +0.005 A 
ATOM      4  C   UNL     1      -2.699  -5.781  -2.832  0.00  0.00    +0.024 A 
ATOM      5  C   UNL     1      -3.813  -4.950  -2.611  0.00  0.00    +0.040 A 
ATOM      6  N   UNL     1      -3.698  -3.873  -1.836  0.00  0.00    -0.285 N 
ATOM      7  C   UNL     1      -4.704  -3.051  -1.587  0.00  0.00    +0.223 C 
ATOM      8  O   UNL     1      -4.538  -2.082  -0.870  0.00  0.00    -0.275 OA
ATOM      9  C   UNL     1      -6.061  -3.320  -2.198  0.00  0.00    +0.088 C 
ATOM     10  C   UNL     1      -6.197  -4.545  -3.082  0.00  0.00    -0.006 C 
ATOM     11  C   UNL     1      -5.085  -5.313  -3.260  0.00  0.00    -0.007 A 
ATOM     12  C   UNL     1      -5.126  -6.510  -4.102  0.00  0.00    +0.013 A 
ATOM     13  H   UNL     1      -2.836  -3.682  -1.434  0.00  0.00    +0.155 HD
BRANCH   2  15
ATOM     14  C   UNL     1      -3.670  -8.113  -6.548  0.00  0.00    +0.009 C 
ATOM     15  C   UNL     1      -4.027  -8.485  -5.107  0.00  0.00    +0.032 C 
ENDBRANCH   2  15
ENDBRANCH   1   9
BRANCH   1  16
ATOM     16  C   UNL     1      -5.450  -1.913  -4.170  0.00  0.00    +0.205 C 
ATOM     17  N   UNL     1      -5.419  -3.109  -5.023  0.00  0.00    -0.152 NA
ATOM     18  N   UNL     1      -4.284  -3.589  -4.995  0.00  0.00    -0.070 NA
ATOM     19  N   UNL     1      -3.409  -2.866  -4.184  0.00  0.00    -0.179 N 
ATOM     20  N   UNL     1      -4.077  -1.799  -3.636  0.00  0.00    -0.183 NA
ATOM     21  H   UNL     1      -2.476  -3.083  -4.032  0.00  0.00    +0.191 HD
BRANCH  20  22
ATOM     22  C   UNL     1      -3.460  -0.527  -4.037  0.00  0.00    +0.035 C 
ATOM     23  C   UNL     1      -4.302   0.636  -3.510  0.00  0.00    +0.029 C 
ATOM     24  C   UNL     1      -2.048  -0.440  -3.454  0.00  0.00    +0.029 C 
ATOM     25  C   UNL     1      -3.387  -0.454  -5.563  0.00  0.00    +0.029 C 
ENDBRANCH  20  22
ENDBRANCH   1  16
BRANCH   1  26
ATOM     26  N   UNL     1      -7.798  -2.294  -3.586  0.00  0.00    +0.392 N 
ATOM     27  H   UNL     1      -7.773  -3.033  -4.272  0.00  0.00    -0.080 HD
BRANCH  26  28
ATOM     28  C   UNL     1      -8.251  -1.050  -4.222  0.00  0.00    -0.040 C 
BRANCH  28  29
ATOM     29  C   UNL     1      -7.604  -0.913  -5.576  0.00  0.00    -0.046 A 
ATOM     30  C   UNL     1      -6.847   0.205  -5.870  0.00  0.00    +0.003 A 
ATOM     31  C   UNL     1      -6.253   0.331  -7.112  0.00  0.00    +0.000 A 
ATOM     32  C   UNL     1      -6.417  -0.662  -8.061  0.00  0.00    +0.001 A 
ATOM     33  C   UNL     1      -7.174  -1.780  -7.767  0.00  0.00    +0.020 A 
ATOM     34  C   UNL     1      -7.763  -1.909  -6.522  0.00  0.00    +0.042 A 
ATOM     35 CL   UNL     1      -8.709  -3.317  -6.151  0.00  0.00    -0.083 Cl
ENDBRANCH  28  29
ENDBRANCH  26  28
BRANCH  26  36
ATOM     36  C   UNL     1      -8.726  -2.659  -2.507  0.00  0.00    -0.002 C 
BRANCH  36  37
ATOM     37  C   UNL     1     -10.084  -2.950  -3.090  0.00  0.00    +0.089 A 
ATOM     38  C   UNL     1     -10.546  -4.163  -3.442  0.00  0.00    +0.042 A 
ATOM     39  C   UNL     1     -11.856  -3.975  -3.940  0.00  0.00    +0.041 A 
ATOM     40  C   UNL     1     -12.116  -2.657  -3.863  0.00  0.00    +0.195 A 
ATOM     41  O   UNL     1     -11.042  -2.042  -3.342  0.00  0.00    -0.470 OA
ENDBRANCH  36  37
ENDBRANCH  26  36
ENDBRANCH   1  26
TORSDOF 9
