REMARK  Name = ZINC00903866
REMARK  11 active torsions:
REMARK  status: ('A' for Active; 'I' for Inactive)
REMARK    1  A    between atoms: C_1  and  C_2
REMARK    2  A    between atoms: C_5  and  C_7
REMARK    3  A    between atoms: N_10  and  C_12
REMARK    4  A    between atoms: C_12  and  C_13
REMARK    5  A    between atoms: N_15  and  C_16
REMARK    6  A    between atoms: N_15  and  C_26
REMARK    7  A    between atoms: C_26  and  C_28
REMARK    8  A    between atoms: C_26  and  C_35
REMARK    9  A    between atoms: C_31  and  O_34
REMARK   10  A    between atoms: N_37  and  C_38
REMARK   11  A    between atoms: C_38  and  C_39
REMARK                            x       y       z     vdW  Elec       q    Type
REMARK                         _______ _______ _______ _____ _____    ______ ____
ROOT
ATOM      1  C   UNL     1       5.239  -5.863  -1.923  0.00  0.00    +0.244 C 
ATOM      2  O   UNL     1       4.591  -5.485  -2.876  0.00  0.00    -0.273 OA
ATOM      3  N   UNL     1       6.568  -5.645  -1.883  0.00  0.00    -0.252 N 
ENDROOT
BRANCH   3   4
ATOM      4  C   UNL     1       7.338  -6.204  -0.857  0.00  0.00    +0.056 A 
ATOM      5  C   UNL     1       7.247  -5.709   0.429  0.00  0.00    +0.035 A 
ATOM      6  C   UNL     1       8.042  -6.305   1.425  0.00  0.00    +0.002 A 
ATOM      7  C   UNL     1       8.003  -5.856   2.756  0.00  0.00    +0.010 A 
ATOM      8  C   UNL     1       8.786  -6.457   3.692  0.00  0.00    +0.001 A 
ATOM      9  C   UNL     1       9.627  -7.514   3.348  0.00  0.00    +0.002 A 
ATOM     10  C   UNL     1       9.690  -7.974   2.070  0.00  0.00    +0.028 A 
ATOM     11  C   UNL     1       8.896  -7.379   1.073  0.00  0.00    +0.071 A 
ATOM     12  N   UNL     1       8.939  -7.814  -0.190  0.00  0.00    -0.253 NA
ATOM     13  C   UNL     1       8.201  -7.273  -1.127  0.00  0.00    +0.135 A 
ENDBRANCH   3   4
BRANCH   1  14
ATOM     14  C   UNL     1       4.558  -6.577  -0.784  0.00  0.00    +0.264 C 
BRANCH  14  18
ATOM     15  C   UNL     1       1.065  -6.160  -1.081  0.00  0.00    +0.239 A 
ATOM     16  N   UNL     1       1.252  -7.330  -1.712  0.00  0.00    -0.105 NA
ATOM     17  N   UNL     1       2.514  -7.591  -1.667  0.00  0.00    -0.045 NA
ATOM     18  N   UNL     1       3.117  -6.642  -1.040  0.00  0.00    -0.154 N 
ATOM     19  N   UNL     1       2.255  -5.755  -0.678  0.00  0.00    -0.127 NA
BRANCH  15  24
ATOM     20  C   UNL     1      -2.289  -2.709   0.347  0.00  0.00    +0.086 C 
ATOM     21  C   UNL     1      -1.692  -3.953  -0.259  0.00  0.00    +0.103 A 
ATOM     22  C   UNL     1      -2.377  -4.920  -0.900  0.00  0.00    +0.045 A 
ATOM     23  C   UNL     1      -1.439  -5.892  -1.303  0.00  0.00    +0.053 A 
ATOM     24  C   UNL     1      -0.222  -5.459  -0.881  0.00  0.00    +0.175 A 
ATOM     25  O   UNL     1      -0.390  -4.279  -0.254  0.00  0.00    -0.457 OA
ENDBRANCH  15  24
ENDBRANCH  14  18
ENDBRANCH   1  14
BRANCH   3  26
ATOM     26  C   UNL     1       7.207  -4.823  -2.913  0.00  0.00    +0.197 C 
BRANCH  26  27
ATOM     27  C   UNL     1       8.702  -4.858  -2.728  0.00  0.00    -0.018 A 
ATOM     28  C   UNL     1       9.258  -4.478  -1.520  0.00  0.00    +0.009 A 
ATOM     29  C   UNL     1      10.628  -4.509  -1.349  0.00  0.00    +0.046 A 
ATOM     30  C   UNL     1      11.447  -4.922  -2.389  0.00  0.00    +0.117 A 
ATOM     31  C   UNL     1      10.888  -5.303  -3.600  0.00  0.00    +0.046 A 
ATOM     32  C   UNL     1       9.516  -5.275  -3.765  0.00  0.00    +0.009 A 
BRANCH  30  33
ATOM     33  O   UNL     1      12.796  -4.952  -2.223  0.00  0.00    -0.507 OA
ATOM     34  H   UNL     1      13.131  -5.795  -1.887  0.00  0.00    +0.292 HD
ENDBRANCH  30  33
ENDBRANCH  26  27
BRANCH  26  35
ATOM     35  C   UNL     1       6.720  -3.402  -2.795  0.00  0.00    +0.239 C 
ATOM     36  O   UNL     1       5.918  -3.105  -1.935  0.00  0.00    -0.273 OA
ATOM     37  N   UNL     1       7.175  -2.460  -3.646  0.00  0.00    -0.311 N 
ATOM     38  H   UNL     1       7.816  -2.698  -4.334  0.00  0.00    +0.149 HD
BRANCH  37  39
ATOM     39  C   UNL     1       6.701  -1.079  -3.531  0.00  0.00    +0.135 C 
BRANCH  39  40
ATOM     40  C   UNL     1       7.368  -0.220  -4.607  0.00  0.00    +0.135 C 
ATOM     41  C   UNL     1       6.968   1.259  -4.419  0.00  0.00    +0.035 C 
ATOM     42  C   UNL     1       6.783   1.740  -5.884  0.00  0.00    +0.031 C 
ATOM     43  C   UNL     1       6.226   0.454  -6.547  0.00  0.00    +0.160 C 
ATOM     44  O   UNL     1       6.919  -0.630  -5.904  0.00  0.00    -0.375 OA
ENDBRANCH  39  40
ENDBRANCH  37  39
ENDBRANCH  26  35
ENDBRANCH   3  26
TORSDOF 10
