REMARK  Name = ZINC39533884
REMARK  7 active torsions:
REMARK  status: ('A' for Active; 'I' for Inactive)
REMARK    1  A    between atoms: C_4  and  C_7
REMARK    2  A    between atoms: C_10  and  C_13
REMARK    3  A    between atoms: C_13  and  C_15
REMARK    4  A    between atoms: C_13  and  N_18
REMARK    5  A    between atoms: C_15  and  N_16
REMARK    6  A    between atoms: C_22  and  S_25
REMARK    7  A    between atoms: S_25  and  C_28
REMARK                            x       y       z     vdW  Elec       q    Type
REMARK                         _______ _______ _______ _____ _____    ______ ____
ROOT
ATOM      1  C   UNL     1       7.434  -2.768  -0.085  0.00  0.00    +0.102 C 
ENDROOT
BRANCH   1   2
ATOM      2  N   UNL     1       7.242  -3.943   0.775  0.00  0.00    -0.290 NA
ATOM      3  C   UNL     1       8.484  -4.290   1.479  0.00  0.00    +0.100 C 
ATOM      4  C   UNL     1       8.222  -5.467   2.421  0.00  0.00    +0.098 C 
ATOM      5  N   UNL     1       7.723  -6.611   1.646  0.00  0.00    -0.293 NA
ATOM      6  C   UNL     1       6.480  -6.264   0.942  0.00  0.00    +0.217 C 
ATOM      7  C   UNL     1       6.742  -5.087  -0.001  0.00  0.00    +0.127 C 
ATOM      8  H   UNL     1       8.423  -6.944   1.000  0.00  0.00    +0.124 HD
BRANCH   6   9
ATOM      9  S   UNL     1       5.909  -7.694  -0.018  0.00  0.00    +0.014 S 
ATOM     10  O   UNL     1       4.621  -7.436  -0.559  0.00  0.00    -0.168 OA
ATOM     11  O   UNL     1       6.958  -8.180  -0.844  0.00  0.00    -0.168 OA
BRANCH   9  12
ATOM     12  C   UNL     1       5.650  -8.965   1.175  0.00  0.00    +0.090 A 
ATOM     13  C   UNL     1       6.683  -9.820   1.508  0.00  0.00    +0.027 A 
ATOM     14  C   UNL     1       6.479 -10.818   2.444  0.00  0.00    +0.002 A 
ATOM     15  C   UNL     1       5.243 -10.960   3.045  0.00  0.00    +0.000 A 
ATOM     16  C   UNL     1       4.210 -10.103   2.712  0.00  0.00    +0.002 A 
ATOM     17  C   UNL     1       4.415  -9.103   1.780  0.00  0.00    +0.027 A 
ENDBRANCH   9  12
ENDBRANCH   6   9
ENDBRANCH   1   2
BRANCH   1  21
ATOM     18  C   UNL     1       3.857  -0.426  -0.120  0.00  0.00    -0.018 A 
ATOM     19  C   UNL     1       5.097   0.193   0.021  0.00  0.00    +0.009 A 
ATOM     20  C   UNL     1       6.249  -0.568   0.031  0.00  0.00    +0.006 A 
ATOM     21  C   UNL     1       6.173  -1.943  -0.097  0.00  0.00    -0.029 A 
ATOM     22  C   UNL     1       4.945  -2.563  -0.237  0.00  0.00    +0.006 A 
ATOM     23  C   UNL     1       3.787  -1.812  -0.243  0.00  0.00    +0.009 A 
BRANCH  18  27
ATOM     24  C   UNL     1       0.300   1.903  -0.155  0.00  0.00    +0.000 A 
ATOM     25  C   UNL     1       1.528   2.524  -0.021  0.00  0.00    +0.001 A 
ATOM     26  C   UNL     1       2.686   1.773  -0.008  0.00  0.00    +0.008 A 
ATOM     27  C   UNL     1       2.616   0.386  -0.132  0.00  0.00    -0.018 A 
ATOM     28  C   UNL     1       1.375  -0.234  -0.266  0.00  0.00    +0.008 A 
ATOM     29  C   UNL     1       0.224   0.527  -0.277  0.00  0.00    +0.001 A 
ENDBRANCH  18  27
ENDBRANCH   1  21
BRANCH   1  30
ATOM     30  C   UNL     1       7.758  -3.225  -1.509  0.00  0.00    +0.122 C 
BRANCH  30  31
ATOM     31  N   UNL     1       8.952  -4.081  -1.488  0.00  0.00    -0.231 NA
ATOM     32 CL   UNL     1       9.350  -4.615  -3.063  0.00  0.00    -0.024 Cl
ATOM     33  H   UNL     1       9.732  -3.604  -1.061  0.00  0.00    +0.141 HD
ENDBRANCH  30  31
ENDBRANCH   1  30
TORSDOF 7
