REMARK  Name = ZINC49089594
REMARK  13 active torsions:
REMARK  status: ('A' for Active; 'I' for Inactive)
REMARK    1  A    between atoms: C_1  and  C_2
REMARK    2  A    between atoms: C_2  and  N_3
REMARK    3  A    between atoms: C_6  and  O_24
REMARK    4  A    between atoms: C_8  and  C_18
REMARK    5  A    between atoms: C_11  and  C_12
REMARK    6  A    between atoms: C_19  and  C_20
REMARK    7  A    between atoms: C_20  and  C_21
REMARK    8  A    between atoms: C_20  and  C_22
REMARK    9  A    between atoms: C_20  and  O_23
REMARK   10  A    between atoms: O_24  and  C_25
REMARK   11  A    between atoms: C_25  and  C_27
REMARK   12  A    between atoms: C_25  and  C_29
REMARK   13  A    between atoms: C_27  and  N_28
REMARK                            x       y       z     vdW  Elec       q    Type
REMARK                         _______ _______ _______ _____ _____    ______ ____
ROOT
ATOM      1  N   UNL     1       0.688  -0.476  -1.203  0.00  0.00    -0.322 N 
ATOM      2  C   UNL     1       0.108  -0.745  -2.421  0.00  0.00    +0.077 A 
ATOM      3  C   UNL     1      -1.183  -0.684  -2.929  0.00  0.00    +0.095 A 
ATOM      4  C   UNL     1      -1.404  -1.042  -4.250  0.00  0.00    +0.218 A 
ATOM      5  N   UNL     1      -0.412  -1.438  -5.031  0.00  0.00    -0.202 NA
ATOM      6  C   UNL     1       0.841  -1.515  -4.599  0.00  0.00    +0.145 A 
ATOM      7  C   UNL     1       1.152  -1.170  -3.269  0.00  0.00    +0.124 A 
ATOM      8  N   UNL     1       2.287  -1.141  -2.550  0.00  0.00    -0.223 NA
ATOM      9  C   UNL     1       2.030  -0.729  -1.332  0.00  0.00    +0.167 A 
ENDROOT
BRANCH   9  10
ATOM     10  C   UNL     1       3.034  -0.565  -0.259  0.00  0.00    +0.190 A 
ATOM     11  C   UNL     1       4.474  -0.824  -0.380  0.00  0.00    +0.191 A 
ATOM     12  N   UNL     1       5.035  -0.568   0.770  0.00  0.00    -0.033 NA
ATOM     13  O   UNL     1       4.022  -0.143   1.665  0.00  0.00    -0.240 OA
ATOM     14  N   UNL     1       2.793  -0.157   0.961  0.00  0.00    -0.044 NA
ATOM     15  N   UNL     1       5.127  -1.267  -1.523  0.00  0.00    -0.339 N 
ATOM     16  H   UNL     1       4.624  -1.432  -2.336  0.00  0.00    +0.144 HD
ATOM     17  H   UNL     1       6.086  -1.411  -1.508  0.00  0.00    +0.144 HD
ENDBRANCH   9  10
BRANCH   1  19
ATOM     18  C   UNL     1      -0.019   1.526   0.010  0.00  0.00    +0.027 C 
ATOM     19  C   UNL     1       0.002  -0.004   0.002  0.00  0.00    +0.120 C 
ENDBRANCH   1  19
BRANCH   6  20
ATOM     20  C   UNL     1       1.878  -1.951  -5.486  0.00  0.00    -0.041 C 
ATOM     21  C   UNL     1       2.728  -2.308  -6.212  0.00  0.00    -0.061 C 
BRANCH  21  22
ATOM     22  C   UNL     1       3.794  -2.755  -7.124  0.00  0.00    +0.121 C 
ATOM     23  C   UNL     1       5.132  -2.754  -6.383  0.00  0.00    +0.055 C 
ATOM     24  C   UNL     1       3.484  -4.171  -7.615  0.00  0.00    +0.055 C 
BRANCH  22  25
ATOM     25  O   UNL     1       3.868  -1.869  -8.242  0.00  0.00    -0.377 OA
ATOM     26  H   UNL     1       4.062  -0.952  -8.005  0.00  0.00    +0.211 HD
ENDBRANCH  22  25
ENDBRANCH  21  22
ENDBRANCH   6  20
BRANCH   4  27
ATOM     27  O   UNL     1      -2.664  -0.985  -4.752  0.00  0.00    -0.470 OA
BRANCH  27  28
ATOM     28  C   UNL     1      -2.835  -1.365  -6.119  0.00  0.00    +0.188 C 
BRANCH  28  29
ATOM     29  C   UNL     1      -4.212  -1.946  -6.311  0.00  0.00    -0.009 A 
ATOM     30  C   UNL     1      -5.298  -1.375  -5.674  0.00  0.00    +0.007 A 
ATOM     31  C   UNL     1      -6.561  -1.908  -5.849  0.00  0.00    +0.000 A 
ATOM     32  C   UNL     1      -6.739  -3.013  -6.662  0.00  0.00    +0.000 A 
ATOM     33  C   UNL     1      -5.653  -3.583  -7.299  0.00  0.00    +0.000 A 
ATOM     34  C   UNL     1      -4.390  -3.047  -7.127  0.00  0.00    +0.007 A 
ENDBRANCH  28  29
BRANCH  28  35
ATOM     35  C   UNL     1      -2.672  -0.134  -7.014  0.00  0.00    -0.036 C 
BRANCH  35  36
ATOM     36  N   UNL     1      -1.293   0.362  -6.919  0.00  0.00    +0.381 N 
ATOM     37  H   UNL     1      -1.185   1.173  -7.509  0.00  0.00    -0.090 HD
ATOM     38  H   UNL     1      -1.091   0.613  -5.962  0.00  0.00    -0.090 HD
ATOM     39  H   UNL     1      -0.654  -0.360  -7.219  0.00  0.00    -0.090 HD
ENDBRANCH  35  36
ENDBRANCH  28  35
ENDBRANCH  27  28
ENDBRANCH   4  27
TORSDOF 10
