REMARK  Name = ZINC14158059
REMARK  12 active torsions:
REMARK  status: ('A' for Active; 'I' for Inactive)
REMARK    1  A    between atoms: C_1  and  C_2
REMARK    2  A    between atoms: C_4  and  C_36
REMARK    3  A    between atoms: N_10  and  C_11
REMARK    4  A    between atoms: C_11  and  N_13
REMARK    5  A    between atoms: N_13  and  C_14
REMARK    6  A    between atoms: C_18  and  O_20
REMARK    7  A    between atoms: O_20  and  C_21
REMARK    8  A    between atoms: N_25  and  C_26
REMARK    9  A    between atoms: C_28  and  C_34
REMARK   10  A    between atoms: C_28  and  C_35
REMARK   11  A    between atoms: C_30  and  C_32
REMARK   12  A    between atoms: C_30  and  C_33
REMARK                            x       y       z     vdW  Elec       q    Type
REMARK                         _______ _______ _______ _____ _____    ______ ____
ROOT
ATOM      1  C   UNL     1       1.552  -7.372   5.135  0.00  0.00    +0.066 C 
ATOM      2  C   UNL     1       1.113  -6.716   3.851  0.00  0.00    +0.044 A 
ATOM      3  C   UNL     1       1.246  -7.382   2.642  0.00  0.00    +0.046 A 
ATOM      4  C   UNL     1       0.830  -6.743   1.485  0.00  0.00    +0.044 A 
ATOM      5  N   UNL     1       0.321  -5.524   1.569  0.00  0.00    -0.217 NA
ATOM      6  C   UNL     1       0.208  -4.917   2.740  0.00  0.00    +0.231 A 
ATOM      7  N   UNL     1       0.591  -5.501   3.864  0.00  0.00    -0.217 NA
ATOM      8  N   UNL     1      -0.331  -3.638   2.790  0.00  0.00    -0.297 N 
ATOM      9  C   UNL     1      -0.350  -2.950   3.973  0.00  0.00    +0.196 C 
ATOM     10  N   UNL     1       0.245  -3.453   5.040  0.00  0.00    -0.159 NA
ATOM     11  N   UNL     1      -0.984  -1.743   4.050  0.00  0.00    -0.355 N 
ATOM     12  C   UNL     1       0.956  -7.427   0.148  0.00  0.00    +0.066 C 
ATOM     13  H   UNL     1      -0.694  -3.233   1.987  0.00  0.00    +0.171 HD
ATOM     14  H   UNL     1      -0.930  -1.218   4.864  0.00  0.00    +0.163 HD
ENDROOT
BRANCH  11  15
ATOM     15  C   UNL     1      -1.747  -1.240   2.901  0.00  0.00    +0.079 C 
ATOM     16  C   UNL     1      -0.800  -0.501   1.954  0.00  0.00    +0.011 C 
ATOM     17  C   UNL     1      -1.582   0.040   0.758  0.00  0.00    -0.071 C 
ATOM     18  N   UNL     1      -2.713   0.860   1.167  0.00  0.00    +0.386 N 
ATOM     19  C   UNL     1      -3.575   0.344   2.219  0.00  0.00    -0.071 C 
ATOM     20  C   UNL     1      -2.803  -0.250   3.392  0.00  0.00    +0.011 C 
ATOM     21  C   UNL     1      -4.575  -0.681   1.679  0.00  0.00    -0.010 C 
ATOM     22  C   UNL     1      -4.400   1.533   2.768  0.00  0.00    -0.010 C 
ATOM     23  C   UNL     1      -2.005  -1.106  -0.160  0.00  0.00    -0.010 C 
ATOM     24  C   UNL     1      -0.620   0.942  -0.049  0.00  0.00    -0.010 C 
ATOM     25  H   UNL     1      -2.357   1.773   1.462  0.00  0.00    -0.084 HD
ATOM     26  H   UNL     1      -3.288   1.049   0.343  0.00  0.00    -0.084 HD
ENDBRANCH  11  15
BRANCH  10  27
ATOM     27  C   UNL     1       0.248  -2.768   6.193  0.00  0.00    +0.161 C 
ATOM     28  S   UNL     1      -1.224  -2.471   7.015  0.00  0.00    -0.016 S 
BRANCH  27  29
ATOM     29  N   UNL     1       1.409  -2.312   6.703  0.00  0.00    -0.295 N 
ATOM     30  H   UNL     1       2.231  -2.405   6.197  0.00  0.00    +0.154 HD
BRANCH  29  31
ATOM     31  C   UNL     1       1.428  -1.705   7.963  0.00  0.00    +0.036 A 
ATOM     32  C   UNL     1       0.656  -2.222   8.996  0.00  0.00    +0.023 A 
ATOM     33  C   UNL     1       0.675  -1.623  10.240  0.00  0.00    +0.005 A 
ATOM     34  C   UNL     1       1.463  -0.509  10.462  0.00  0.00    +0.046 A 
ATOM     35  C   UNL     1       2.236   0.012   9.434  0.00  0.00    +0.132 A 
ATOM     36  C   UNL     1       2.224  -0.590   8.185  0.00  0.00    +0.069 A 
BRANCH  35  37
ATOM     37  O   UNL     1       3.010   1.107   9.653  0.00  0.00    -0.406 OA
BRANCH  37  38
ATOM     38  C   UNL     1       2.978   1.672  10.965  0.00  0.00    +0.575 C 
ATOM     39  F   UNL     1       3.406   0.718  11.894  0.00  0.00    -0.133 F 
ATOM     40  F   UNL     1       3.825   2.784  11.015  0.00  0.00    -0.133 F 
ATOM     41  F   UNL     1       1.672   2.067  11.271  0.00  0.00    -0.133 F 
ENDBRANCH  37  38
ENDBRANCH  35  37
ENDBRANCH  29  31
ENDBRANCH  27  29
ENDBRANCH  10  27
TORSDOF 6
