REMARK  Name = ZINC36798813
REMARK  3 active torsions:
REMARK  status: ('A' for Active; 'I' for Inactive)
REMARK    1  A    between atoms: N_14  and  C_17
REMARK    2  A    between atoms: C_17  and  C_18
REMARK    3  A    between atoms: C_24  and  C_26
REMARK                            x       y       z     vdW  Elec       q    Type
REMARK                         _______ _______ _______ _____ _____    ______ ____
ROOT
ATOM      1  C   UNL     1       4.574  -2.617   2.050  0.00  0.00    +0.237 C 
ATOM      2  O   UNL     1       4.117  -2.178   3.084  0.00  0.00    -0.274 OA
ATOM      3  N   UNL     1       5.566  -3.528   2.085  0.00  0.00    -0.262 N 
ATOM      4  C   UNL     1       6.066  -3.965   3.307  0.00  0.00    +0.188 A 
ATOM      5  N   UNL     1       5.703  -3.618   4.526  0.00  0.00    -0.126 NA
ATOM      6  N   UNL     1       6.256  -4.106   5.552  0.00  0.00    -0.144 NA
ATOM      7  C   UNL     1       7.223  -4.988   5.400  0.00  0.00    +0.110 A 
ATOM      8  S   UNL     1       7.289  -5.084   3.616  0.00  0.00    -0.035 S 
ATOM      9  H   UNL     1       5.932  -3.880   1.258  0.00  0.00    +0.157 HD
ENDROOT
BRANCH   7  10
ATOM     10  C   UNL     1       8.040  -5.715   6.438  0.00  0.00    +0.022 C 
ATOM     11  C   UNL     1       8.792  -4.699   7.299  0.00  0.00    +0.017 C 
ATOM     12  C   UNL     1       9.621  -5.438   8.352  0.00  0.00    -0.010 C 
ATOM     13  C   UNL     1       8.693  -6.270   9.239  0.00  0.00    +0.007 C 
ATOM     14  C   UNL     1       7.940  -7.286   8.378  0.00  0.00    -0.010 C 
ATOM     15  C   UNL     1       7.112  -6.548   7.325  0.00  0.00    +0.017 C 
ATOM     16  C   UNL     1       8.943  -8.209   7.683  0.00  0.00    +0.007 C 
ATOM     17  C   UNL     1       9.871  -7.376   6.796  0.00  0.00    -0.010 C 
ATOM     18  C   UNL     1      10.624  -6.360   7.657  0.00  0.00    +0.007 C 
ATOM     19  C   UNL     1       9.043  -6.638   5.743  0.00  0.00    +0.017 C 
ENDBRANCH   7  10
BRANCH   1  20
ATOM     20  C   UNL     1       4.032  -2.143   0.725  0.00  0.00    +0.212 C 
BRANCH  20  30
ATOM     21  C   UNL     1      -0.019   1.568   0.011  0.00  0.00    +0.016 C 
ATOM     22  C   UNL     1       1.549   1.681  -0.004  0.00  0.00    +0.025 C 
ATOM     23  C   UNL     1       1.870   0.724  -1.159  0.00  0.00    -0.027 C 
ATOM     24  C   UNL     1       0.978  -0.246  -1.155  0.00  0.00    -0.027 C 
ATOM     25  C   UNL     1       0.002  -0.004   0.002  0.00  0.00    +0.025 C 
ATOM     26  C   UNL     1       0.851  -0.284   1.282  0.00  0.00    +0.095 C 
ATOM     27  C   UNL     1       1.903   0.881   1.290  0.00  0.00    +0.095 C 
ATOM     28  C   UNL     1       3.206   0.151   1.054  0.00  0.00    +0.227 C 
ATOM     29  O   UNL     1       4.296   0.674   0.968  0.00  0.00    -0.275 OA
ATOM     30  N   UNL     1       2.969  -1.162   0.955  0.00  0.00    -0.233 N 
ATOM     31  C   UNL     1       1.667  -1.534   1.046  0.00  0.00    +0.227 C 
ATOM     32  O   UNL     1       1.222  -2.659   0.985  0.00  0.00    -0.275 OA
ENDBRANCH  20  30
ENDBRANCH   1  20
TORSDOF 3
