REMARK  Name = ZINC64538938
REMARK  7 active torsions:
REMARK  status: ('A' for Active; 'I' for Inactive)
REMARK    1  A    between atoms: C_1  and  C_2
REMARK    2  A    between atoms: C_2  and  C_3
REMARK    3  A    between atoms: C_10  and  S_15
REMARK    4  A    between atoms: S_15  and  N_18
REMARK    5  A    between atoms: C_24  and  C_26
REMARK    6  A    between atoms: C_26  and  C_27
REMARK    7  A    between atoms: C_27  and  C_28
REMARK                            x       y       z     vdW  Elec       q    Type
REMARK                         _______ _______ _______ _____ _____    ______ ____
ROOT
ATOM      1  N   UNL     1      -5.911  -3.093  -2.285  0.00  0.00    -0.174 NA
ATOM      2  C   UNL     1      -5.830  -4.064  -1.185  0.00  0.00    +0.128 C 
ATOM      3  C   UNL     1      -5.612  -3.301   0.127  0.00  0.00    +0.125 C 
ATOM      4  N   UNL     1      -6.601  -2.217   0.210  0.00  0.00    -0.299 N 
ATOM      5  C   UNL     1      -6.682  -1.246  -0.890  0.00  0.00    +0.125 C 
ATOM      6  C   UNL     1      -6.896  -2.006  -2.200  0.00  0.00    +0.128 C 
ATOM      7  C   UNL     1      -7.420  -2.116   1.276  0.00  0.00    +0.216 C 
ATOM      8  O   UNL     1      -7.344  -2.923   2.178  0.00  0.00    -0.276 OA
ENDROOT
BRANCH   1   9
ATOM      9  S   UNL     1      -4.905  -3.218  -3.595  0.00  0.00    +0.061 S 
ATOM     10  O   UNL     1      -5.552  -2.550  -4.669  0.00  0.00    -0.153 OA
ATOM     11  O   UNL     1      -4.507  -4.580  -3.673  0.00  0.00    -0.153 OA
BRANCH   9  18
ATOM     12  C   UNL     1       0.718  -0.497  -1.257  0.00  0.00    +0.259 C 
ATOM     13  C   UNL     1       0.849  -1.999  -1.204  0.00  0.00    +0.258 C 
ATOM     14  O   UNL     1       1.849  -2.507  -0.742  0.00  0.00    -0.271 OA
ATOM     15  N   UNL     1      -0.152  -2.774  -1.672  0.00  0.00    -0.279 N 
ATOM     16  C   UNL     1      -1.241  -2.171  -2.316  0.00  0.00    +0.078 A 
ATOM     17  C   UNL     1      -2.382  -2.902  -2.604  0.00  0.00    +0.055 A 
ATOM     18  C   UNL     1      -3.453  -2.289  -3.227  0.00  0.00    +0.107 A 
ATOM     19  C   UNL     1      -3.388  -0.949  -3.563  0.00  0.00    +0.032 A 
ATOM     20  C   UNL     1      -2.250  -0.215  -3.283  0.00  0.00    +0.049 A 
ATOM     21  C   UNL     1      -1.172  -0.824  -2.664  0.00  0.00    +0.143 A 
ATOM     22  O   UNL     1      -0.036  -0.121  -2.411  0.00  0.00    -0.478 OA
ATOM     23  H   UNL     1      -0.117  -3.738  -1.565  0.00  0.00    +0.155 HD
BRANCH  12  25
ATOM     24  C   UNL     1      -0.019   1.526   0.010  0.00  0.00    +0.008 C 
ATOM     25  C   UNL     1       0.002  -0.004   0.002  0.00  0.00    +0.051 C 
ENDBRANCH  12  25
ENDBRANCH   9  18
ENDBRANCH   1   9
BRANCH   7  26
ATOM     26  C   UNL     1      -8.429  -0.999   1.347  0.00  0.00    +0.100 C 
BRANCH  26  27
ATOM     27  C   UNL     1      -9.225  -1.113   2.649  0.00  0.00    +0.042 C 
BRANCH  27  28
ATOM     28  C   UNL     1     -10.234   0.003   2.720  0.00  0.00    -0.041 C 
ATOM     29  C   UNL     1     -11.534  -0.051   2.350  0.00  0.00    -0.001 A 
ATOM     30  C   UNL     1     -12.365  -1.124   1.791  0.00  0.00    +0.010 A 
ATOM     31  C   UNL     1     -13.665  -0.872   1.516  0.00  0.00    +0.001 A 
ATOM     32  C   UNL     1     -14.237   0.387   1.749  0.00  0.00    +0.002 A 
ATOM     33  C   UNL     1     -13.537   1.422   2.261  0.00  0.00    +0.026 A 
ATOM     34  C   UNL     1     -12.162   1.268   2.588  0.00  0.00    +0.043 A 
ATOM     35  N   UNL     1     -11.285   2.105   3.086  0.00  0.00    -0.380 N 
ATOM     36  C   UNL     1     -10.001   1.409   3.226  0.00  0.00    +0.144 C 
ATOM     37  H   UNL     1     -11.457   3.030   3.326  0.00  0.00    +0.160 HD
ENDBRANCH  27  28
ENDBRANCH  26  27
ENDBRANCH   7  26
TORSDOF 6
