REMARK  Name = ZINC00994597
REMARK  13 active torsions:
REMARK  status: ('A' for Active; 'I' for Inactive)
REMARK    1  A    between atoms: C_1  and  C_2
REMARK    2  A    between atoms: C_5  and  N_8
REMARK    3  A    between atoms: C_11  and  C_13
REMARK    4  A    between atoms: C_14  and  C_22
REMARK    5  A    between atoms: C_16  and  C_20
REMARK    6  A    between atoms: C_17  and  N_19
REMARK    7  A    between atoms: C_25  and  O_39
REMARK    8  A    between atoms: C_26  and  C_28
REMARK    9  A    between atoms: C_28  and  N_29
REMARK   10  A    between atoms: C_30  and  C_38
REMARK   11  A    between atoms: C_31  and  N_35
REMARK   12  A    between atoms: C_32  and  C_34
REMARK   13  A    between atoms: O_39  and  C_40
REMARK                            x       y       z     vdW  Elec       q    Type
REMARK                         _______ _______ _______ _____ _____    ______ ____
ROOT
ATOM      1  N   UNL     1      -0.858   2.098   7.854  0.00  0.00    -0.200 N 
ATOM      2  C   UNL     1      -0.840   3.073   6.919  0.00  0.00    +0.230 A 
ATOM      3  C   UNL     1      -0.093   2.619   5.866  0.00  0.00    +0.050 A 
ATOM      4  C   UNL     1       0.353   1.340   6.172  0.00  0.00    +0.068 A 
ATOM      5  N   UNL     1      -0.101   1.020   7.361  0.00  0.00    -0.168 NA
ATOM      6  C   UNL     1       1.210   0.469   5.289  0.00  0.00    +0.068 C 
ATOM      7  C   UNL     1       0.147   3.443   4.627  0.00  0.00    +0.101 C 
ATOM      8  C   UNL     1      -0.295   4.858   4.908  0.00  0.00    +0.098 C 
ATOM      9  C   UNL     1      -1.024   5.187   5.997  0.00  0.00    +0.200 C 
ATOM     10  O   UNL     1      -1.420   4.299   6.932  0.00  0.00    -0.423 OA
ENDROOT
BRANCH   1  15
ATOM     11  C   UNL     1      -3.508   2.315  12.867  0.00  0.00    +0.044 C 
ATOM     12  C   UNL     1      -2.804   2.257  11.536  0.00  0.00    -0.050 A 
ATOM     13  C   UNL     1      -2.729   1.061  10.847  0.00  0.00    +0.005 A 
ATOM     14  C   UNL     1      -2.085   1.005   9.626  0.00  0.00    +0.028 A 
ATOM     15  C   UNL     1      -1.512   2.151   9.092  0.00  0.00    +0.069 A 
ATOM     16  C   UNL     1      -1.585   3.350   9.789  0.00  0.00    +0.028 A 
ATOM     17  C   UNL     1      -2.236   3.401  11.006  0.00  0.00    +0.005 A 
ENDBRANCH   1  15
BRANCH   7  18
ATOM     18  C   UNL     1      -0.650   2.879   3.479  0.00  0.00    -0.034 A 
ATOM     19  C   UNL     1      -2.027   2.794   3.571  0.00  0.00    +0.008 A 
ATOM     20  C   UNL     1      -2.760   2.278   2.521  0.00  0.00    +0.046 A 
ATOM     21  C   UNL     1      -2.114   1.849   1.370  0.00  0.00    +0.125 A 
ATOM     22  C   UNL     1      -0.732   1.931   1.282  0.00  0.00    +0.016 A 
ATOM     23  C   UNL     1      -0.003   2.448   2.336  0.00  0.00    +0.013 A 
BRANCH  21  24
ATOM     24  O   UNL     1      -2.833   1.346   0.333  0.00  0.00    -0.495 OA
ATOM     25  C   UNL     1      -4.252   1.292   0.493  0.00  0.00    +0.277 C 
ENDBRANCH  21  24
BRANCH  22  26
ATOM     26  C   UNL     1      -0.026   1.462   0.036  0.00  0.00    +0.182 C 
BRANCH  26  27
ATOM     27  N   UNL     1       0.215   0.019   0.125  0.00  0.00    -0.262 N 
ATOM     28  C   UNL     1       1.351  -0.571   0.554  0.00  0.00    +0.067 A 
ATOM     29  C   UNL     1       1.171  -1.910   0.484  0.00  0.00    +0.169 A 
ATOM     30  C   UNL     1      -0.118  -2.147  -0.004  0.00  0.00    +0.090 A 
ATOM     31  N   UNL     1      -0.694  -0.991  -0.214  0.00  0.00    -0.174 NA
ATOM     32  C   UNL     1      -0.739  -3.499  -0.240  0.00  0.00    +0.070 C 
ATOM     33  C   UNL     1       2.595   0.136   1.026  0.00  0.00    +0.068 C 
BRANCH  29  34
ATOM     34  N   UNL     1       2.163  -2.942   0.859  0.00  0.00    +0.060 N 
ATOM     35  O   UNL     1       2.198  -3.368   1.999  0.00  0.00    -0.126 OA
ATOM     36  O   UNL     1       2.945  -3.366   0.026  0.00  0.00    -0.126 OA
ENDBRANCH  29  34
ENDBRANCH  26  27
ENDBRANCH  22  26
ENDBRANCH   7  18
BRANCH   9  37
ATOM     37  N   UNL     1      -1.382   6.502   6.162  0.00  0.00    -0.328 N 
ATOM     38  H   UNL     1      -1.112   7.164   5.507  0.00  0.00    +0.145 HD
ATOM     39  H   UNL     1      -1.906   6.768   6.934  0.00  0.00    +0.145 HD
ENDBRANCH   9  37
BRANCH   8  40
ATOM     40  C   UNL     1       0.071   5.890   3.986  0.00  0.00    +0.101 C 
ATOM     41  N   UNL     1       0.361   6.709   3.254  0.00  0.00    -0.191 NA
ENDBRANCH   8  40
TORSDOF 8
