REMARK  Name = ZINC23361781
REMARK  12 active torsions:
REMARK  status: ('A' for Active; 'I' for Inactive)
REMARK    1  A    between atoms: C_1  and  C_2
REMARK    2  A    between atoms: C_2  and  C_3
REMARK    3  A    between atoms: C_2  and  N_4
REMARK    4  A    between atoms: C_6  and  N_25
REMARK    5  A    between atoms: C_9  and  C_11
REMARK    6  A    between atoms: N_13  and  C_14
REMARK    7  A    between atoms: C_14  and  C_15
REMARK    8  A    between atoms: C_15  and  C_16
REMARK    9  A    between atoms: N_25  and  C_26
REMARK   10  A    between atoms: C_26  and  C_27
REMARK   11  A    between atoms: C_30  and  O_37
REMARK   12  A    between atoms: O_37  and  C_38
REMARK                            x       y       z     vdW  Elec       q    Type
REMARK                         _______ _______ _______ _____ _____    ______ ____
ROOT
ATOM      1  N   UNL     1      -1.422  -0.362  -0.033  0.00  0.00    -0.291 NA
ATOM      2  C   UNL     1      -2.140   0.206   1.128  0.00  0.00    +0.070 C 
ATOM      3  C   UNL     1      -3.233  -0.838   1.467  0.00  0.00    -0.055 C 
ATOM      4  C   UNL     1      -2.490  -2.171   1.188  0.00  0.00    +0.014 C 
ATOM      5  C   UNL     1      -1.600  -1.826  -0.024  0.00  0.00    +0.142 C 
ENDROOT
BRANCH   5   6
ATOM      6  C   UNL     1      -2.273  -2.268  -1.298  0.00  0.00    +0.230 C 
ATOM      7  O   UNL     1      -2.580  -1.449  -2.138  0.00  0.00    -0.274 OA
ATOM      8  N   UNL     1      -2.535  -3.574  -1.503  0.00  0.00    -0.314 N 
ATOM      9  H   UNL     1      -2.290  -4.229  -0.831  0.00  0.00    +0.149 HD
BRANCH   8  10
ATOM     10  C   UNL     1      -3.190  -4.004  -2.741  0.00  0.00    +0.109 C 
BRANCH  10  11
ATOM     11  C   UNL     1      -3.369  -5.524  -2.722  0.00  0.00    +0.054 C 
BRANCH  11  12
ATOM     12  C   UNL     1      -4.043  -5.966  -3.995  0.00  0.00    -0.042 A 
ATOM     13  C   UNL     1      -5.422  -6.030  -4.059  0.00  0.00    +0.007 A 
ATOM     14  C   UNL     1      -6.045  -6.435  -5.225  0.00  0.00    +0.050 A 
ATOM     15  C   UNL     1      -5.286  -6.778  -6.333  0.00  0.00    +0.166 A 
ATOM     16  C   UNL     1      -3.897  -6.714  -6.268  0.00  0.00    +0.166 A 
ATOM     17  C   UNL     1      -3.280  -6.302  -5.098  0.00  0.00    +0.053 A 
ATOM     18  O   UNL     1      -3.385  -7.097  -7.474  0.00  0.00    -0.453 OA
ATOM     19  C   UNL     1      -4.457  -7.787  -8.145  0.00  0.00    +0.466 C 
ATOM     20  O   UNL     1      -5.646  -7.202  -7.580  0.00  0.00    -0.453 OA
ENDBRANCH  11  12
ENDBRANCH  10  11
ENDBRANCH   8  10
ENDBRANCH   5   6
BRANCH   1  22
ATOM     21  C   UNL     1       0.697  -0.552  -1.246  0.00  0.00    +0.024 C 
ATOM     22  C   UNL     1       0.002  -0.004   0.002  0.00  0.00    +0.051 C 
ATOM     23  C   UNL     1       0.144   1.519   0.038  0.00  0.00    +0.024 C 
ENDBRANCH   1  22
BRANCH   3  24
ATOM     24  N   UNL     1      -3.632  -0.743   2.877  0.00  0.00    +0.384 N 
ATOM     25  H   UNL     1      -4.264  -1.497   3.100  0.00  0.00    -0.085 HD
ATOM     26  H   UNL     1      -2.814  -0.805   3.464  0.00  0.00    -0.085 HD
BRANCH  24  27
ATOM     27  C   UNL     1      -4.305   0.543   3.110  0.00  0.00    -0.046 C 
BRANCH  27  28
ATOM     28  C   UNL     1      -4.714   0.641   4.557  0.00  0.00    -0.056 A 
ATOM     29  C   UNL     1      -5.999   0.377   4.922  0.00  0.00    +0.006 A 
ATOM     30  C   UNL     1      -6.399   0.462   6.253  0.00  0.00    +0.046 A 
ATOM     31  C   UNL     1      -5.512   0.812   7.232  0.00  0.00    +0.128 A 
ATOM     32  C   UNL     1      -4.174   1.091   6.890  0.00  0.00    +0.024 A 
ATOM     33  C   UNL     1      -3.770   0.999   5.534  0.00  0.00    -0.013 A 
ATOM     34  C   UNL     1      -2.435   1.273   5.193  0.00  0.00    +0.009 A 
ATOM     35  C   UNL     1      -1.548   1.617   6.167  0.00  0.00    +0.001 A 
ATOM     36  C   UNL     1      -1.944   1.702   7.500  0.00  0.00    +0.001 A 
ATOM     37  C   UNL     1      -3.232   1.455   7.865  0.00  0.00    +0.012 A 
BRANCH  31  38
ATOM     38  O   UNL     1      -5.918   0.891   8.526  0.00  0.00    -0.495 OA
ATOM     39  C   UNL     1      -7.290   0.594   8.795  0.00  0.00    +0.277 C 
ENDBRANCH  31  38
ENDBRANCH  27  28
ENDBRANCH  24  27
ENDBRANCH   3  24
TORSDOF 9
