REMARK  Name = ZINC08234489
REMARK  4 active torsions:
REMARK  status: ('A' for Active; 'I' for Inactive)
REMARK    1  A    between atoms: C_4  and  N_10
REMARK    2  A    between atoms: C_6  and  N_7
REMARK    3  A    between atoms: C_11  and  C_13
REMARK    4  A    between atoms: N_18  and  C_20
REMARK                            x       y       z     vdW  Elec       q    Type
REMARK                         _______ _______ _______ _____ _____    ______ ____
ROOT
ATOM      1  N   UNL     1      -1.994   1.783  -1.458  0.00  0.00    -0.284 N 
ATOM      2  C   UNL     1      -0.702   2.082  -1.219  0.00  0.00    +0.222 C 
ATOM      3  O   UNL     1      -0.085   2.775  -2.000  0.00  0.00    -0.275 OA
ATOM      4  H   UNL     1      -2.465   1.165  -0.878  0.00  0.00    +0.155 HD
ENDROOT
BRANCH   1   8
ATOM      5  C   UNL     1      -3.970   3.517  -4.692  0.00  0.00    +0.034 A 
ATOM      6  C   UNL     1      -4.408   2.307  -4.185  0.00  0.00    +0.024 A 
ATOM      7  C   UNL     1      -3.751   1.726  -3.117  0.00  0.00    +0.062 A 
ATOM      8  C   UNL     1      -2.658   2.365  -2.545  0.00  0.00    +0.054 A 
ATOM      9  C   UNL     1      -2.222   3.580  -3.056  0.00  0.00    +0.057 A 
ATOM     10  C   UNL     1      -2.879   4.152  -4.129  0.00  0.00    +0.128 A 
ATOM     11 CL   UNL     1      -4.296   0.203  -2.486  0.00  0.00    -0.082 Cl
BRANCH  10  12
ATOM     12  N   UNL     1      -2.414   5.447  -4.675  0.00  0.00    +0.056 N 
ATOM     13  O   UNL     1      -1.453   6.007  -4.178  0.00  0.00    -0.126 OA
ATOM     14  O   UNL     1      -2.993   5.952  -5.620  0.00  0.00    -0.126 OA
ENDBRANCH  10  12
ENDBRANCH   1   8
BRANCH   2  15
ATOM     15  C   UNL     1      -0.024   1.554   0.019  0.00  0.00    +0.101 C 
ATOM     16  C   UNL     1      -0.001   0.008   0.022  0.00  0.00    +0.110 C 
ATOM     17  C   UNL     1       1.339  -0.342   0.629  0.00  0.00    +0.217 C 
ATOM     18  O   UNL     1       1.639  -1.433   1.067  0.00  0.00    -0.276 OA
ATOM     19  N   UNL     1       2.148   0.731   0.614  0.00  0.00    -0.298 N 
ATOM     20  C   UNL     1       1.484   1.891   0.009  0.00  0.00    +0.121 C 
BRANCH  19  21
ATOM     21  C   UNL     1       3.518   0.741   1.135  0.00  0.00    +0.076 C 
ATOM     22  C   UNL     1       4.359  -0.343   0.430  0.00  0.00    +0.022 C 
ATOM     23  C   UNL     1       5.282  -0.893   1.546  0.00  0.00    +0.002 C 
ATOM     24  C   UNL     1       4.354  -0.896   2.786  0.00  0.00    +0.002 C 
ATOM     25  C   UNL     1       3.514   0.389   2.633  0.00  0.00    +0.022 C 
ENDBRANCH  19  21
ENDBRANCH   2  15
TORSDOF 4
