REMARK  Name = ZINC08809372
REMARK  7 active torsions:
REMARK  status: ('A' for Active; 'I' for Inactive)
REMARK    1  A    between atoms: C_1  and  N_2
REMARK    2  A    between atoms: N_11  and  C_24
REMARK    3  A    between atoms: N_14  and  N_15
REMARK    4  A    between atoms: C_16  and  C_17
REMARK    5  A    between atoms: C_24  and  C_25
REMARK    6  A    between atoms: C_25  and  C_26
REMARK    7  A    between atoms: C_26  and  C_27
REMARK                            x       y       z     vdW  Elec       q    Type
REMARK                         _______ _______ _______ _____ _____    ______ ____
ROOT
ATOM      1  C   UNL     1       3.656   2.086  -0.020  0.00  0.00    +0.155 C 
ATOM      2  N   UNL     1       2.373   1.380  -0.013  0.00  0.00    -0.280 N 
ATOM      3  C   UNL     1       1.188   2.098   0.002  0.00  0.00    +0.170 A 
ATOM      4  C   UNL     1      -0.017   1.402   0.010  0.00  0.00    +0.153 A 
ATOM      5  C   UNL     1       0.002  -0.004   0.002  0.00  0.00    +0.280 A 
ATOM      6  O   UNL     1      -1.041  -0.634   0.008  0.00  0.00    -0.265 OA
ATOM      7  N   UNL     1       1.187  -0.648  -0.013  0.00  0.00    -0.273 N 
ATOM      8  H   UNL     1       1.204  -1.648  -0.018  0.00  0.00    +0.173 HD
ATOM      9  C   UNL     1       2.346   0.034  -0.020  0.00  0.00    +0.331 A 
ATOM     10  O   UNL     1       3.395  -0.581  -0.034  0.00  0.00    -0.246 OA
ATOM     11  N   UNL     1      -1.021   2.360   0.019  0.00  0.00    -0.305 N 
ATOM     12  C   UNL     1      -0.406   3.573   0.025  0.00  0.00    +0.218 A 
ATOM     13  N   UNL     1       0.901   3.400   0.012  0.00  0.00    -0.195 NA
ATOM     14  N   UNL     1      -1.047   4.790   0.038  0.00  0.00    -0.206 N 
ATOM     15  H   UNL     1      -2.016   4.828   0.047  0.00  0.00    +0.177 HD
ENDROOT
BRANCH  14  16
ATOM     16  N   UNL     1      -0.300   5.976   0.038  0.00  0.00    -0.188 NA
ATOM     17  C   UNL     1      -0.905   7.124   0.050  0.00  0.00    +0.138 C 
BRANCH  17  18
ATOM     18  C   UNL     1      -0.119   8.372   0.049  0.00  0.00    -0.005 A 
ATOM     19  C   UNL     1       1.278   8.321   0.042  0.00  0.00    +0.010 A 
ATOM     20  C   UNL     1       2.007   9.492   0.036  0.00  0.00    +0.016 A 
ATOM     21  C   UNL     1       1.358  10.715   0.049  0.00  0.00    +0.018 A 
ATOM     22  C   UNL     1      -0.025  10.772   0.062  0.00  0.00    +0.016 A 
ATOM     23  C   UNL     1      -0.766   9.609   0.062  0.00  0.00    +0.010 A 
ATOM     24 BR   UNL     1       2.367  12.315   0.049  0.00  0.00    -0.050 Br
ENDBRANCH  17  18
ENDBRANCH  14  16
BRANCH  11  25
ATOM     25  C   UNL     1      -2.465   2.112   0.022  0.00  0.00    +0.126 C 
BRANCH  25  26
ATOM     26  C   UNL     1      -2.963   2.018   1.466  0.00  0.00    +0.026 C 
BRANCH  26  27
ATOM     27  C   UNL     1      -4.471   1.759   1.470  0.00  0.00    +0.037 C 
BRANCH  27  28
ATOM     28  C   UNL     1      -4.961   1.665   2.892  0.00  0.00    -0.047 A 
ATOM     29  C   UNL     1      -4.989   0.442   3.534  0.00  0.00    +0.003 A 
ATOM     30  C   UNL     1      -5.434   0.357   4.840  0.00  0.00    +0.000 A 
ATOM     31  C   UNL     1      -5.861   1.494   5.501  0.00  0.00    +0.000 A 
ATOM     32  C   UNL     1      -5.838   2.717   4.856  0.00  0.00    +0.000 A 
ATOM     33  C   UNL     1      -5.388   2.803   3.552  0.00  0.00    +0.003 A 
ENDBRANCH  27  28
ENDBRANCH  26  27
ENDBRANCH  25  26
ENDBRANCH  11  25
TORSDOF 6
