REMARK  Name = ZINC18265337
REMARK  7 active torsions:
REMARK  status: ('A' for Active; 'I' for Inactive)
REMARK    1  A    between atoms: C_1  and  C_2
REMARK    2  A    between atoms: C_4  and  C_16
REMARK    3  A    between atoms: C_5  and  C_15
REMARK    4  A    between atoms: N_6  and  C_7
REMARK    5  A    between atoms: C_10  and  C_13
REMARK    6  A    between atoms: N_22  and  C_23
REMARK    7  A    between atoms: C_23  and  C_25
REMARK                            x       y       z     vdW  Elec       q    Type
REMARK                         _______ _______ _______ _____ _____    ______ ____
ROOT
ATOM      1  C   UNL     1       1.310  -2.015   0.913  0.00  0.00    +0.064 C 
ATOM      2  C   UNL     1       0.970  -0.573   0.640  0.00  0.00    +0.022 A 
ATOM      3  C   UNL     1      -0.272  -0.079   0.497  0.00  0.00    +0.031 A 
ATOM      4  C   UNL     1      -0.125   1.361   0.247  0.00  0.00    -0.003 A 
ATOM      5  C   UNL     1       1.233   1.614   0.262  0.00  0.00    +0.028 A 
ATOM      6  N   UNL     1       1.875   0.442   0.499  0.00  0.00    -0.317 N 
ATOM      7  C   UNL     1       1.886   2.955   0.050  0.00  0.00    +0.064 C 
ENDROOT
BRANCH   4   8
ATOM      8  C   UNL     1      -1.201   2.330   0.021  0.00  0.00    +0.030 C 
ATOM      9  C   UNL     1      -2.323   1.957  -0.651  0.00  0.00    +0.078 C 
ATOM     10  C   UNL     1      -2.612   0.703  -1.365  0.00  0.00    +0.256 C 
ATOM     11  O   UNL     1      -1.804  -0.206  -1.431  0.00  0.00    -0.269 OA
ATOM     12  N   UNL     1      -3.806   0.627  -1.931  0.00  0.00    -0.262 N 
ATOM     13  C   UNL     1      -4.690   1.665  -1.839  0.00  0.00    +0.158 C 
ATOM     14  N   UNL     1      -5.916   1.742  -2.348  0.00  0.00    -0.159 NA
ATOM     15  S   UNL     1      -3.847   2.854  -0.900  0.00  0.00    -0.051 S 
ATOM     16  H   UNL     1      -4.057  -0.175  -2.416  0.00  0.00    +0.157 HD
BRANCH  14  17
ATOM     17  C   UNL     1      -6.645   2.839  -2.160  0.00  0.00    +0.235 C 
ATOM     18  O   UNL     1      -6.191   3.770  -1.524  0.00  0.00    -0.274 OA
ATOM     19  C   UNL     1      -8.035   2.927  -2.737  0.00  0.00    +0.111 C 
ENDBRANCH  14  17
ENDBRANCH   4   8
BRANCH   6  20
ATOM     20  C   UNL     1       3.262   0.294   0.587  0.00  0.00    +0.047 A 
ATOM     21  C   UNL     1       3.963   0.916   1.615  0.00  0.00    +0.027 A 
ATOM     22  C   UNL     1       5.329   0.768   1.707  0.00  0.00    +0.017 A 
ATOM     23  C   UNL     1       6.012   0.002   0.760  0.00  0.00    +0.063 A 
ATOM     24  C   UNL     1       5.306  -0.618  -0.275  0.00  0.00    +0.017 A 
ATOM     25  C   UNL     1       3.939  -0.470  -0.358  0.00  0.00    +0.027 A 
BRANCH  23  26
ATOM     26  C   UNL     1       7.477  -0.154   0.852  0.00  0.00    +0.387 C 
ATOM     27  O   UNL     1       8.070  -0.820   0.027  0.00  0.00    -0.241 OA
ATOM     28  O   UNL     1       8.156   0.444   1.850  0.00  0.00    -0.241 OA
ENDBRANCH  23  26
ENDBRANCH   6  20
TORSDOF 4
