REMARK  Name = ZINC20945440
REMARK  10 active torsions:
REMARK  status: ('A' for Active; 'I' for Inactive)
REMARK    1  A    between atoms: C_1  and  C_2
REMARK    2  A    between atoms: C_5  and  C_32
REMARK    3  A    between atoms: C_6  and  C_8
REMARK    4  A    between atoms: C_8  and  C_10
REMARK    5  A    between atoms: C_8  and  N_14
REMARK    6  A    between atoms: C_10  and  C_11
REMARK    7  A    between atoms: N_14  and  S_15
REMARK    8  A    between atoms: S_15  and  C_18
REMARK    9  A    between atoms: C_25  and  C_31
REMARK   10  A    between atoms: C_28  and  C_30
REMARK                            x       y       z     vdW  Elec       q    Type
REMARK                         _______ _______ _______ _____ _____    ______ ____
ROOT
ATOM      1  S   UNL     1      -2.776  -0.865  -1.481  0.00  0.00    +0.059 S 
ATOM      2  O   UNL     1      -2.022  -2.029  -1.792  0.00  0.00    -0.153 OA
ATOM      3  O   UNL     1      -3.951  -0.909  -0.682  0.00  0.00    -0.153 OA
ENDROOT
BRANCH   1   4
ATOM      4  C   UNL     1      -3.239  -0.139  -3.018  0.00  0.00    +0.106 A 
ATOM      5  C   UNL     1      -2.495  -0.391  -4.156  0.00  0.00    +0.030 A 
ATOM      6  C   UNL     1      -2.854   0.176  -5.360  0.00  0.00    +0.026 A 
ATOM      7  C   UNL     1      -3.972   1.008  -5.440  0.00  0.00    +0.040 A 
ATOM      8  C   UNL     1      -4.711   1.255  -4.295  0.00  0.00    -0.022 A 
ATOM      9  C   UNL     1      -4.350   0.680  -3.091  0.00  0.00    +0.034 A 
ATOM     10  C   UNL     1      -5.856   2.176  -4.649  0.00  0.00    +0.059 C 
ATOM     11  C   UNL     1      -5.690   2.438  -6.155  0.00  0.00    +0.083 C 
ATOM     12  N   UNL     1      -4.503   1.675  -6.549  0.00  0.00    -0.268 N 
ATOM     13  C   UNL     1      -3.996   1.624  -7.797  0.00  0.00    +0.217 C 
ATOM     14  O   UNL     1      -3.079   0.872  -8.048  0.00  0.00    -0.276 OA
ATOM     15  C   UNL     1      -4.570   2.502  -8.880  0.00  0.00    +0.109 C 
ATOM     16  C   UNL     1      -6.919   1.940  -6.919  0.00  0.00    +0.029 C 
ENDBRANCH   1   4
BRANCH   1  17
ATOM     17  N   UNL     1      -1.736   0.186  -0.736  0.00  0.00    -0.182 NA
ATOM     18  H   UNL     1      -0.665  -0.058  -0.692  0.00  0.00    +0.149 HD
BRANCH  17  19
ATOM     19  C   UNL     1      -2.201   1.518  -0.339  0.00  0.00    +0.117 C 
BRANCH  19  25
ATOM     20  C   UNL     1       0.648   2.934  -4.203  0.00  0.00    +0.044 C 
ATOM     21  C   UNL     1      -0.514   3.185  -3.277  0.00  0.00    -0.050 A 
ATOM     22  C   UNL     1      -1.288   4.321  -3.430  0.00  0.00    +0.003 A 
ATOM     23  C   UNL     1      -2.353   4.552  -2.581  0.00  0.00    +0.004 A 
ATOM     24  C   UNL     1      -2.647   3.646  -1.578  0.00  0.00    -0.046 A 
ATOM     25  C   UNL     1      -1.877   2.508  -1.428  0.00  0.00    -0.025 A 
ATOM     26  C   UNL     1      -0.808   2.280  -2.274  0.00  0.00    +0.009 A 
ATOM     27  C   UNL     1      -3.809   3.897  -0.653  0.00  0.00    +0.044 C 
ENDBRANCH  19  25
BRANCH  19  28
ATOM     28  C   UNL     1      -1.501   1.937   0.956  0.00  0.00    +0.150 C 
BRANCH  28  29
ATOM     29  C   UNL     1      -1.930   1.026   2.076  0.00  0.00    +0.358 C 
ATOM     30  O   UNL     1      -2.651   0.083   1.846  0.00  0.00    -0.246 OA
ATOM     31  O   UNL     1      -1.512   1.260   3.330  0.00  0.00    -0.246 OA
ENDBRANCH  28  29
ENDBRANCH  19  28
ENDBRANCH  17  19
ENDBRANCH   1  17
TORSDOF 6
