REMARK  Name = ZINC27530362
REMARK  6 active torsions:
REMARK  status: ('A' for Active; 'I' for Inactive)
REMARK    1  A    between atoms: C_1  and  O_2
REMARK    2  A    between atoms: O_2  and  C_3
REMARK    3  A    between atoms: C_6  and  C_9
REMARK    4  A    between atoms: N_13  and  C_17
REMARK    5  A    between atoms: C_20  and  C_24
REMARK    6  A    between atoms: C_21  and  O_23
REMARK                            x       y       z     vdW  Elec       q    Type
REMARK                         _______ _______ _______ _____ _____    ______ ____
ROOT
ATOM      1  C   UNL     1       3.429  -2.559   3.922  0.00  0.00    +0.028 C 
ATOM      2  C   UNL     1       3.673  -1.808   5.027  0.00  0.00    +0.077 C 
ATOM      3  C   UNL     1       3.795  -0.343   5.160  0.00  0.00    +0.263 C 
ATOM      4  O   UNL     1       3.677   0.398   4.202  0.00  0.00    -0.269 OA
ATOM      5  N   UNL     1       4.034   0.124   6.374  0.00  0.00    -0.223 N 
ATOM      6  C   UNL     1       4.171  -0.702   7.432  0.00  0.00    +0.125 C 
ATOM      7  S   UNL     1       4.488  -0.294   9.064  0.00  0.00    -0.027 S 
ATOM      8  S   UNL     1       3.943  -2.322   6.717  0.00  0.00    -0.061 S 
ENDROOT
BRANCH   1  12
ATOM      9  C   UNL     1       2.351  -0.682   0.276  0.00  0.00    +0.120 A 
ATOM     10  C   UNL     1       1.824  -0.218   1.476  0.00  0.00    +0.046 A 
ATOM     11  C   UNL     1       2.167  -0.827   2.663  0.00  0.00    +0.011 A 
ATOM     12  C   UNL     1       3.056  -1.909   2.660  0.00  0.00    -0.024 A 
ATOM     13  C   UNL     1       3.588  -2.368   1.448  0.00  0.00    +0.011 A 
ATOM     14  C   UNL     1       3.234  -1.755   0.268  0.00  0.00    +0.046 A 
BRANCH   9  16
ATOM     15  C   UNL     1       1.093   1.016  -0.811  0.00  0.00    +0.277 C 
ATOM     16  O   UNL     1       2.005  -0.081  -0.891  0.00  0.00    -0.495 OA
ENDBRANCH   9  16
ENDBRANCH   1  12
BRANCH   5  17
ATOM     17  C   UNL     1       4.153   1.502   6.564  0.00  0.00    +0.046 A 
ATOM     18  C   UNL     1       3.028   2.259   6.880  0.00  0.00    +0.025 A 
ATOM     19  C   UNL     1       3.134   3.607   7.073  0.00  0.00    +0.020 A 
ATOM     20  C   UNL     1       4.376   4.238   6.944  0.00  0.00    +0.105 A 
ATOM     21  C   UNL     1       5.512   3.480   6.620  0.00  0.00    +0.133 A 
ATOM     22  C   UNL     1       5.393   2.114   6.432  0.00  0.00    +0.070 A 
BRANCH  20  23
ATOM     23  C   UNL     1       4.490   5.691   7.147  0.00  0.00    +0.390 C 
ATOM     24  O   UNL     1       5.570   6.237   7.034  0.00  0.00    -0.240 OA
ATOM     25  O   UNL     1       3.397   6.417   7.457  0.00  0.00    -0.240 OA
ENDBRANCH  20  23
BRANCH  21  26
ATOM     26  O   UNL     1       6.720   4.083   6.492  0.00  0.00    -0.506 OA
ATOM     27  H   UNL     1       7.609   3.486   6.239  0.00  0.00    +0.292 HD
ENDBRANCH  21  26
ENDBRANCH   5  17
TORSDOF 5
