REMARK  Name = ZINC35534311
REMARK  4 active torsions:
REMARK  status: ('A' for Active; 'I' for Inactive)
REMARK    1  A    between atoms: C_9  and  C_11
REMARK    2  A    between atoms: C_11  and  N_12
REMARK    3  A    between atoms: N_20  and  C_21
REMARK    4  A    between atoms: C_21  and  C_22
REMARK                            x       y       z     vdW  Elec       q    Type
REMARK                         _______ _______ _______ _____ _____    ______ ____
ROOT
ATOM      1  N   UNL     1       6.451   0.802   1.328  0.00  0.00    -0.291 NA
ATOM      2  C   UNL     1       6.076   2.039   2.027  0.00  0.00    +0.104 C 
ATOM      3  C   UNL     1       6.462   1.923   3.505  0.00  0.00    +0.124 C 
ATOM      4  N   UNL     1       7.887   1.568   3.590  0.00  0.00    -0.283 N 
ATOM      5  C   UNL     1       8.366   0.420   2.806  0.00  0.00    +0.124 C 
ATOM      6  C   UNL     1       7.905   0.595   1.355  0.00  0.00    +0.104 C 
ATOM      7  C   UNL     1       8.732   2.277   4.366  0.00  0.00    +0.302 C 
ATOM      8  O   UNL     1       8.340   3.279   4.933  0.00  0.00    -0.253 OA
ATOM      9  N   UNL     1      10.009   1.874   4.513  0.00  0.00    -0.297 N 
ATOM     10  H   UNL     1      10.341   1.118   4.005  0.00  0.00    +0.150 HD
ENDROOT
BRANCH   1  11
ATOM     11  C   UNL     1       5.945   0.803  -0.051  0.00  0.00    +0.180 C 
BRANCH  11  20
ATOM     12  C   UNL     1      -0.023   1.376   0.024  0.00  0.00    +0.022 A 
ATOM     13  C   UNL     1       1.153   2.092   0.016  0.00  0.00    +0.033 A 
ATOM     14  C   UNL     1       2.374   1.417  -0.003  0.00  0.00    +0.110 A 
ATOM     15  C   UNL     1       2.393   0.013  -0.015  0.00  0.00    +0.157 A 
ATOM     16  C   UNL     1       1.200  -0.692  -0.006  0.00  0.00    +0.068 A 
ATOM     17  C   UNL     1      -0.001  -0.012   0.012  0.00  0.00    +0.045 A 
ATOM     18 CL   UNL     1      -1.494  -0.898   0.022  0.00  0.00    -0.083 Cl
ATOM     19  O   UNL     1       3.695  -0.347  -0.034  0.00  0.00    -0.438 OA
ATOM     20  C   UNL     1       4.439   0.771  -0.033  0.00  0.00    +0.211 A 
ATOM     21  N   UNL     1       3.674   1.821  -0.016  0.00  0.00    -0.212 NA
ENDBRANCH  11  20
ENDBRANCH   1  11
BRANCH   9  22
ATOM     22  C   UNL     1      10.897   2.580   5.441  0.00  0.00    +0.137 C 
BRANCH  22  23
ATOM     23  C   UNL     1      12.281   1.927   5.418  0.00  0.00    +0.135 C 
ATOM     24  C   UNL     1      13.226   2.637   6.420  0.00  0.00    +0.035 C 
ATOM     25  C   UNL     1      14.247   1.505   6.715  0.00  0.00    +0.031 C 
ATOM     26  C   UNL     1      13.364   0.241   6.644  0.00  0.00    +0.160 C 
ATOM     27  O   UNL     1      12.198   0.568   5.876  0.00  0.00    -0.375 OA
ENDBRANCH  22  23
ENDBRANCH   9  22
TORSDOF 4
