REMARK  Name = ZINC59290024
REMARK  7 active torsions:
REMARK  status: ('A' for Active; 'I' for Inactive)
REMARK    1  A    between atoms: C_1  and  C_2
REMARK    2  A    between atoms: C_4  and  C_27
REMARK    3  A    between atoms: C_9  and  C_10
REMARK    4  A    between atoms: C_10  and  N_11
REMARK    5  A    between atoms: C_12  and  C_14
REMARK    6  A    between atoms: C_14  and  O_15
REMARK    7  A    between atoms: O_15  and  C_16
REMARK                            x       y       z     vdW  Elec       q    Type
REMARK                         _______ _______ _______ _____ _____    ______ ____
ROOT
ATOM      1  N   UNL     1      -1.348   0.142   2.992  0.00  0.00    -0.308 N 
ATOM      2  C   UNL     1      -1.592   0.762   4.163  0.00  0.00    +0.251 C 
ATOM      3  O   UNL     1      -0.674   1.227   4.806  0.00  0.00    -0.272 OA
ATOM      4  H   UNL     1      -2.083  -0.230   2.478  0.00  0.00    +0.149 HD
ENDROOT
BRANCH   1   5
ATOM      5  C   UNL     1       0.025   0.030   2.493  0.00  0.00    +0.145 C 
BRANCH   5  14
ATOM      6  C   UNL     1      -0.018   1.503   0.010  0.00  0.00    +0.044 C 
ATOM      7  C   UNL     1       0.002  -0.004   0.002  0.00  0.00    -0.039 A 
ATOM      8  C   UNL     1       0.006  -0.706  -1.212  0.00  0.00    +0.024 A 
ATOM      9  C   UNL     1       0.025  -2.059  -1.209  0.00  0.00    +0.016 A 
ATOM     10  N   UNL     1       0.040  -2.750  -0.040  0.00  0.00    -0.326 N 
ATOM     11  H   UNL     1       0.054  -3.720  -0.057  0.00  0.00    +0.169 HD
ATOM     12  C   UNL     1       0.037  -2.105   1.141  0.00  0.00    +0.254 A 
ATOM     13  O   UNL     1       0.051  -2.740   2.183  0.00  0.00    -0.268 OA
ATOM     14  C   UNL     1       0.023  -0.700   1.175  0.00  0.00    +0.037 A 
ATOM     15  C   UNL     1       0.029  -2.807  -2.517  0.00  0.00    +0.063 C 
ENDBRANCH   5  14
ENDBRANCH   1   5
BRANCH   2  16
ATOM     16  C   UNL     1      -3.004   0.877   4.676  0.00  0.00    +0.324 C 
BRANCH  16  17
ATOM     17  O   UNL     1      -3.002   1.569   5.926  0.00  0.00    -0.483 OA
BRANCH  17  18
ATOM     18  C   UNL     1      -4.206   1.759   6.528  0.00  0.00    +0.122 A 
ATOM     19  C   UNL     1      -5.367   1.276   5.917  0.00  0.00    +0.046 A 
ATOM     20  C   UNL     1      -6.585   1.449   6.495  0.00  0.00    +0.012 A 
ATOM     21  C   UNL     1      -6.684   2.124   7.724  0.00  0.00    -0.017 A 
ATOM     22  C   UNL     1      -7.927   2.321   8.350  0.00  0.00    +0.023 A 
ATOM     23  C   UNL     1      -7.986   2.979   9.541  0.00  0.00    +0.018 A 
ATOM     24  C   UNL     1      -6.829   3.462  10.152  0.00  0.00    +0.016 A 
ATOM     25  C   UNL     1      -5.609   3.290   9.575  0.00  0.00    +0.010 A 
ATOM     26  C   UNL     1      -5.508   2.615   8.346  0.00  0.00    -0.014 A 
ATOM     27  C   UNL     1      -4.265   2.414   7.725  0.00  0.00    +0.054 A 
ATOM     28 BR   UNL     1      -9.661   3.241  10.378  0.00  0.00    -0.050 Br
ENDBRANCH  17  18
ENDBRANCH  16  17
ENDBRANCH   2  16
TORSDOF 5
