REMARK  Name = ZINC40346640
REMARK  7 active torsions:
REMARK  status: ('A' for Active; 'I' for Inactive)
REMARK    1  A    between atoms: C_1  and  C_2
REMARK    2  A    between atoms: C_2  and  N_3
REMARK    3  A    between atoms: N_3  and  C_4
REMARK    4  A    between atoms: N_3  and  S_11
REMARK    5  A    between atoms: C_4  and  C_5
REMARK    6  A    between atoms: S_11  and  C_14
REMARK    7  A    between atoms: C_18  and  N_20
REMARK                            x       y       z     vdW  Elec       q    Type
REMARK                         _______ _______ _______ _____ _____    ______ ____
ROOT
ATOM      1  S   UNL     1       2.322  -0.861   1.097  0.00  0.00    +0.061 S 
ATOM      2  O   UNL     1       2.586  -1.786   2.143  0.00  0.00    -0.153 OA
ATOM      3  O   UNL     1       2.594  -1.155  -0.266  0.00  0.00    -0.153 OA
ENDROOT
BRANCH   1   4
ATOM      4  C   UNL     1       3.218   0.606   1.484  0.00  0.00    +0.107 A 
ATOM      5  C   UNL     1       3.568   1.487   0.477  0.00  0.00    +0.030 A 
ATOM      6  C   UNL     1       4.271   2.640   0.775  0.00  0.00    +0.024 A 
ATOM      7  C   UNL     1       4.627   2.915   2.082  0.00  0.00    +0.062 A 
ATOM      8  C   UNL     1       4.276   2.031   3.096  0.00  0.00    +0.045 A 
ATOM      9  C   UNL     1       3.564   0.878   2.793  0.00  0.00    +0.052 A 
ATOM     10 CL   UNL     1       5.511   4.361   2.457  0.00  0.00    -0.082 Cl
BRANCH   8  11
ATOM     11  N   UNL     1       4.633   2.306   4.419  0.00  0.00    -0.357 N 
ATOM     12  H   UNL     1       5.127   3.114   4.630  0.00  0.00    +0.142 HD
ATOM     13  H   UNL     1       4.388   1.689   5.126  0.00  0.00    +0.142 HD
ENDBRANCH   8  11
ENDBRANCH   1   4
BRANCH   1  14
ATOM     14  N   UNL     1       0.711  -0.489   1.189  0.00  0.00    -0.172 NA
BRANCH  14  16
ATOM     15  C   UNL     1      -0.019   1.526   0.010  0.00  0.00    +0.022 C 
ATOM     16  C   UNL     1       0.002  -0.004   0.002  0.00  0.00    +0.106 C 
ENDBRANCH  14  16
BRANCH  14  17
ATOM     17  C   UNL     1      -0.006  -0.646   2.457  0.00  0.00    +0.151 C 
BRANCH  17  18
ATOM     18  C   UNL     1      -0.683  -1.992   2.488  0.00  0.00    +0.007 A 
ATOM     19  C   UNL     1      -0.208  -3.176   2.946  0.00  0.00    +0.014 A 
ATOM     20  C   UNL     1      -1.015  -4.296   2.874  0.00  0.00    +0.028 A 
ATOM     21  C   UNL     1      -2.260  -4.176   2.348  0.00  0.00    +0.078 A 
ATOM     22  S   UNL     1      -2.322  -2.439   1.940  0.00  0.00    -0.080 S 
ATOM     23 CL   UNL     1      -3.478  -5.394   2.132  0.00  0.00    -0.076 Cl
ENDBRANCH  17  18
ENDBRANCH  14  17
ENDBRANCH   1  14
TORSDOF 6
