REMARK  Name = ZINC31161665
REMARK  12 active torsions:
REMARK  status: ('A' for Active; 'I' for Inactive)
REMARK    1  A    between atoms: C_1  and  C_2
REMARK    2  A    between atoms: C_2  and  C_4
REMARK    3  A    between atoms: C_2  and  N_34
REMARK    4  A    between atoms: C_6  and  O_33
REMARK    5  A    between atoms: C_9  and  C_32
REMARK    6  A    between atoms: C_10  and  C_31
REMARK    7  A    between atoms: C_24  and  N_29
REMARK    8  A    between atoms: C_26  and  C_27
REMARK    9  A    between atoms: C_26  and  C_28
REMARK   10  A    between atoms: N_29  and  C_30
REMARK   11  A    between atoms: N_34  and  C_35
REMARK   12  A    between atoms: C_36  and  C_38
REMARK                            x       y       z     vdW  Elec       q    Type
REMARK                         _______ _______ _______ _____ _____    ______ ____
ROOT
ATOM      1  C   UNL     1       2.280   0.707   2.472  0.00  0.00    +0.044 C 
ATOM      2  C   UNL     1       2.791   2.104   2.898  0.00  0.00    +0.120 C 
ATOM      3  C   UNL     1       2.977   2.051   4.438  0.00  0.00    +0.039 C 
ATOM      4  C   UNL     1       3.162   0.554   4.715  0.00  0.00    -0.017 C 
ATOM      5  C   UNL     1       2.110  -0.082   3.771  0.00  0.00    -0.016 C 
ATOM      6  C   UNL     1       2.448  -1.563   3.676  0.00  0.00    +0.035 C 
ATOM      7  C   UNL     1       2.463  -2.116   5.081  0.00  0.00    -0.023 C 
ATOM      8  C   UNL     1       2.610  -1.375   6.183  0.00  0.00    -0.048 C 
ATOM      9  C   UNL     1       2.886   0.103   6.128  0.00  0.00    +0.025 C 
ATOM     10  C   UNL     1       4.014   0.474   7.046  0.00  0.00    +0.009 C 
ATOM     11  C   UNL     1       3.662   0.378   8.508  0.00  0.00    +0.009 C 
ATOM     12  C   UNL     1       3.937  -0.956   9.107  0.00  0.00    +0.019 C 
ATOM     13  C   UNL     1       3.014  -2.034   8.582  0.00  0.00    -0.066 C 
ATOM     14  C   UNL     1       2.425  -2.085   7.443  0.00  0.00    +0.003 C 
ATOM     15  C   UNL     1       2.970  -3.258   9.505  0.00  0.00    +0.029 C 
ATOM     16  C   UNL     1       4.411  -3.790   9.549  0.00  0.00    -0.011 C 
ATOM     17  C   UNL     1       5.385  -2.720  10.032  0.00  0.00    -0.066 C 
ATOM     18  C   UNL     1       5.354  -1.482   9.121  0.00  0.00    -0.041 C 
ATOM     19  C   UNL     1       5.777  -1.871   7.703  0.00  0.00    +0.010 C 
ATOM     20  C   UNL     1       6.299  -0.411   9.670  0.00  0.00    +0.010 C 
ATOM     21  C   UNL     1       0.699   0.110   4.332  0.00  0.00    +0.012 C 
ATOM     22  C   UNL     1       4.568   0.118   4.296  0.00  0.00    +0.012 C 
ENDROOT
BRANCH  17  23
ATOM     23  N   UNL     1       5.021  -2.320  11.398  0.00  0.00    +0.379 N 
ATOM     24  C   UNL     1       5.581  -3.252  12.386  0.00  0.00    -0.100 C 
ATOM     25  H   UNL     1       5.412  -1.313  11.602  0.00  0.00    -0.086 HD
ATOM     26  H   UNL     1       3.925  -2.316  11.499  0.00  0.00    -0.086 HD
ENDBRANCH  17  23
BRANCH   1  28
ATOM     27  C   UNL     1       1.091   1.762   0.545  0.00  0.00    +0.028 C 
ATOM     28  C   UNL     1       0.937   0.832   1.750  0.00  0.00    +0.079 C 
BRANCH  28  29
ATOM     29  N   UNL     1       0.501  -0.490   1.294  0.00  0.00    -0.302 N 
ATOM     30  C   UNL     1       1.390  -1.309   0.467  0.00  0.00    +0.132 C 
ATOM     31  C   UNL     1      -0.717  -0.954   1.637  0.00  0.00    +0.212 C 
ATOM     32  O   UNL     1      -1.488  -0.241   2.244  0.00  0.00    -0.276 OA
ATOM     33  C   UNL     1      -1.121  -2.357   1.265  0.00  0.00    +0.109 C 
ENDBRANCH  28  29
ENDBRANCH   1  28
BRANCH   2  34
ATOM     34  O   UNL     1       4.040   2.384   2.263  0.00  0.00    -0.391 OA
ATOM     35  H   UNL     1       4.552   3.339   2.453  0.00  0.00    +0.210 HD
ENDBRANCH   2  34
TORSDOF 4
