REMARK  Name = ZINC35552875
REMARK  8 active torsions:
REMARK  status: ('A' for Active; 'I' for Inactive)
REMARK    1  A    between atoms: C_1  and  C_2
REMARK    2  A    between atoms: C_4  and  C_33
REMARK    3  A    between atoms: C_6  and  C_8
REMARK    4  A    between atoms: C_6  and  C_9
REMARK    5  A    between atoms: N_11  and  N_12
REMARK    6  A    between atoms: C_13  and  C_15
REMARK    7  A    between atoms: C_15  and  C_16
REMARK    8  A    between atoms: C_15  and  C_22
REMARK                            x       y       z     vdW  Elec       q    Type
REMARK                         _______ _______ _______ _____ _____    ______ ____
ROOT
ATOM      1  C   UNL     1      -1.008  -1.648   1.085  0.00  0.00    +0.235 C 
ATOM      2  O   UNL     1      -1.334  -2.389   0.182  0.00  0.00    -0.274 OA
ATOM      3  N   UNL     1      -1.786  -1.538   2.180  0.00  0.00    -0.234 N 
ATOM      4  H   UNL     1      -1.526  -0.946   2.903  0.00  0.00    +0.173 HD
ENDROOT
BRANCH   1  10
ATOM      5  C   UNL     1       2.551  -3.742  -0.162  0.00  0.00    +0.021 C 
ATOM      6  C   UNL     1       1.581  -2.959   0.725  0.00  0.00    +0.046 C 
ATOM      7  C   UNL     1       2.208  -2.737   2.107  0.00  0.00    +0.031 C 
ATOM      8  C   UNL     1       1.177  -2.025   2.991  0.00  0.00    +0.046 C 
ATOM      9  C   UNL     1       0.859  -0.657   2.380  0.00  0.00    +0.032 C 
ATOM     10  C   UNL     1       0.266  -0.850   0.983  0.00  0.00    +0.047 C 
ATOM     11  C   UNL     1       1.284  -1.598   0.090  0.00  0.00    +0.032 C 
ATOM     12  C   UNL     1      -0.038   0.516   0.365  0.00  0.00    +0.021 C 
ATOM     13  C   UNL     1      -0.082  -2.853   3.036  0.00  0.00    +0.225 C 
ATOM     14  O   UNL     1      -0.787  -2.809   4.021  0.00  0.00    -0.275 OA
ATOM     15  N   UNL     1      -0.434  -3.637   2.007  0.00  0.00    -0.255 N 
ATOM     16  C   UNL     1       0.294  -3.729   0.873  0.00  0.00    +0.225 C 
ATOM     17  O   UNL     1      -0.076  -4.449  -0.030  0.00  0.00    -0.275 OA
ATOM     18  C   UNL     1       1.745  -1.841   4.400  0.00  0.00    +0.021 C 
ATOM     19  H   UNL     1      -1.254  -4.152   2.073  0.00  0.00    +0.158 HD
ENDBRANCH   1  10
BRANCH   3  20
ATOM     20  N   UNL     1      -2.971  -2.280   2.275  0.00  0.00    -0.234 N 
ATOM     21  C   UNL     1      -3.749  -2.171   3.371  0.00  0.00    +0.241 C 
ATOM     22  O   UNL     1      -3.423  -1.430   4.274  0.00  0.00    -0.273 OA
ATOM     23  H   UNL     1      -3.231  -2.873   1.553  0.00  0.00    +0.173 HD
BRANCH  21  24
ATOM     24  C   UNL     1      -5.023  -2.969   3.473  0.00  0.00    +0.136 C 
BRANCH  24  25
ATOM     25  C   UNL     1      -5.701  -2.667   4.784  0.00  0.00    -0.031 A 
ATOM     26  C   UNL     1      -6.039  -3.697   5.641  0.00  0.00    +0.005 A 
ATOM     27  C   UNL     1      -6.661  -3.421   6.844  0.00  0.00    +0.000 A 
ATOM     28  C   UNL     1      -6.944  -2.113   7.191  0.00  0.00    +0.000 A 
ATOM     29  C   UNL     1      -6.606  -1.082   6.334  0.00  0.00    +0.000 A 
ATOM     30  C   UNL     1      -5.980  -1.358   5.133  0.00  0.00    +0.005 A 
ENDBRANCH  24  25
BRANCH  24  31
ATOM     31  C   UNL     1      -5.940  -2.598   2.336  0.00  0.00    -0.031 A 
ATOM     32  C   UNL     1      -6.216  -1.269   2.075  0.00  0.00    +0.005 A 
ATOM     33  C   UNL     1      -7.057  -0.929   1.033  0.00  0.00    +0.000 A 
ATOM     34  C   UNL     1      -7.623  -1.918   0.251  0.00  0.00    +0.000 A 
ATOM     35  C   UNL     1      -7.347  -3.247   0.511  0.00  0.00    +0.000 A 
ATOM     36  C   UNL     1      -6.502  -3.587   1.551  0.00  0.00    +0.005 A 
ENDBRANCH  24  31
ENDBRANCH  21  24
ENDBRANCH   3  20
TORSDOF 5
