REMARK  Name = ZINC06857631
REMARK  4 active torsions:
REMARK  status: ('A' for Active; 'I' for Inactive)
REMARK    1  A    between atoms: C_1  and  N_45
REMARK    2  A    between atoms: C_9  and  O_26
REMARK    3  A    between atoms: C_11  and  C_14
REMARK    4  A    between atoms: C_17  and  C_19
REMARK                            x       y       z     vdW  Elec       q    Type
REMARK                         _______ _______ _______ _____ _____    ______ ____
ROOT
ATOM      1  C   UNL     1      -2.488  -0.925   8.372  0.00  0.00    -0.096 C 
ATOM      2  C   UNL     1      -1.131  -1.743   6.541  0.00  0.00    -0.074 C 
ATOM      3  C   UNL     1      -1.214  -2.351   5.138  0.00  0.00    +0.018 C 
ATOM      4  C   UNL     1      -1.812  -1.308   4.201  0.00  0.00    -0.027 A 
ATOM      5  C   UNL     1      -2.482  -0.247   4.711  0.00  0.00    -0.021 A 
ATOM      6  S   UNL     1      -2.991   0.692   3.296  0.00  0.00    -0.080 S 
ATOM      7  C   UNL     1      -2.330  -0.298   2.068  0.00  0.00    +0.080 A 
ATOM      8  C   UNL     1      -1.720  -1.357   2.754  0.00  0.00    +0.067 A 
ATOM      9  C   UNL     1      -1.055  -2.404   1.935  0.00  0.00    +0.220 C 
ATOM     10  N   UNL     1      -0.871  -2.155   0.667  0.00  0.00    -0.220 NA
ATOM     11  C   UNL     1      -1.210  -0.899   0.009  0.00  0.00    +0.260 C 
ATOM     12  N   UNL     1      -2.315  -0.207   0.699  0.00  0.00    -0.311 N 
ATOM     13  C   UNL     1      -2.724   0.041   6.159  0.00  0.00    -0.036 C 
ATOM     14  H   UNL     1      -2.994   0.285   0.212  0.00  0.00    +0.149 HD
ATOM     15  N   UNL     1      -2.453  -1.203   6.920  0.00  0.00    +0.381 N 
ATOM     16  H   UNL     1      -3.175  -1.897   6.695  0.00  0.00    -0.082 HD
ENDROOT
BRANCH  11  17
ATOM     17  C   UNL     1       0.002  -0.004   0.002  0.00  0.00    +0.148 A 
ATOM     18  C   UNL     1       1.284  -0.418  -0.012  0.00  0.00    +0.049 A 
ATOM     19  C   UNL     1       2.091   0.737  -0.014  0.00  0.00    +0.050 A 
ATOM     20  C   UNL     1       1.248   1.804  -0.000  0.00  0.00    +0.135 A 
ATOM     21  O   UNL     1      -0.016   1.339   0.009  0.00  0.00    -0.456 OA
BRANCH  20  22
ATOM     22  C   UNL     1       1.649   3.226   0.003  0.00  0.00    +0.019 A 
ATOM     23  C   UNL     1       0.677   4.229   0.018  0.00  0.00    +0.011 A 
ATOM     24  C   UNL     1       1.057   5.554   0.021  0.00  0.00    +0.002 A 
ATOM     25  C   UNL     1       2.398   5.893   0.011  0.00  0.00    +0.020 A 
ATOM     26  C   UNL     1       3.368   4.905  -0.004  0.00  0.00    +0.042 A 
ATOM     27  C   UNL     1       3.000   3.574  -0.003  0.00  0.00    +0.031 A 
ATOM     28 CL   UNL     1       5.048   5.340  -0.018  0.00  0.00    -0.084 Cl
ENDBRANCH  20  22
ENDBRANCH  11  17
BRANCH   9  29
ATOM     29  O   UNL     1      -0.655  -3.574   2.484  0.00  0.00    -0.492 OA
ATOM     30  H   UNL     1      -0.235  -4.179   1.858  0.00  0.00    +0.294 HD
ENDBRANCH   9  29
TORSDOF 3
