REMARK  Name = ZINC38625930
REMARK  5 active torsions:
REMARK  status: ('A' for Active; 'I' for Inactive)
REMARK    1  A    between atoms: C_6  and  C_11
REMARK    2  A    between atoms: N_12  and  N_13
REMARK    3  A    between atoms: C_14  and  C_16
REMARK    4  A    between atoms: C_16  and  S_17
REMARK    5  A    between atoms: S_17  and  C_18
REMARK                            x       y       z     vdW  Elec       q    Type
REMARK                         _______ _______ _______ _____ _____    ______ ____
ROOT
ATOM      1  N   UNL     1       4.897  -4.444   2.201  0.00  0.00    -0.207 N 
ATOM      2  C   UNL     1       5.702  -5.517   2.070  0.00  0.00    +0.242 C 
ATOM      3  O   UNL     1       6.013  -5.911   0.966  0.00  0.00    -0.273 OA
ATOM      4  H   UNL     1       4.648  -4.129   3.084  0.00  0.00    +0.177 HD
ENDROOT
BRANCH   1   6
ATOM      5  C   UNL     1       3.656  -2.764   1.185  0.00  0.00    +0.131 C 
ATOM      6  N   UNL     1       4.420  -3.783   1.061  0.00  0.00    -0.190 NA
BRANCH   5  12
ATOM      7  C   UNL     1      -0.016   1.348   0.009  0.00  0.00    +0.001 A 
ATOM      8  C   UNL     1       1.166   2.101   0.002  0.00  0.00    +0.002 A 
ATOM      9  C   UNL     1       2.391   1.535  -0.013  0.00  0.00    +0.026 A 
ATOM     10  C   UNL     1       2.529   0.120  -0.022  0.00  0.00    +0.043 A 
ATOM     11  N   UNL     1       3.587  -0.654  -0.037  0.00  0.00    -0.373 N 
ATOM     12  C   UNL     1       3.143  -2.053  -0.041  0.00  0.00    +0.146 C 
ATOM     13  C   UNL     1       1.631  -2.008  -0.025  0.00  0.00    +0.013 C 
ATOM     14  C   UNL     1       1.295  -0.698  -0.014  0.00  0.00    -0.004 A 
ATOM     15  C   UNL     1       0.002  -0.004   0.002  0.00  0.00    +0.010 A 
ATOM     16  H   UNL     1       4.509  -0.353  -0.045  0.00  0.00    +0.161 HD
ENDBRANCH   5  12
ENDBRANCH   1   6
BRANCH   2  17
ATOM     17  C   UNL     1       6.214  -6.228   3.296  0.00  0.00    +0.169 C 
BRANCH  17  18
ATOM     18  S   UNL     1       7.263  -7.620   2.793  0.00  0.00    -0.118 S 
BRANCH  18  19
ATOM     19  C   UNL     1       7.792  -8.360   4.363  0.00  0.00    +0.193 C 
ATOM     20  N   UNL     1       6.635  -8.742   5.184  0.00  0.00    -0.323 N 
ATOM     21  C   UNL     1       6.489  -8.116   6.421  0.00  0.00    +0.042 A 
ATOM     22  C   UNL     1       5.450  -8.351   7.339  0.00  0.00    +0.024 A 
ATOM     23  C   UNL     1       5.394  -7.679   8.539  0.00  0.00    +0.002 A 
ATOM     24  C   UNL     1       6.358  -6.750   8.883  0.00  0.00    +0.001 A 
ATOM     25  C   UNL     1       7.394  -6.499   7.998  0.00  0.00    +0.016 A 
ATOM     26  C   UNL     1       7.449  -7.171   6.798  0.00  0.00    +0.031 A 
ATOM     27  S   UNL     1       8.601  -7.113   5.442  0.00  0.00    -0.090 S 
ATOM     28  H   UNL     1       5.996  -9.403   4.877  0.00  0.00    +0.148 HD
ENDBRANCH  18  19
ENDBRANCH  17  18
ENDBRANCH   2  17
TORSDOF 5
