REMARK  Name = ZINC45234801
REMARK  5 active torsions:
REMARK  status: ('A' for Active; 'I' for Inactive)
REMARK    1  A    between atoms: C_1  and  C_2
REMARK    2  A    between atoms: C_2  and  C_4
REMARK    3  A    between atoms: C_2  and  N_13
REMARK    4  A    between atoms: N_16  and  C_17
REMARK    5  A    between atoms: C_17  and  C_18
REMARK                            x       y       z     vdW  Elec       q    Type
REMARK                         _______ _______ _______ _____ _____    ______ ____
ROOT
ATOM      1  N   UNL     1       0.588  -0.978  -1.118  0.00  0.00    -0.290 N 
ATOM      2  C   UNL     1      -0.068  -0.979  -2.296  0.00  0.00    +0.300 C 
ATOM      3  O   UNL     1      -1.269  -0.793  -2.323  0.00  0.00    -0.253 OA
ATOM      4  N   UNL     1       0.609  -1.185  -3.443  0.00  0.00    -0.299 N 
ATOM      5  H   UNL     1       1.546  -1.126  -1.096  0.00  0.00    +0.151 HD
ATOM      6  H   UNL     1       1.567  -1.333  -3.421  0.00  0.00    +0.150 HD
ENDROOT
BRANCH   1   8
ATOM      7  C   UNL     1      -0.289   0.750   0.374  0.00  0.00    +0.036 C 
ATOM      8  C   UNL     1      -0.147  -0.754   0.129  0.00  0.00    +0.140 C 
BRANCH   8   9
ATOM      9  C   UNL     1       0.604  -1.381   1.275  0.00  0.00    +0.158 A 
ATOM     10  N   UNL     1       1.890  -1.291   1.498  0.00  0.00    -0.132 NA
ATOM     11  N   UNL     1       2.205  -1.944   2.561  0.00  0.00    -0.129 NA
ATOM     12  C   UNL     1       1.119  -2.493   3.080  0.00  0.00    +0.161 A 
ATOM     13  N   UNL     1       0.068  -2.139   2.270  0.00  0.00    -0.285 N 
ATOM     14  C   UNL     1      -1.197  -2.558   2.557  0.00  0.00    +0.094 A 
ATOM     15  C   UNL     1      -1.437  -3.323   3.642  0.00  0.00    +0.018 A 
ATOM     16  C   UNL     1      -0.383  -3.699   4.493  0.00  0.00    +0.005 A 
ATOM     17  C   UNL     1       0.886  -3.295   4.214  0.00  0.00    +0.048 A 
ENDBRANCH   8   9
ENDBRANCH   1   8
BRANCH   4  18
ATOM     18  C   UNL     1      -0.104  -1.186  -4.723  0.00  0.00    +0.114 C 
BRANCH  18  19
ATOM     19  C   UNL     1       0.863  -1.571  -5.845  0.00  0.00    +0.036 C 
ATOM     20  C   UNL     1       1.369  -2.992  -5.607  0.00  0.00    +0.010 C 
ATOM     21  C   UNL     1       2.158  -3.438  -6.844  0.00  0.00    +0.005 C 
ATOM     22  C   UNL     1       1.175  -3.636  -7.996  0.00  0.00    +0.035 C 
ATOM     23  C   UNL     1       0.297  -2.423  -8.158  0.00  0.00    -0.044 A 
ATOM     24  C   UNL     1       0.150  -1.478  -7.168  0.00  0.00    -0.040 A 
ATOM     25  C   UNL     1      -0.681  -0.385  -7.380  0.00  0.00    +0.004 A 
ATOM     26  C   UNL     1      -1.357  -0.240  -8.573  0.00  0.00    +0.000 A 
ATOM     27  C   UNL     1      -1.207  -1.188  -9.568  0.00  0.00    +0.000 A 
ATOM     28  C   UNL     1      -0.383  -2.273  -9.359  0.00  0.00    +0.004 A 
ENDBRANCH  18  19
ENDBRANCH   4  18
TORSDOF 4
