REMARK  Name = ZINC16382681
REMARK  4 active torsions:
REMARK  status: ('A' for Active; 'I' for Inactive)
REMARK    1  A    between atoms: C_1  and  N_2
REMARK    2  A    between atoms: C_6  and  S_7
REMARK    3  A    between atoms: S_7  and  C_8
REMARK    4  A    between atoms: N_17  and  O_18
REMARK                            x       y       z     vdW  Elec       q    Type
REMARK                         _______ _______ _______ _____ _____    ______ ____
ROOT
ATOM      1  C   UNL     1      -2.076   0.994   1.599  0.00  0.00    +0.102 C 
ATOM      2  C   UNL     1      -3.178   2.047   1.427  0.00  0.00    +0.020 C 
ATOM      3  C   UNL     1      -2.927   2.788   0.106  0.00  0.00    +0.001 C 
ATOM      4  C   UNL     1      -3.259   1.864  -1.067  0.00  0.00    +0.000 C 
ATOM      5  C   UNL     1      -2.125   0.873  -1.295  0.00  0.00    +0.000 C 
ATOM      6  C   UNL     1      -0.779   1.606  -1.221  0.00  0.00    +0.006 C 
ATOM      7  C   UNL     1      -0.013   1.086   0.008  0.00  0.00    +0.055 C 
ATOM      8  C   UNL     1      -0.742   1.584   1.235  0.00  0.00    +0.071 C 
ATOM      9  N   UNL     1      -0.227   2.506   1.958  0.00  0.00    -0.095 NA
ENDROOT
BRANCH   9  10
ATOM     10  O   UNL     1       1.028   3.060   1.610  0.00  0.00    -0.409 OA
ATOM     11  H   UNL     1       1.336   3.749   2.215  0.00  0.00    +0.328 HD
ENDBRANCH   9  10
BRANCH   1  12
ATOM     12  S   UNL     1      -2.037   0.441   3.322  0.00  0.00    -0.077 S 
BRANCH  12  18
ATOM     13  C   UNL     1      -0.799  -1.579   5.630  0.00  0.00    +0.152 C 
ATOM     14  N   UNL     1      -0.377  -1.622   4.228  0.00  0.00    -0.312 N 
ATOM     15  C   UNL     1       0.549  -2.459   3.669  0.00  0.00    +0.225 A 
ATOM     16  N   UNL     1       0.624  -2.165   2.402  0.00  0.00    -0.137 NA
ATOM     17  N   UNL     1      -0.189  -1.210   2.122  0.00  0.00    -0.123 NA
ATOM     18  C   UNL     1      -0.826  -0.834   3.207  0.00  0.00    +0.192 A 
ENDBRANCH  12  18
ENDBRANCH   1  12
TORSDOF 3
