REMARK  Name = ZINC13020153
REMARK  6 active torsions:
REMARK  status: ('A' for Active; 'I' for Inactive)
REMARK    1  A    between atoms: C_1  and  C_2
REMARK    2  A    between atoms: C_2  and  C_4
REMARK    3  A    between atoms: C_2  and  S_17
REMARK    4  A    between atoms: S_17  and  C_18
REMARK    5  A    between atoms: C_18  and  C_19
REMARK    6  A    between atoms: C_22  and  C_25
REMARK                            x       y       z     vdW  Elec       q    Type
REMARK                         _______ _______ _______ _____ _____    ______ ____
ROOT
ATOM      1  C   UNL     1      -7.620   5.598   2.965  0.00  0.00    +0.233 C 
ATOM      2  O   UNL     1      -7.197   5.038   3.954  0.00  0.00    -0.274 OA
ATOM      3  N   UNL     1      -8.527   6.588   3.087  0.00  0.00    -0.260 N 
ATOM      4  C   UNL     1      -9.052   7.287   1.905  0.00  0.00    +0.209 C 
ATOM      5  C   UNL     1      -9.132   8.760   2.194  0.00  0.00    +0.235 C 
ATOM      6  O   UNL     1      -9.021   9.555   1.285  0.00  0.00    -0.274 OA
ATOM      7  N   UNL     1      -9.319   9.207   3.450  0.00  0.00    -0.283 N 
ATOM      8  C   UNL     1      -9.400   8.314   4.523  0.00  0.00    +0.055 A 
ATOM      9  C   UNL     1      -8.997   6.989   4.348  0.00  0.00    +0.058 A 
ATOM     10  C   UNL     1      -9.064   6.096   5.402  0.00  0.00    +0.025 A 
ATOM     11  C   UNL     1      -9.536   6.520   6.632  0.00  0.00    +0.002 A 
ATOM     12  C   UNL     1      -9.939   7.831   6.807  0.00  0.00    +0.002 A 
ATOM     13  C   UNL     1      -9.872   8.729   5.758  0.00  0.00    +0.025 A 
ATOM     14  H   UNL     1      -9.399  10.161   3.612  0.00  0.00    +0.155 HD
ENDROOT
BRANCH   1  16
ATOM     15  C   UNL     1      -8.166   4.270   0.944  0.00  0.00    +0.029 C 
ATOM     16  C   UNL     1      -7.133   5.188   1.600  0.00  0.00    +0.130 C 
BRANCH  16  17
ATOM     17  S   UNL     1      -5.556   4.305   1.761  0.00  0.00    -0.144 S 
BRANCH  17  18
ATOM     18  C   UNL     1      -5.036   4.019   0.047  0.00  0.00    +0.105 C 
BRANCH  18  19
ATOM     19  C   UNL     1      -3.720   3.284   0.037  0.00  0.00    -0.037 A 
ATOM     20  C   UNL     1      -3.705   1.900   0.030  0.00  0.00    +0.005 A 
ATOM     21  C   UNL     1      -2.505   1.220   0.021  0.00  0.00    +0.015 A 
ATOM     22  C   UNL     1      -1.304   1.932   0.019  0.00  0.00    +0.063 A 
ATOM     23  C   UNL     1      -1.326   3.328   0.032  0.00  0.00    +0.015 A 
ATOM     24  C   UNL     1      -2.534   3.995   0.036  0.00  0.00    +0.005 A 
BRANCH  22  25
ATOM     25  C   UNL     1      -0.014   1.210   0.009  0.00  0.00    +0.387 C 
ATOM     26  O   UNL     1       0.002  -0.004   0.002  0.00  0.00    -0.241 OA
ATOM     27  O   UNL     1       1.143   1.900   0.001  0.00  0.00    -0.241 OA
ENDBRANCH  22  25
ENDBRANCH  18  19
ENDBRANCH  17  18
ENDBRANCH  16  17
ENDBRANCH   1  16
TORSDOF 5
