REMARK  Name = ZINC04812846
REMARK  5 active torsions:
REMARK  status: ('A' for Active; 'I' for Inactive)
REMARK    1  A    between atoms: C_4  and  C_7
REMARK    2  A    between atoms: C_14  and  N_29
REMARK    3  A    between atoms: C_15  and  C_27
REMARK    4  A    between atoms: C_16  and  C_18
REMARK    5  A    between atoms: C_23  and  O_24
REMARK                            x       y       z     vdW  Elec       q    Type
REMARK                         _______ _______ _______ _____ _____    ______ ____
ROOT
ATOM      1  C   UNL     1       3.696  -0.686  -0.038  0.00  0.00    +0.074 A 
ATOM      2  C   UNL     1       4.018  -1.743  -0.822  0.00  0.00    +0.054 A 
ATOM      3  C   UNL     1       5.341  -2.122  -0.523  0.00  0.00    +0.245 A 
ATOM      4  N   UNL     1       5.797  -1.326   0.401  0.00  0.00    -0.135 NA
ATOM      5  N   UNL     1       4.791  -0.404   0.730  0.00  0.00    -0.273 N 
ATOM      6  H   UNL     1       4.860   0.306   1.387  0.00  0.00    +0.189 HD
ATOM      7  O   UNL     1       5.951  -3.164  -1.151  0.00  0.00    -0.421 OA
ATOM      8  C   UNL     1       5.173  -3.997  -1.871  0.00  0.00    +0.201 C 
ATOM      9  C   UNL     1       3.898  -3.736  -2.228  0.00  0.00    +0.098 C 
ATOM     10  C   UNL     1       3.188  -2.458  -1.857  0.00  0.00    +0.105 C 
ENDROOT
BRANCH  10  11
ATOM     11  C   UNL     1       3.036  -1.588  -3.078  0.00  0.00    +0.010 A 
ATOM     12  C   UNL     1       4.154  -1.183  -3.781  0.00  0.00    +0.028 A 
ATOM     13  C   UNL     1       4.016  -0.383  -4.902  0.00  0.00    +0.043 A 
ATOM     14  C   UNL     1       2.758   0.013  -5.321  0.00  0.00    +0.043 A 
ATOM     15  C   UNL     1       1.637  -0.391  -4.620  0.00  0.00    +0.084 A 
ATOM     16  C   UNL     1       1.774  -1.198  -3.499  0.00  0.00    +0.139 A 
ATOM     17 CL   UNL     1       0.059   0.106  -5.146  0.00  0.00    -0.080 Cl
ATOM     18 CL   UNL     1       5.423   0.125  -5.783  0.00  0.00    -0.083 Cl
BRANCH  16  19
ATOM     19  O   UNL     1       0.672  -1.600  -2.811  0.00  0.00    -0.505 OA
ATOM     20  H   UNL     1       0.407  -0.996  -2.105  0.00  0.00    +0.292 HD
ENDBRANCH  16  19
ENDBRANCH  10  11
BRANCH   1  24
ATOM     21  C   UNL     1      -0.017   1.379   0.010  0.00  0.00    +0.000 A 
ATOM     22  C   UNL     1       1.168   2.093   0.002  0.00  0.00    +0.001 A 
ATOM     23  C   UNL     1       2.377   1.428  -0.013  0.00  0.00    +0.010 A 
ATOM     24  C   UNL     1       2.403   0.033  -0.021  0.00  0.00    +0.000 A 
ATOM     25  C   UNL     1       1.205  -0.680  -0.013  0.00  0.00    +0.010 A 
ATOM     26  C   UNL     1       0.002  -0.004   0.002  0.00  0.00    +0.001 A 
ENDBRANCH   1  24
BRANCH   8  27
ATOM     27  N   UNL     1       5.716  -5.193  -2.271  0.00  0.00    -0.328 N 
ATOM     28  H   UNL     1       6.630  -5.414  -2.033  0.00  0.00    +0.145 HD
ATOM     29  H   UNL     1       5.186  -5.816  -2.790  0.00  0.00    +0.145 HD
ENDBRANCH   8  27
BRANCH   9  30
ATOM     30  C   UNL     1       3.188  -4.716  -2.993  0.00  0.00    +0.101 C 
ATOM     31  N   UNL     1       2.624  -5.493  -3.600  0.00  0.00    -0.191 NA
ENDBRANCH   9  30
TORSDOF 5
