REMARK  Name = ZINC16906310
REMARK  8 active torsions:
REMARK  status: ('A' for Active; 'I' for Inactive)
REMARK    1  A    between atoms: C_1  and  O_2
REMARK    2  A    between atoms: O_2  and  C_3
REMARK    3  A    between atoms: C_6  and  C_14
REMARK    4  A    between atoms: C_7  and  C_11
REMARK    5  A    between atoms: C_8  and  O_9
REMARK    6  A    between atoms: O_9  and  C_10
REMARK    7  A    between atoms: N_18  and  N_22
REMARK    8  A    between atoms: C_23  and  C_25
REMARK                            x       y       z     vdW  Elec       q    Type
REMARK                         _______ _______ _______ _____ _____    ______ ____
ROOT
ATOM      1  C   UNL     1      -4.616   5.258   3.977  0.00  0.00    +0.029 C 
ATOM      2  C   UNL     1      -3.336   4.853   3.773  0.00  0.00    +0.079 C 
ATOM      3  C   UNL     1      -2.560   4.779   2.516  0.00  0.00    +0.275 C 
ATOM      4  O   UNL     1      -3.040   5.105   1.447  0.00  0.00    -0.267 OA
ATOM      5  N   UNL     1      -1.317   4.336   2.614  0.00  0.00    -0.170 N 
ATOM      6  C   UNL     1      -0.787   3.982   3.802  0.00  0.00    +0.138 C 
ATOM      7  S   UNL     1       0.789   3.398   4.131  0.00  0.00    -0.026 S 
ATOM      8  S   UNL     1      -2.124   4.268   4.950  0.00  0.00    -0.059 S 
ENDROOT
BRANCH   1  12
ATOM      9  C   UNL     1      -7.133   6.083   0.649  0.00  0.00    +0.162 A 
ATOM     10  C   UNL     1      -6.292   4.980   0.636  0.00  0.00    +0.050 A 
ATOM     11  C   UNL     1      -5.471   4.711   1.712  0.00  0.00    +0.012 A 
ATOM     12  C   UNL     1      -5.486   5.546   2.832  0.00  0.00    -0.006 A 
ATOM     13  C   UNL     1      -6.340   6.673   2.853  0.00  0.00    +0.115 A 
ATOM     14  C   UNL     1      -7.162   6.934   1.753  0.00  0.00    +0.176 A 
BRANCH  13  15
ATOM     15  C   UNL     1      -6.362   7.564   4.024  0.00  0.00    +0.391 C 
ATOM     16  O   UNL     1      -5.610   8.517   4.077  0.00  0.00    -0.240 OA
ATOM     17  O   UNL     1      -7.218   7.323   5.037  0.00  0.00    -0.240 OA
ENDBRANCH  13  15
BRANCH   9  19
ATOM     18  C   UNL     1      -7.854   5.426  -1.518  0.00  0.00    +0.277 C 
ATOM     19  O   UNL     1      -7.932   6.337  -0.420  0.00  0.00    -0.491 OA
ENDBRANCH   9  19
BRANCH  14  20
ATOM     20  O   UNL     1      -7.986   8.012   1.760  0.00  0.00    -0.491 OA
ATOM     21  C   UNL     1      -7.459   9.235   1.243  0.00  0.00    +0.277 C 
ENDBRANCH  14  20
ENDBRANCH   1  12
BRANCH   5  22
ATOM     22  N   UNL     1      -0.532   4.239   1.458  0.00  0.00    -0.226 N 
ATOM     23  C   UNL     1      -0.283   3.033   0.912  0.00  0.00    +0.233 C 
ATOM     24  O   UNL     1      -0.739   2.031   1.421  0.00  0.00    -0.274 OA
ATOM     25  H   UNL     1      -0.119   5.148   0.996  0.00  0.00    +0.173 HD
BRANCH  23  26
ATOM     26  C   UNL     1       0.561   2.928  -0.332  0.00  0.00    +0.076 C 
ATOM     27  C   UNL     1       1.952   3.502  -0.054  0.00  0.00    +0.013 C 
ATOM     28  C   UNL     1       2.809   3.396  -1.317  0.00  0.00    +0.001 C 
ATOM     29  C   UNL     1       2.936   1.927  -1.726  0.00  0.00    +0.000 C 
ATOM     30  C   UNL     1       1.545   1.353  -2.004  0.00  0.00    +0.001 C 
ATOM     31  C   UNL     1       0.687   1.459  -0.741  0.00  0.00    +0.013 C 
ENDBRANCH  23  26
ENDBRANCH   5  22
TORSDOF 6
