REMARK  Name = ZINC13064415
REMARK  9 active torsions:
REMARK  status: ('A' for Active; 'I' for Inactive)
REMARK    1  A    between atoms: C_1  and  C_2
REMARK    2  A    between atoms: C_2  and  C_3
REMARK    3  A    between atoms: C_3  and  C_5
REMARK    4  A    between atoms: C_3  and  N_69
REMARK    5  A    between atoms: N_9  and  C_10
REMARK    6  A    between atoms: C_16  and  C_17
REMARK    7  A    between atoms: C_16  and  N_69
REMARK    8  A    between atoms: C_22  and  C_23
REMARK    9  A    between atoms: C_22  and  N_69
REMARK                            x       y       z     vdW  Elec       q    Type
REMARK                         _______ _______ _______ _____ _____    ______ ____
ROOT
ATOM      1  N   UNL     1      -0.531   1.912  -1.588  0.00  0.00    +0.392 N 
ATOM      2  H   UNL     1      -1.316   1.338  -1.918  0.00  0.00    -0.080 HD
ENDROOT
BRANCH   1   3
ATOM      3  C   UNL     1      -0.205   1.526  -0.199  0.00  0.00    +0.003 C 
BRANCH   3   4
ATOM      4  C   UNL     1       0.812   2.472   0.387  0.00  0.00    +0.138 A 
ATOM      5  N   UNL     1       0.795   3.780   0.318  0.00  0.00    -0.115 NA
ATOM      6  N   UNL     1       1.832   4.225   0.941  0.00  0.00    -0.023 NA
ATOM      7  N   UNL     1       2.513   3.234   1.399  0.00  0.00    -0.044 NA
ATOM      8  N   UNL     1       1.917   2.135   1.078  0.00  0.00    -0.228 N 
BRANCH   8   9
ATOM      9  C   UNL     1       2.360   0.778   1.405  0.00  0.00    +0.111 C 
ATOM     10  C   UNL     1       2.437   0.618   2.924  0.00  0.00    +0.027 C 
ATOM     11  C   UNL     1       2.899  -0.800   3.266  0.00  0.00    +0.002 C 
ATOM     12  C   UNL     1       4.280  -1.046   2.656  0.00  0.00    +0.000 C 
ATOM     13  C   UNL     1       4.203  -0.887   1.137  0.00  0.00    +0.002 C 
ATOM     14  C   UNL     1       3.741   0.531   0.795  0.00  0.00    +0.027 C 
ENDBRANCH   8   9
ENDBRANCH   3   4
BRANCH   3  16
ATOM     15  C   UNL     1      -2.492   0.562   0.084  0.00  0.00    +0.002 C 
ATOM     16  C   UNL     1      -1.484   1.571   0.639  0.00  0.00    -0.011 C 
ENDBRANCH   3  16
ENDBRANCH   1   3
BRANCH   1  17
ATOM     17  C   UNL     1       0.636   1.679  -2.464  0.00  0.00    -0.034 C 
BRANCH  17  18
ATOM     18  C   UNL     1       0.838   0.193  -2.618  0.00  0.00    -0.027 A 
ATOM     19  C   UNL     1       0.359  -0.638  -3.576  0.00  0.00    +0.009 A 
ATOM     20  C   UNL     1       0.678  -1.982  -3.517  0.00  0.00    +0.008 A 
ATOM     21  C   UNL     1       1.459  -2.429  -2.503  0.00  0.00    +0.045 A 
ATOM     22  S   UNL     1       1.776  -0.926  -1.591  0.00  0.00    -0.103 S 
ENDBRANCH  17  18
ENDBRANCH   1  17
BRANCH   1  23
ATOM     23  C   UNL     1      -0.923   3.336  -1.638  0.00  0.00    -0.036 C 
BRANCH  23  24
ATOM     24  C   UNL     1      -1.616   3.601  -2.950  0.00  0.00    +0.001 A 
ATOM     25  C   UNL     1      -2.970   3.530  -3.026  0.00  0.00    +0.017 A 
ATOM     26  C   UNL     1      -3.613   3.798  -4.312  0.00  0.00    +0.002 A 
ATOM     27  C   UNL     1      -5.005   3.743  -4.449  0.00  0.00    +0.059 A 
ATOM     28  C   UNL     1      -5.583   3.996  -5.675  0.00  0.00    +0.163 A 
ATOM     29  C   UNL     1      -4.784   4.306  -6.779  0.00  0.00    +0.164 A 
ATOM     30  C   UNL     1      -3.406   4.361  -6.653  0.00  0.00    +0.075 A 
ATOM     31  C   UNL     1      -2.809   4.109  -5.426  0.00  0.00    +0.053 A 
ATOM     32  N   UNL     1      -1.437   4.159  -5.282  0.00  0.00    -0.322 N 
ATOM     33  H   UNL     1      -0.883   4.373  -6.050  0.00  0.00    +0.169 HD
ATOM     34  C   UNL     1      -0.856   3.916  -4.094  0.00  0.00    +0.251 A 
ATOM     35  O   UNL     1       0.359   3.969  -4.005  0.00  0.00    -0.268 OA
ATOM     36  O   UNL     1      -5.346   4.560  -7.992  0.00  0.00    -0.485 OA
ATOM     37  C   UNL     1      -6.699   4.131  -8.177  0.00  0.00    +0.270 C 
ATOM     38  C   UNL     1      -7.512   4.559  -6.947  0.00  0.00    +0.270 C 
ATOM     39  O   UNL     1      -6.939   3.936  -5.793  0.00  0.00    -0.485 OA
ENDBRANCH  23  24
ENDBRANCH   1  23
TORSDOF 8
