REMARK  Name = ZINC38847435
REMARK  12 active torsions:
REMARK  status: ('A' for Active; 'I' for Inactive)
REMARK    1  A    between atoms: C_1  and  C_2
REMARK    2  A    between atoms: C_2  and  C_3
REMARK    3  A    between atoms: N_12  and  C_13
REMARK    4  A    between atoms: C_13  and  C_14
REMARK    5  A    between atoms: C_14  and  N_15
REMARK    6  A    between atoms: N_15  and  C_16
REMARK    7  A    between atoms: N_15  and  C_17
REMARK    8  A    between atoms: C_18  and  C_20
REMARK    9  A    between atoms: N_23  and  S_26
REMARK   10  A    between atoms: S_26  and  C_29
REMARK   11  A    between atoms: C_32  and  O_35
REMARK   12  A    between atoms: O_35  and  C_36
REMARK                            x       y       z     vdW  Elec       q    Type
REMARK                         _______ _______ _______ _____ _____    ______ ____
ROOT
ATOM      1  C   UNL     1       0.643  -0.695   1.088  0.00  0.00    -0.021 A 
ATOM      2  C   UNL     1       1.998  -0.873   0.981  0.00  0.00    +0.006 A 
ATOM      3  C   UNL     1       2.817  -0.900   2.100  0.00  0.00    +0.001 A 
ATOM      4  C   UNL     1       2.255  -0.743   3.354  0.00  0.00    +0.017 A 
ATOM      5  C   UNL     1       0.900  -0.564   3.472  0.00  0.00    +0.041 A 
ATOM      6  C   UNL     1       0.035  -0.525   2.353  0.00  0.00    +0.083 A 
ATOM      7  N   UNL     1      -1.273  -0.336   2.632  0.00  0.00    -0.224 NA
ATOM      8  C   UNL     1      -1.720  -0.192   3.857  0.00  0.00    +0.168 A 
ATOM      9  S   UNL     1      -0.225  -0.329   4.827  0.00  0.00    -0.052 S 
ATOM     10  N   UNL     1      -3.021   0.008   4.290  0.00  0.00    -0.252 N 
ATOM     11  C   UNL     1      -4.026   0.076   3.394  0.00  0.00    +0.224 C 
ATOM     12  O   UNL     1      -3.804  -0.122   2.219  0.00  0.00    -0.275 OA
ENDROOT
BRANCH  11  13
ATOM     13  C   UNL     1      -5.424   0.399   3.854  0.00  0.00    +0.078 C 
ATOM     14  C   UNL     1      -6.017  -0.816   4.572  0.00  0.00    +0.030 C 
ATOM     15  C   UNL     1      -7.426  -0.473   5.068  0.00  0.00    +0.110 C 
ATOM     16  N   UNL     1      -8.224   0.006   3.931  0.00  0.00    -0.177 NA
ATOM     17  C   UNL     1      -7.702   1.111   3.117  0.00  0.00    +0.110 C 
ATOM     18  C   UNL     1      -6.290   0.751   2.643  0.00  0.00    +0.030 C 
BRANCH  16  19
ATOM     19  S   UNL     1      -9.684  -0.689   3.574  0.00  0.00    +0.061 S 
ATOM     20  O   UNL     1      -9.926  -0.440   2.196  0.00  0.00    -0.153 OA
ATOM     21  O   UNL     1      -9.654  -2.001   4.118  0.00  0.00    -0.153 OA
BRANCH  19  22
ATOM     22  C   UNL     1     -10.916   0.199   4.469  0.00  0.00    +0.106 A 
ATOM     23  C   UNL     1     -11.263  -0.201   5.747  0.00  0.00    +0.032 A 
ATOM     24  C   UNL     1     -12.228   0.492   6.450  0.00  0.00    +0.047 A 
ATOM     25  C   UNL     1     -12.849   1.591   5.875  0.00  0.00    +0.120 A 
ATOM     26  C   UNL     1     -12.498   1.991   4.593  0.00  0.00    +0.047 A 
ATOM     27  C   UNL     1     -11.529   1.297   3.896  0.00  0.00    +0.032 A 
BRANCH  25  28
ATOM     28  O   UNL     1     -13.799   2.275   6.565  0.00  0.00    -0.495 OA
ATOM     29  C   UNL     1     -14.396   3.396   5.910  0.00  0.00    +0.277 C 
ENDBRANCH  25  28
ENDBRANCH  19  22
ENDBRANCH  16  19
ENDBRANCH  11  13
BRANCH   1  31
ATOM     30  C   UNL     1      -0.411   0.775  -0.608  0.00  0.00    +0.009 C 
ATOM     31  C   UNL     1      -0.206  -0.672  -0.156  0.00  0.00    +0.034 C 
ENDBRANCH   1  31
BRANCH  10  32
ATOM     32  C   UNL     1      -3.304   0.146   5.721  0.00  0.00    +0.097 C 
BRANCH  32  33
ATOM     33  C   UNL     1      -3.074   1.597   6.149  0.00  0.00    -0.060 C 
BRANCH  33  34
ATOM     34  N   UNL     1      -3.358   1.735   7.583  0.00  0.00    +0.377 N 
ATOM     35  C   UNL     1      -3.024   3.097   8.020  0.00  0.00    -0.097 C 
ATOM     36  C   UNL     1      -4.784   1.479   7.827  0.00  0.00    -0.097 C 
ATOM     37  H   UNL     1      -2.804   1.070   8.101  0.00  0.00    -0.083 HD
ENDBRANCH  33  34
ENDBRANCH  32  33
ENDBRANCH  10  32
TORSDOF 8
