REMARK  Name = ZINC32087559
REMARK  9 active torsions:
REMARK  status: ('A' for Active; 'I' for Inactive)
REMARK    1  A    between atoms: C_1  and  C_2
REMARK    2  A    between atoms: C_2  and  C_3
REMARK    3  A    between atoms: C_2  and  C_4
REMARK    4  A    between atoms: C_4  and  N_5
REMARK    5  A    between atoms: C_16  and  O_27
REMARK    6  A    between atoms: N_22  and  C_23
REMARK    7  A    between atoms: C_23  and  C_24
REMARK    8  A    between atoms: C_23  and  C_25
REMARK    9  A    between atoms: C_23  and  C_26
REMARK                            x       y       z     vdW  Elec       q    Type
REMARK                         _______ _______ _______ _____ _____    ______ ____
ROOT
ATOM      1  N   UNL     1      -1.416  -1.993  -0.116  0.00  0.00    -0.270 N 
ATOM      2  C   UNL     1      -1.448  -2.663  -1.326  0.00  0.00    +0.042 A 
ATOM      3  C   UNL     1      -1.496  -2.150  -2.623  0.00  0.00    +0.024 A 
ATOM      4  C   UNL     1      -1.518  -3.062  -3.666  0.00  0.00    +0.003 A 
ATOM      5  C   UNL     1      -1.494  -4.424  -3.447  0.00  0.00    +0.020 A 
ATOM      6  C   UNL     1      -1.446  -4.950  -2.159  0.00  0.00    +0.047 A 
ATOM      7  C   UNL     1      -1.423  -4.048  -1.116  0.00  0.00    +0.012 A 
ATOM      8  C   UNL     1      -1.370  -4.244   0.365  0.00  0.00    +0.113 C 
ATOM      9  C   UNL     1      -1.363  -2.842   0.932  0.00  0.00    +0.235 C 
ATOM     10  O   UNL     1      -1.319  -2.539   2.106  0.00  0.00    -0.274 OA
ATOM     11  C   UNL     1      -2.587  -5.018   0.867  0.00  0.00    +0.121 C 
ATOM     12  C   UNL     1      -2.409  -6.499   0.686  0.00  0.00    +0.191 C 
ATOM     13  N   UNL     1      -1.258  -7.097   0.753  0.00  0.00    -0.198 NA
ATOM     14  C   UNL     1      -0.128  -6.359   0.950  0.00  0.00    +0.159 A 
ATOM     15  C   UNL     1      -0.126  -4.980   0.776  0.00  0.00    +0.036 A 
ATOM     16  C   UNL     1       1.150  -4.522   1.045  0.00  0.00    +0.141 A 
ATOM     17  N   UNL     1       1.905  -5.551   1.355  0.00  0.00    -0.177 NA
ATOM     18  N   UNL     1       1.127  -6.719   1.292  0.00  0.00    -0.241 N 
ATOM     19 CL   UNL     1      -1.416  -6.663  -1.879  0.00  0.00    -0.083 Cl
ENDROOT
BRANCH  18  20
ATOM     20  C   UNL     1       1.594  -8.083   1.552  0.00  0.00    +0.057 C 
ATOM     21  C   UNL     1       1.386  -8.940   0.303  0.00  0.00    +0.036 C 
ATOM     22  C   UNL     1       3.082  -8.053   1.909  0.00  0.00    +0.036 C 
ATOM     23  C   UNL     1       0.803  -8.679   2.718  0.00  0.00    +0.036 C 
ENDBRANCH  18  20
BRANCH  12  24
ATOM     24  O   UNL     1      -3.504  -7.247   0.441  0.00  0.00    -0.495 OA
ATOM     25  H   UNL     1      -3.320  -8.191   0.335  0.00  0.00    +0.293 HD
ENDBRANCH  12  24
BRANCH   1  26
ATOM     26  C   UNL     1      -1.433  -0.534   0.013  0.00  0.00    +0.116 C 
BRANCH  26  28
ATOM     27  C   UNL     1      -0.019   1.526   0.010  0.00  0.00    +0.009 C 
ATOM     28  C   UNL     1       0.002  -0.004   0.002  0.00  0.00    +0.001 C 
ATOM     29  C   UNL     1       0.742  -0.511   1.242  0.00  0.00    +0.009 C 
ENDBRANCH  26  28
ENDBRANCH   1  26
TORSDOF 4
