REMARK  Name = ZINC53373727
REMARK  9 active torsions:
REMARK  status: ('A' for Active; 'I' for Inactive)
REMARK    1  A    between atoms: C_3  and  C_6
REMARK    2  A    between atoms: C_6  and  C_8
REMARK    3  A    between atoms: C_6  and  N_25
REMARK    4  A    between atoms: C_8  and  N_9
REMARK    5  A    between atoms: C_10  and  C_12
REMARK    6  A    between atoms: C_13  and  C_14
REMARK    7  A    between atoms: C_17  and  O_20
REMARK    8  A    between atoms: O_20  and  C_21
REMARK    9  A    between atoms: C_21  and  C_22
REMARK                            x       y       z     vdW  Elec       q    Type
REMARK                         _______ _______ _______ _____ _____    ______ ____
ROOT
ATOM      1  N   UNL     1       5.757   2.151   1.318  0.00  0.00    -0.313 N 
ATOM      2  C   UNL     1       6.485   2.125   2.452  0.00  0.00    +0.237 C 
ATOM      3  O   UNL     1       5.946   1.878   3.515  0.00  0.00    -0.271 OA
ATOM      4  H   UNL     1       6.186   2.347   0.470  0.00  0.00    +0.149 HD
ENDROOT
BRANCH   2   5
ATOM      5  C   UNL     1       7.922   2.392   2.405  0.00  0.00    +0.068 C 
ATOM      6  C   UNL     1       8.650   2.365   3.541  0.00  0.00    +0.013 C 
BRANCH   6   7
ATOM      7  C   UNL     1      10.095   2.634   3.494  0.00  0.00    -0.025 A 
ATOM      8  C   UNL     1      10.716   2.923   2.273  0.00  0.00    +0.011 A 
ATOM      9  C   UNL     1      12.069   3.173   2.235  0.00  0.00    +0.046 A 
ATOM     10  C   UNL     1      12.819   3.140   3.405  0.00  0.00    +0.121 A 
ATOM     11  C   UNL     1      12.207   2.853   4.620  0.00  0.00    +0.046 A 
ATOM     12  C   UNL     1      10.853   2.607   4.670  0.00  0.00    +0.011 A 
BRANCH  10  13
ATOM     13  O   UNL     1      14.152   3.388   3.362  0.00  0.00    -0.483 OA
BRANCH  13  14
ATOM     14  C   UNL     1      14.862   3.337   4.601  0.00  0.00    +0.324 C 
BRANCH  14  15
ATOM     15  C   UNL     1      16.319   3.636   4.358  0.00  0.00    +0.248 C 
ATOM     16  O   UNL     1      16.711   3.869   3.234  0.00  0.00    -0.272 OA
ATOM     17  N   UNL     1      17.187   3.644   5.389  0.00  0.00    -0.327 N 
ATOM     18  H   UNL     1      16.874   3.457   6.288  0.00  0.00    +0.145 HD
ATOM     19  H   UNL     1      18.125   3.836   5.233  0.00  0.00    +0.145 HD
ENDBRANCH  14  15
ENDBRANCH  13  14
ENDBRANCH  10  13
ENDBRANCH   6   7
ENDBRANCH   2   5
BRANCH   1  20
ATOM     20  C   UNL     1       4.317   1.884   1.365  0.00  0.00    +0.094 C 
BRANCH  20  21
ATOM     21  C   UNL     1       3.755   1.866  -0.058  0.00  0.00    -0.013 C 
BRANCH  21  22
ATOM     22  N   UNL     1       2.341   1.472  -0.021  0.00  0.00    +0.386 N 
ATOM     23  C   UNL     1       2.215   0.123   0.571  0.00  0.00    -0.078 C 
ATOM     24  C   UNL     1       1.060  -0.548  -0.213  0.00  0.00    -0.020 C 
ATOM     25  C   UNL     1       1.296  -0.002  -1.646  0.00  0.00    -0.020 C 
ATOM     26  C   UNL     1       1.800   1.434  -1.392  0.00  0.00    -0.078 C 
ATOM     27  H   UNL     1       1.818   2.134   0.532  0.00  0.00    -0.081 HD
ENDBRANCH  21  22
BRANCH  21  30
ATOM     28  C   UNL     1       4.723   5.023  -1.958  0.00  0.00    +0.008 A 
ATOM     29  C   UNL     1       4.809   3.711  -1.529  0.00  0.00    +0.009 A 
ATOM     30  C   UNL     1       3.878   3.240  -0.664  0.00  0.00    -0.022 A 
ATOM     31  S   UNL     1       2.835   4.670  -0.430  0.00  0.00    -0.103 S 
ATOM     32  C   UNL     1       3.711   5.798  -1.500  0.00  0.00    +0.045 A 
ENDBRANCH  21  30
ENDBRANCH  20  21
ENDBRANCH   1  20
TORSDOF 9
