REMARK  Name = ZINC13147362
REMARK  11 active torsions:
REMARK  status: ('A' for Active; 'I' for Inactive)
REMARK    1  A    between atoms: C_1  and  C_2
REMARK    2  A    between atoms: C_2  and  C_3
REMARK    3  A    between atoms: C_2  and  C_4
REMARK    4  A    between atoms: C_4  and  C_5
REMARK    5  A    between atoms: C_5  and  C_34
REMARK    6  A    between atoms: C_10  and  C_13
REMARK    7  A    between atoms: C_17  and  O_20
REMARK    8  A    between atoms: C_18  and  O_19
REMARK    9  A    between atoms: O_20  and  C_21
REMARK   10  A    between atoms: N_24  and  C_27
REMARK   11  A    between atoms: C_27  and  C_28
REMARK                            x       y       z     vdW  Elec       q    Type
REMARK                         _______ _______ _______ _____ _____    ______ ____
ROOT
ATOM      1  C   UNL     1       1.892  -0.248  -1.304  0.00  0.00    +0.048 C 
ATOM      2  C   UNL     1       2.832  -0.602  -2.444  0.00  0.00    +0.086 C 
ATOM      3  C   UNL     1       4.163  -0.747  -1.613  0.00  0.00    +0.077 C 
ATOM      4  C   UNL     1       3.735  -1.609  -0.498  0.00  0.00    -0.023 C 
ATOM      5  N   UNL     1       2.411  -0.986  -0.113  0.00  0.00    +0.396 N 
ATOM      6  C   UNL     1       5.163  -0.696  -2.651  0.00  0.00    +0.225 C 
ATOM      7  O   UNL     1       6.223  -1.284  -2.683  0.00  0.00    -0.275 OA
ATOM      8  N   UNL     1       4.655   0.163  -3.594  0.00  0.00    -0.237 N 
ATOM      9  C   UNL     1       3.318   0.436  -3.407  0.00  0.00    +0.225 C 
ATOM     10  O   UNL     1       2.669   1.328  -3.909  0.00  0.00    -0.275 OA
ATOM     11  H   UNL     1       2.538  -0.347   0.657  0.00  0.00    -0.083 HD
ATOM     12  H   UNL     1       1.761  -1.712   0.149  0.00  0.00    -0.083 HD
ENDROOT
BRANCH   4  13
ATOM     13  C   UNL     1       4.713  -1.531   0.645  0.00  0.00    -0.015 A 
ATOM     14  C   UNL     1       5.661  -0.525   0.678  0.00  0.00    +0.006 A 
ATOM     15  C   UNL     1       6.559  -0.451   1.725  0.00  0.00    +0.004 A 
ATOM     16  C   UNL     1       6.515  -1.383   2.745  0.00  0.00    +0.049 A 
ATOM     17  C   UNL     1       5.569  -2.394   2.719  0.00  0.00    +0.161 A 
ATOM     18  C   UNL     1       4.660  -2.465   1.667  0.00  0.00    +0.160 A 
BRANCH  18  19
ATOM     19  O   UNL     1       3.725  -3.452   1.640  0.00  0.00    -0.503 OA
ATOM     20  H   UNL     1       4.015  -4.256   1.188  0.00  0.00    +0.292 HD
ENDBRANCH  18  19
BRANCH  17  21
ATOM     21  O   UNL     1       5.524  -3.312   3.721  0.00  0.00    -0.491 OA
ATOM     22  C   UNL     1       6.483  -3.174   4.771  0.00  0.00    +0.277 C 
ENDBRANCH  17  21
ENDBRANCH   4  13
BRANCH   1  23
ATOM     23  C   UNL     1       1.918   1.237  -1.047  0.00  0.00    +0.346 C 
ATOM     24  O   UNL     1       2.426   1.671  -0.028  0.00  0.00    -0.248 OA
ATOM     25  O   UNL     1       1.429   2.005  -1.859  0.00  0.00    -0.248 OA
ENDBRANCH   1  23
BRANCH   1  26
ATOM     26  C   UNL     1       0.469  -0.703  -1.630  0.00  0.00    +0.002 C 
BRANCH  26  28
ATOM     27  C   UNL     1      -0.593   0.852   0.012  0.00  0.00    +0.007 C 
ATOM     28  C   UNL     1      -0.396  -0.616  -0.371  0.00  0.00    -0.018 C 
ATOM     29  C   UNL     1      -1.758  -1.259  -0.642  0.00  0.00    +0.007 C 
ENDBRANCH  26  28
ENDBRANCH   1  26
BRANCH   8  30
ATOM     30  C   UNL     1       5.447   0.724  -4.691  0.00  0.00    +0.151 C 
BRANCH  30  31
ATOM     31  C   UNL     1       5.368  -0.190  -5.886  0.00  0.00    -0.030 A 
ATOM     32  C   UNL     1       6.290  -1.207  -6.041  0.00  0.00    +0.005 A 
ATOM     33  C   UNL     1       6.217  -2.046  -7.138  0.00  0.00    +0.000 A 
ATOM     34  C   UNL     1       5.221  -1.867  -8.080  0.00  0.00    +0.000 A 
ATOM     35  C   UNL     1       4.298  -0.850  -7.924  0.00  0.00    +0.000 A 
ATOM     36  C   UNL     1       4.369  -0.014  -6.825  0.00  0.00    +0.005 A 
ENDBRANCH  30  31
ENDBRANCH   8  30
TORSDOF 8
