REMARK  Name = ZINC13417252
REMARK  5 active torsions:
REMARK  status: ('A' for Active; 'I' for Inactive)
REMARK    1  A    between atoms: C_1  and  C_2
REMARK    2  A    between atoms: N_7  and  C_10
REMARK    3  A    between atoms: C_10  and  C_11
REMARK    4  A    between atoms: C_19  and  C_21
REMARK    5  A    between atoms: C_27  and  C_28
REMARK                            x       y       z     vdW  Elec       q    Type
REMARK                         _______ _______ _______ _____ _____    ______ ____
ROOT
ATOM      1  C   UNL     1      -2.001   4.906  -2.265  0.00  0.00    +0.222 C 
ENDROOT
BRANCH   1   8
ATOM      2  C   UNL     1      -4.189   5.650  -7.149  0.00  0.00    +0.046 C 
ATOM      3  C   UNL     1      -2.866   6.355  -6.994  0.00  0.00    -0.015 A 
ATOM      4  C   UNL     1      -2.163   6.267  -5.792  0.00  0.00    +0.076 A 
ATOM      5  C   UNL     1      -0.932   6.962  -5.745  0.00  0.00    +0.116 A 
ATOM      6  N   UNL     1      -0.167   6.960  -4.662  0.00  0.00    -0.230 NA
ATOM      7  C   UNL     1      -0.515   6.317  -3.580  0.00  0.00    +0.203 A 
ATOM      8  N   UNL     1      -1.670   5.610  -3.506  0.00  0.00    -0.290 N 
ATOM      9  C   UNL     1      -2.521   5.546  -4.548  0.00  0.00    +0.263 A 
ATOM     10  O   UNL     1      -3.558   4.912  -4.470  0.00  0.00    -0.267 OA
ATOM     11  S   UNL     1      -0.818   7.695  -7.358  0.00  0.00    -0.062 S 
ATOM     12  C   UNL     1      -2.353   7.080  -8.030  0.00  0.00    +0.106 A 
BRANCH  12  13
ATOM     13  C   UNL     1      -2.920   7.300  -9.362  0.00  0.00    +0.393 C 
ATOM     14  O   UNL     1      -3.989   6.800  -9.658  0.00  0.00    -0.240 OA
ATOM     15  O   UNL     1      -2.257   8.056 -10.261  0.00  0.00    -0.240 OA
ENDBRANCH  12  13
ENDBRANCH   1   8
BRANCH   1  16
ATOM     16  C   UNL     1      -1.443   3.507  -2.316  0.00  0.00    +0.236 C 
ATOM     17  O   UNL     1      -0.829   3.135  -3.293  0.00  0.00    -0.274 OA
ATOM     18  N   UNL     1      -1.627   2.670  -1.276  0.00  0.00    -0.297 N 
ATOM     19  C   UNL     1      -1.088   1.303  -1.313  0.00  0.00    +0.127 C 
ATOM     20  C   UNL     1      -0.202   1.092  -0.079  0.00  0.00    +0.127 C 
ATOM     21  N   UNL     1      -0.941   1.530   1.114  0.00  0.00    -0.292 N 
ATOM     22  C   UNL     1      -1.483   2.896   1.149  0.00  0.00    +0.127 C 
ATOM     23  C   UNL     1      -2.369   3.107  -0.086  0.00  0.00    +0.127 C 
ATOM     24  C   UNL     1      -1.121   0.694   2.155  0.00  0.00    +0.282 C 
ATOM     25  O   UNL     1      -0.793  -0.474   2.061  0.00  0.00    -0.267 OA
BRANCH  24  26
ATOM     26  C   UNL     1      -1.714   1.191   3.401  0.00  0.00    +0.189 A 
ATOM     27  C   UNL     1      -2.085   0.430   4.472  0.00  0.00    +0.054 A 
ATOM     28  C   UNL     1      -2.601   1.312   5.435  0.00  0.00    +0.042 A 
ATOM     29  C   UNL     1      -2.523   2.557   4.915  0.00  0.00    +0.196 A 
ATOM     30  O   UNL     1      -1.984   2.480   3.692  0.00  0.00    -0.458 OA
ENDBRANCH  24  26
ENDBRANCH   1  16
TORSDOF 4
