REMARK  Name = ZINC39695442
REMARK  10 active torsions:
REMARK  status: ('A' for Active; 'I' for Inactive)
REMARK    1  A    between atoms: C_1  and  C_2
REMARK    2  A    between atoms: C_2  and  C_3
REMARK    3  A    between atoms: C_3  and  C_4
REMARK    4  A    between atoms: C_4  and  C_6
REMARK    5  A    between atoms: C_4  and  C_7
REMARK    6  A    between atoms: C_11  and  C_20
REMARK    7  A    between atoms: N_22  and  C_23
REMARK    8  A    between atoms: C_23  and  C_24
REMARK    9  A    between atoms: N_29  and  C_30
REMARK   10  A    between atoms: C_30  and  C_31
REMARK                            x       y       z     vdW  Elec       q    Type
REMARK                         _______ _______ _______ _____ _____    ______ ____
ROOT
ATOM      1  C   UNL     1       1.798  -2.440  -3.019  0.00  0.00    +0.218 C 
ATOM      2  O   UNL     1       2.320  -1.646  -3.773  0.00  0.00    -0.275 OA
ATOM      3  N   UNL     1       1.909  -3.763  -3.250  0.00  0.00    -0.300 N 
ATOM      4  C   UNL     1       1.258  -4.872  -2.514  0.00  0.00    +0.121 C 
ATOM      5  C   UNL     1       0.863  -5.889  -3.608  0.00  0.00    +0.100 C 
ATOM      6  C   UNL     1       1.820  -5.600  -4.776  0.00  0.00    -0.004 C 
ATOM      7  C   UNL     1       2.705  -4.437  -4.303  0.00  0.00    +0.115 C 
ATOM      8  C   UNL     1       1.032  -5.185  -6.015  0.00  0.00    -0.010 C 
ATOM      9  C   UNL     1       2.002  -4.958  -7.179  0.00  0.00    -0.082 C 
ATOM     10  N   UNL     1       2.751  -6.193  -7.441  0.00  0.00    +0.379 N 
ATOM     11  C   UNL     1       3.578  -6.535  -6.277  0.00  0.00    -0.082 C 
ATOM     12  C   UNL     1       2.675  -6.828  -5.076  0.00  0.00    -0.010 C 
ATOM     13  H   UNL     1       2.103  -6.945  -7.624  0.00  0.00    -0.086 HD
ATOM     14  H   UNL     1       3.344  -6.061  -8.246  0.00  0.00    -0.086 HD
ENDROOT
BRANCH   5  15
ATOM     15  C   UNL     1      -0.567  -5.673  -4.033  0.00  0.00    +0.218 C 
ATOM     16  O   UNL     1      -1.073  -4.576  -3.923  0.00  0.00    -0.275 OA
ATOM     17  N   UNL     1      -1.283  -6.699  -4.535  0.00  0.00    -0.317 N 
ATOM     18  H   UNL     1      -0.903  -7.591  -4.555  0.00  0.00    +0.149 HD
BRANCH  17  19
ATOM     19  C   UNL     1      -2.635  -6.466  -5.049  0.00  0.00    +0.089 C 
BRANCH  19  20
ATOM     20  C   UNL     1      -3.268  -7.802  -5.443  0.00  0.00    -0.051 C 
ATOM     21  C   UNL     1      -2.488  -8.426  -6.619  0.00  0.00    -0.016 C 
ATOM     22  C   UNL     1      -3.609  -9.051  -7.490  0.00  0.00    -0.020 C 
ATOM     23  C   UNL     1      -4.754  -8.023  -7.311  0.00  0.00    -0.078 C 
ATOM     24  N   UNL     1      -4.653  -7.586  -5.898  0.00  0.00    +0.382 N 
ATOM     25  H   UNL     1      -5.286  -8.125  -5.327  0.00  0.00    -0.081 HD
BRANCH  24  26
ATOM     26  C   UNL     1      -4.990  -6.160  -5.796  0.00  0.00    -0.082 C 
ATOM     27  C   UNL     1      -6.460  -5.955  -6.168  0.00  0.00    -0.017 C 
ENDBRANCH  24  26
ENDBRANCH  19  20
ENDBRANCH  17  19
ENDBRANCH   5  15
BRANCH   1  28
ATOM     28  C   UNL     1       1.025  -1.947  -1.823  0.00  0.00    +0.072 C 
ATOM     29  C   UNL     1      -0.463  -2.246  -2.018  0.00  0.00    +0.017 C 
BRANCH  28  30
ATOM     30  C   UNL     1       1.226  -0.437  -1.673  0.00  0.00    +0.012 C 
BRANCH  30  32
ATOM     31  C   UNL     1       0.745   1.552  -0.240  0.00  0.00    +0.004 C 
ATOM     32  C   UNL     1       0.544   0.043  -0.390  0.00  0.00    -0.003 C 
ENDBRANCH  30  32
ENDBRANCH  28  30
ENDBRANCH   1  28
TORSDOF 7
