REMARK  Name = ZINC08272164
REMARK  8 active torsions:
REMARK  status: ('A' for Active; 'I' for Inactive)
REMARK    1  A    between atoms: C_1  and  C_2
REMARK    2  A    between atoms: C_2  and  O_3
REMARK    3  A    between atoms: O_3  and  C_4
REMARK    4  A    between atoms: C_9  and  C_10
REMARK    5  A    between atoms: C_10  and  N_11
REMARK    6  A    between atoms: C_12  and  C_14
REMARK    7  A    between atoms: C_18  and  N_20
REMARK    8  A    between atoms: C_25  and  C_28
REMARK                            x       y       z     vdW  Elec       q    Type
REMARK                         _______ _______ _______ _____ _____    ______ ____
ROOT
ATOM      1  N   UNL     1      -7.207   0.892   0.296  0.00  0.00    -0.307 N 
ATOM      2  C   UNL     1      -6.084   1.632   0.208  0.00  0.00    +0.244 C 
ATOM      3  O   UNL     1      -6.158   2.843   0.131  0.00  0.00    -0.270 OA
ATOM      4  H   UNL     1      -7.147  -0.074   0.357  0.00  0.00    +0.149 HD
ENDROOT
BRANCH   2   5
ATOM      5  C   UNL     1      -4.761   0.971   0.204  0.00  0.00    +0.038 A 
ATOM      6  C   UNL     1      -4.673  -0.419   0.291  0.00  0.00    +0.013 A 
ATOM      7  C   UNL     1      -3.438  -1.034   0.287  0.00  0.00    +0.003 A 
ATOM      8  C   UNL     1      -2.284  -0.277   0.192  0.00  0.00    +0.023 A 
ATOM      9  C   UNL     1      -2.361   1.108   0.110  0.00  0.00    +0.035 A 
ATOM     10  C   UNL     1      -3.598   1.735   0.113  0.00  0.00    +0.036 A 
BRANCH   9  11
ATOM     11  N   UNL     1      -1.191   1.870   0.018  0.00  0.00    -0.270 N 
ATOM     12  C   UNL     1      -1.125   3.079   0.610  0.00  0.00    +0.301 C 
ATOM     13  O   UNL     1      -2.109   3.545   1.151  0.00  0.00    -0.253 OA
ATOM     14  N   UNL     1       0.032   3.769   0.606  0.00  0.00    -0.313 N 
ATOM     15  H   UNL     1      -0.426   1.527  -0.471  0.00  0.00    +0.156 HD
ATOM     16  H   UNL     1       0.080   4.638   1.035  0.00  0.00    +0.146 HD
ATOM     17  H   UNL     1       0.817   3.398   0.174  0.00  0.00    +0.146 HD
ENDBRANCH   9  11
ENDBRANCH   2   5
BRANCH   1  18
ATOM     18  C   UNL     1      -8.517   1.547   0.299  0.00  0.00    +0.143 C 
BRANCH  18  24
ATOM     19  C   UNL     1      -9.909  -0.047   1.641  0.00  0.00    +0.126 A 
ATOM     20  C   UNL     1     -10.904  -1.010   1.734  0.00  0.00    +0.053 A 
ATOM     21  C   UNL     1     -11.579  -1.411   0.603  0.00  0.00    +0.001 A 
ATOM     22  C   UNL     1     -11.281  -0.861  -0.637  0.00  0.00    +0.125 A 
ATOM     23  C   UNL     1     -10.283   0.105  -0.724  0.00  0.00    +0.054 A 
ATOM     24  C   UNL     1      -9.600   0.504   0.406  0.00  0.00    +0.015 A 
ATOM     25  O   UNL     1     -12.074  -1.386  -1.613  0.00  0.00    -0.488 OA
ATOM     26  C   UNL     1     -12.639  -2.624  -1.149  0.00  0.00    +0.175 C 
ATOM     27  C   UNL     1     -12.684  -2.427   0.384  0.00  0.00    +0.083 C 
ATOM     28  C   UNL     1     -11.736  -3.804  -1.518  0.00  0.00    +0.052 C 
BRANCH  19  29
ATOM     29  O   UNL     1      -9.240   0.354   2.755  0.00  0.00    -0.492 OA
BRANCH  29  31
ATOM     30  C   UNL     1      -8.758   0.316   5.122  0.00  0.00    +0.048 C 
ATOM     31  C   UNL     1      -9.613  -0.258   3.991  0.00  0.00    +0.225 C 
ENDBRANCH  29  31
ENDBRANCH  19  29
ENDBRANCH  18  24
ENDBRANCH   1  18
TORSDOF 6
