REMARK  Name = ZINC36024628
REMARK  10 active torsions:
REMARK  status: ('A' for Active; 'I' for Inactive)
REMARK    1  A    between atoms: C_1  and  C_2
REMARK    2  A    between atoms: C_2  and  C_4
REMARK    3  A    between atoms: C_2  and  N_12
REMARK    4  A    between atoms: C_4  and  C_5
REMARK    5  A    between atoms: C_5  and  C_6
REMARK    6  A    between atoms: C_15  and  C_34
REMARK    7  A    between atoms: N_21  and  S_24
REMARK    8  A    between atoms: S_24  and  C_27
REMARK    9  A    between atoms: C_34  and  C_35
REMARK   10  A    between atoms: C_34  and  C_36
REMARK                            x       y       z     vdW  Elec       q    Type
REMARK                         _______ _______ _______ _____ _____    ______ ____
ROOT
ATOM      1  N   UNL     1      -1.366  -0.512   0.133  0.00  0.00    -0.311 N 
ATOM      2  C   UNL     1      -2.226  -0.188   1.121  0.00  0.00    +0.201 C 
ATOM      3  O   UNL     1      -1.997   0.571   2.039  0.00  0.00    -0.277 OA
ATOM      4  C   UNL     1      -3.524  -0.930   0.890  0.00  0.00    +0.022 C 
ATOM      5  N   UNL     1      -3.180  -2.004  -0.073  0.00  0.00    +0.401 N 
ATOM      6  C   UNL     1      -2.014  -1.445  -0.793  0.00  0.00    +0.006 C 
ATOM      7  C   UNL     1      -1.052  -2.571  -1.168  0.00  0.00    +0.023 C 
ATOM      8  C   UNL     1       0.171  -1.979  -1.876  0.00  0.00    +0.109 C 
ATOM      9  N   UNL     1      -0.286  -1.162  -3.008  0.00  0.00    -0.177 NA
ATOM     10  C   UNL     1      -1.270  -0.099  -2.760  0.00  0.00    +0.109 C 
ATOM     11  C   UNL     1      -2.482  -0.706  -2.046  0.00  0.00    +0.023 C 
ATOM     12  H   UNL     1      -2.930  -2.852   0.413  0.00  0.00    -0.082 HD
ATOM     13  H   UNL     1      -3.944  -2.169  -0.711  0.00  0.00    -0.082 HD
ENDROOT
BRANCH   9  14
ATOM     14  S   UNL     1       0.296  -1.433  -4.534  0.00  0.00    +0.061 S 
ATOM     15  O   UNL     1       0.138  -0.217  -5.251  0.00  0.00    -0.153 OA
ATOM     16  O   UNL     1       1.558  -2.069  -4.380  0.00  0.00    -0.153 OA
BRANCH  14  17
ATOM     17  C   UNL     1      -0.771  -2.610  -5.297  0.00  0.00    +0.106 A 
ATOM     18  C   UNL     1      -0.510  -3.962  -5.172  0.00  0.00    +0.031 A 
ATOM     19  C   UNL     1      -1.347  -4.885  -5.770  0.00  0.00    +0.040 A 
ATOM     20  C   UNL     1      -2.447  -4.456  -6.493  0.00  0.00    +0.124 A 
ATOM     21  C   UNL     1      -2.707  -3.102  -6.617  0.00  0.00    +0.040 A 
ATOM     22  C   UNL     1      -1.872  -2.180  -6.014  0.00  0.00    +0.031 A 
ATOM     23  F   UNL     1      -3.265  -5.358  -7.078  0.00  0.00    -0.205 F 
ENDBRANCH  14  17
ENDBRANCH   9  14
BRANCH   4  24
ATOM     24  C   UNL     1      -4.034  -1.531   2.201  0.00  0.00    -0.023 C 
ATOM     25  C   UNL     1      -4.308  -0.409   3.204  0.00  0.00    +0.006 C 
ATOM     26  C   UNL     1      -5.327  -2.307   1.938  0.00  0.00    +0.006 C 
ENDBRANCH   4  24
BRANCH   1  28
ATOM     27  C   UNL     1       0.009   1.508   0.235  0.00  0.00    +0.028 C 
ATOM     28  C   UNL     1       0.002  -0.004   0.002  0.00  0.00    +0.072 C 
BRANCH  28  29
ATOM     29  C   UNL     1       0.900  -0.684   1.038  0.00  0.00    +0.027 C 
BRANCH  29  30
ATOM     30  C   UNL     1       0.992  -2.180   0.729  0.00  0.00    +0.037 C 
BRANCH  30  31
ATOM     31  C   UNL     1       1.876  -2.850   1.750  0.00  0.00    -0.047 A 
ATOM     32  C   UNL     1       3.236  -2.950   1.526  0.00  0.00    +0.003 A 
ATOM     33  C   UNL     1       4.047  -3.564   2.462  0.00  0.00    +0.000 A 
ATOM     34  C   UNL     1       3.498  -4.078   3.622  0.00  0.00    +0.000 A 
ATOM     35  C   UNL     1       2.137  -3.977   3.846  0.00  0.00    +0.000 A 
ATOM     36  C   UNL     1       1.327  -3.359   2.912  0.00  0.00    +0.003 A 
ENDBRANCH  30  31
ENDBRANCH  29  30
ENDBRANCH  28  29
ENDBRANCH   1  28
TORSDOF 7
