REMARK  Name = ZINC67612884
REMARK  11 active torsions:
REMARK  status: ('A' for Active; 'I' for Inactive)
REMARK    1  A    between atoms: C_1  and  C_2
REMARK    2  A    between atoms: C_7  and  C_9
REMARK    3  A    between atoms: C_7  and  N_29
REMARK    4  A    between atoms: C_9  and  N_10
REMARK    5  A    between atoms: C_11  and  C_13
REMARK    6  A    between atoms: C_13  and  C_14
REMARK    7  A    between atoms: C_14  and  C_15
REMARK    8  A    between atoms: C_15  and  C_16
REMARK    9  A    between atoms: C_16  and  C_17
REMARK   10  A    between atoms: N_29  and  C_30
REMARK   11  A    between atoms: N_29  and  C_31
REMARK                            x       y       z     vdW  Elec       q    Type
REMARK                         _______ _______ _______ _____ _____    ______ ____
ROOT
ATOM      1  N   UNL     1      -0.700  -4.079   0.966  0.00  0.00    -0.317 N 
ATOM      2  C   UNL     1      -1.875  -4.698   0.732  0.00  0.00    +0.213 C 
ATOM      3  O   UNL     1      -2.843  -4.053   0.393  0.00  0.00    -0.276 OA
ATOM      4  H   UNL     1       0.075  -4.596   1.238  0.00  0.00    +0.149 HD
ENDROOT
BRANCH   1   5
ATOM      5  C   UNL     1      -0.595  -2.626   0.811  0.00  0.00    +0.092 C 
BRANCH   5  11
ATOM      6  C   UNL     1       0.647   1.336  -0.408  0.00  0.00    +0.007 C 
ATOM      7  C   UNL     1       0.561  -0.190  -0.335  0.00  0.00    -0.015 C 
ATOM      8  C   UNL     1       1.543  -0.805  -1.333  0.00  0.00    +0.003 C 
ATOM      9  C   UNL     1       1.456  -2.331  -1.260  0.00  0.00    -0.001 C 
ATOM     10  C   UNL     1       1.810  -2.794   0.154  0.00  0.00    -0.010 C 
ATOM     11  C   UNL     1       0.828  -2.179   1.153  0.00  0.00    -0.050 C 
ATOM     12  C   UNL     1       0.914  -0.653   1.080  0.00  0.00    -0.007 C 
BRANCH  11  13
ATOM     13  N   UNL     1       1.168  -2.624   2.511  0.00  0.00    +0.381 N 
ATOM     14  C   UNL     1       2.504  -2.129   2.869  0.00  0.00    -0.096 C 
ATOM     15  C   UNL     1       0.179  -2.096   3.461  0.00  0.00    -0.096 C 
ATOM     16  H   UNL     1       1.163  -3.632   2.546  0.00  0.00    -0.082 HD
ENDBRANCH  11  13
ENDBRANCH   5  11
ENDBRANCH   1   5
BRANCH   2  17
ATOM     17  C   UNL     1      -1.983  -6.193   0.892  0.00  0.00    +0.096 C 
BRANCH  17  18
ATOM     18  C   UNL     1      -3.411  -6.638   0.568  0.00  0.00    +0.009 C 
BRANCH  18  19
ATOM     19  C   UNL     1      -3.522  -8.155   0.730  0.00  0.00    +0.002 C 
BRANCH  19  20
ATOM     20  C   UNL     1      -4.949  -8.600   0.407  0.00  0.00    +0.016 C 
BRANCH  20  21
ATOM     21  C   UNL     1      -5.060 -10.117   0.569  0.00  0.00    +0.069 C 
ATOM     22  C   UNL     1      -6.446 -10.602   0.227  0.00  0.00    +0.108 C 
ATOM     23  C   UNL     1      -6.716 -11.925   1.008  0.00  0.00    +0.105 C 
ATOM     24  C   UNL     1      -6.561 -11.564   2.484  0.00  0.00    +0.093 C 
ATOM     25  S   UNL     1      -4.954 -10.610   2.352  0.00  0.00    -0.154 S 
ATOM     26  N   UNL     1      -8.002 -12.269   0.446  0.00  0.00    -0.294 N 
ATOM     27  C   UNL     1      -7.970 -11.816  -0.843  0.00  0.00    +0.300 C 
ATOM     28  O   UNL     1      -8.776 -12.143  -1.692  0.00  0.00    -0.253 OA
ATOM     29  N   UNL     1      -6.927 -10.973  -1.071  0.00  0.00    -0.294 N 
ATOM     30  H   UNL     1      -8.734 -12.725   0.890  0.00  0.00    +0.151 HD
ATOM     31  H   UNL     1      -6.588 -10.681  -1.932  0.00  0.00    +0.151 HD
ENDBRANCH  20  21
ENDBRANCH  19  20
ENDBRANCH  18  19
ENDBRANCH  17  18
ENDBRANCH   2  17
TORSDOF 8
