REMARK  Name = ZINC05275105
REMARK  6 active torsions:
REMARK  status: ('A' for Active; 'I' for Inactive)
REMARK    1  A    between atoms: C_1  and  O_2
REMARK    2  A    between atoms: O_2  and  C_3
REMARK    3  A    between atoms: C_8  and  C_9
REMARK    4  A    between atoms: C_9  and  C_11
REMARK    5  A    between atoms: C_9  and  C_21
REMARK    6  A    between atoms: C_16  and  O_17
REMARK                            x       y       z     vdW  Elec       q    Type
REMARK                         _______ _______ _______ _____ _____    ______ ____
ROOT
ATOM      1  C   UNL     1       0.018  -2.829  -0.013  0.00  0.00    +0.077 C 
ENDROOT
BRANCH   1   2
ATOM      2  C   UNL     1       0.134  -3.612   1.270  0.00  0.00    +0.006 A 
ATOM      3  C   UNL     1      -0.780  -4.609   1.554  0.00  0.00    +0.057 A 
ATOM      4  C   UNL     1      -0.677  -5.331   2.732  0.00  0.00    +0.167 A 
ATOM      5  C   UNL     1       0.350  -5.050   3.631  0.00  0.00    +0.170 A 
ATOM      6  C   UNL     1       1.265  -4.051   3.343  0.00  0.00    +0.095 A 
ATOM      7  C   UNL     1       1.160  -3.334   2.160  0.00  0.00    +0.124 A 
ATOM      8  O   UNL     1       0.234  -5.889   4.701  0.00  0.00    -0.452 OA
ATOM      9  C   UNL     1      -1.108  -6.407   4.641  0.00  0.00    +0.466 C 
ATOM     10  O   UNL     1      -1.435  -6.347   3.240  0.00  0.00    -0.453 OA
BRANCH   7  11
ATOM     11  O   UNL     1       2.061  -2.357   1.876  0.00  0.00    -0.506 OA
ATOM     12  H   UNL     1       1.808  -1.482   2.201  0.00  0.00    +0.292 HD
ENDBRANCH   7  11
ENDBRANCH   1   2
BRANCH   1  13
ATOM     13  C   UNL     1      -0.033  -3.796  -1.198  0.00  0.00    +0.179 C 
ATOM     14  C   UNL     1       1.265  -4.582  -1.297  0.00  0.00    +0.185 C 
ATOM     15  C   UNL     1       1.814  -4.189  -2.658  0.00  0.00    +0.307 C 
ATOM     16  O   UNL     1       1.130  -2.980  -3.019  0.00  0.00    -0.456 OA
ATOM     17  C   UNL     1      -0.113  -3.029  -2.503  0.00  0.00    +0.319 C 
ATOM     18  O   UNL     1      -1.109  -2.550  -2.991  0.00  0.00    -0.250 OA
ATOM     19  O   UNL     1       1.745  -5.338  -0.487  0.00  0.00    -0.293 OA
ENDBRANCH   1  13
BRANCH   1  25
ATOM     20  C   UNL     1      -1.162  -0.617   0.054  0.00  0.00    +0.124 A 
ATOM     21  C   UNL     1      -2.323   0.142   0.075  0.00  0.00    +0.046 A 
ATOM     22  C   UNL     1      -3.555  -0.483   0.061  0.00  0.00    +0.004 A 
ATOM     23  C   UNL     1      -3.632  -1.863   0.028  0.00  0.00    +0.001 A 
ATOM     24  C   UNL     1      -2.476  -2.622   0.008  0.00  0.00    +0.008 A 
ATOM     25  C   UNL     1      -1.241  -2.002   0.015  0.00  0.00    +0.003 A 
BRANCH  20  27
ATOM     26  C   UNL     1       0.057   1.423   0.107  0.00  0.00    +0.277 C 
ATOM     27  O   UNL     1       0.052  -0.005   0.067  0.00  0.00    -0.495 OA
ENDBRANCH  20  27
ENDBRANCH   1  25
TORSDOF 5
