REMARK  Name = ZINC13388264
REMARK  8 active torsions:
REMARK  status: ('A' for Active; 'I' for Inactive)
REMARK    1  A    between atoms: C_1  and  C_2
REMARK    2  A    between atoms: C_8  and  N_10
REMARK    3  A    between atoms: N_10  and  C_11
REMARK    4  A    between atoms: N_16  and  C_19
REMARK    5  A    between atoms: C_22  and  N_25
REMARK    6  A    between atoms: C_29  and  N_33
REMARK    7  A    between atoms: N_33  and  C_34
REMARK    8  A    between atoms: C_40  and  C_42
REMARK                            x       y       z     vdW  Elec       q    Type
REMARK                         _______ _______ _______ _____ _____    ______ ____
ROOT
ATOM      1  C   UNL     1       4.872  -3.345   3.087  0.00  0.00    +0.044 A 
ATOM      2  C   UNL     1       4.025  -4.413   3.352  0.00  0.00    +0.026 A 
ATOM      3  C   UNL     1       4.546  -5.680   3.525  0.00  0.00    +0.026 A 
ATOM      4  C   UNL     1       5.916  -5.886   3.434  0.00  0.00    +0.044 A 
ATOM      5  C   UNL     1       6.762  -4.818   3.168  0.00  0.00    +0.026 A 
ATOM      6  C   UNL     1       6.241  -3.552   2.990  0.00  0.00    +0.026 A 
ENDROOT
BRANCH   1  11
ATOM      7  C   UNL     1       3.709  -0.065   1.890  0.00  0.00    +0.026 C 
ATOM      8  C   UNL     1       3.320  -0.021   3.381  0.00  0.00    +0.090 C 
ATOM      9  C   UNL     1       3.785  -1.361   3.909  0.00  0.00    +0.225 C 
ATOM     10  O   UNL     1       3.671  -1.743   5.054  0.00  0.00    -0.275 OA
ATOM     11  N   UNL     1       4.343  -2.058   2.911  0.00  0.00    -0.212 N 
ATOM     12  C   UNL     1       4.353  -1.425   1.727  0.00  0.00    +0.213 C 
ATOM     13  O   UNL     1       4.804  -1.869   0.694  0.00  0.00    -0.277 OA
BRANCH   7  14
ATOM     14  N   UNL     1       4.669   1.001   1.574  0.00  0.00    +0.389 N 
ATOM     15  H   UNL     1       5.041   0.856   0.648  0.00  0.00    -0.084 HD
ATOM     16  H   UNL     1       5.422   0.986   2.246  0.00  0.00    -0.084 HD
BRANCH  14  23
ATOM     17  C   UNL     1       6.070   3.348   2.540  0.00  0.00    +0.006 C 
ATOM     18  C   UNL     1       5.015   3.422   1.434  0.00  0.00    -0.028 C 
ATOM     19  C   UNL     1       4.308   4.777   1.492  0.00  0.00    +0.002 C 
ATOM     20  C   UNL     1       3.254   4.851   0.386  0.00  0.00    +0.000 C 
ATOM     21  C   UNL     1       2.229   3.732   0.583  0.00  0.00    -0.002 C 
ATOM     22  C   UNL     1       2.936   2.377   0.524  0.00  0.00    -0.015 C 
ATOM     23  C   UNL     1       3.990   2.303   1.631  0.00  0.00    -0.068 C 
ENDBRANCH  14  23
ENDBRANCH   7  14
ENDBRANCH   1  11
BRANCH   4  24
ATOM     24  N   UNL     1       6.445  -7.173   3.611  0.00  0.00    -0.212 N 
ATOM     25  C   UNL     1       7.197  -7.508   4.666  0.00  0.00    +0.225 C 
ATOM     26  O   UNL     1       7.506  -6.765   5.572  0.00  0.00    -0.275 OA
ATOM     27  C   UNL     1       7.601  -8.962   4.548  0.00  0.00    +0.090 C 
ATOM     28  C   UNL     1       6.944  -9.413   3.227  0.00  0.00    +0.026 C 
ATOM     29  C   UNL     1       6.234  -8.169   2.741  0.00  0.00    +0.213 C 
ATOM     30  O   UNL     1       5.580  -8.086   1.724  0.00  0.00    -0.277 OA
BRANCH  28  31
ATOM     31  N   UNL     1       7.965  -9.845   2.263  0.00  0.00    +0.389 N 
ATOM     32  H   UNL     1       8.542  -9.057   2.008  0.00  0.00    -0.084 HD
ATOM     33  H   UNL     1       8.540 -10.562   2.680  0.00  0.00    -0.084 HD
BRANCH  31  34
ATOM     34  C   UNL     1       7.310 -10.381   1.063  0.00  0.00    -0.068 C 
ATOM     35  C   UNL     1       6.535 -11.649   1.427  0.00  0.00    -0.015 C 
ATOM     36  C   UNL     1       5.852 -12.207   0.177  0.00  0.00    -0.002 C 
ATOM     37  C   UNL     1       6.911 -12.541  -0.876  0.00  0.00    +0.000 C 
ATOM     38  C   UNL     1       7.685 -11.273  -1.241  0.00  0.00    +0.002 C 
ATOM     39  C   UNL     1       8.368 -10.715   0.010  0.00  0.00    -0.028 C 
ATOM     40  C   UNL     1       9.335 -11.759   0.572  0.00  0.00    +0.006 C 
ENDBRANCH  31  34
ENDBRANCH  28  31
ENDBRANCH   4  24
TORSDOF 6
