REMARK  Name = ZINC21812412
REMARK  6 active torsions:
REMARK  status: ('A' for Active; 'I' for Inactive)
REMARK    1  A    between atoms: C_1  and  C_2
REMARK    2  A    between atoms: C_2  and  C_3
REMARK    3  A    between atoms: C_3  and  C_5
REMARK    4  A    between atoms: C_3  and  N_13
REMARK    5  A    between atoms: C_10  and  O_11
REMARK    6  A    between atoms: N_13  and  C_14
REMARK                            x       y       z     vdW  Elec       q    Type
REMARK                         _______ _______ _______ _____ _____    ______ ____
ROOT
ATOM      1  C   UNL     1       2.207   0.770   0.874  0.00  0.00    -0.037 C 
ENDROOT
BRANCH   1   2
ATOM      2  C   UNL     1       2.818  -0.242  -0.060  0.00  0.00    -0.019 A 
ATOM      3  C   UNL     1       2.766  -0.043  -1.427  0.00  0.00    +0.020 A 
ATOM      4  C   UNL     1       3.332  -0.969  -2.284  0.00  0.00    +0.018 A 
ATOM      5  C   UNL     1       3.941  -2.103  -1.776  0.00  0.00    +0.019 A 
ATOM      6  C   UNL     1       3.991  -2.309  -0.412  0.00  0.00    +0.047 A 
ATOM      7  C   UNL     1       3.429  -1.378   0.451  0.00  0.00    +0.119 A 
ATOM      8 BR   UNL     1       3.265  -0.689  -4.153  0.00  0.00    -0.050 Br
BRANCH   7   9
ATOM      9  O   UNL     1       3.477  -1.579   1.794  0.00  0.00    -0.507 OA
ATOM     10  H   UNL     1       3.962  -2.480   2.198  0.00  0.00    +0.292 HD
ENDBRANCH   7   9
ENDBRANCH   1   2
BRANCH   1  11
ATOM     11  N   UNL     1       1.123   1.481   0.183  0.00  0.00    +0.386 N 
ATOM     12  H   UNL     1       0.906   2.421   0.712  0.00  0.00    -0.085 HD
ATOM     13  H   UNL     1       1.430   1.704  -0.850  0.00  0.00    -0.085 HD
BRANCH  11  14
ATOM     14  C   UNL     1      -0.100   0.669   0.146  0.00  0.00    -0.071 C 
ATOM     15  C   UNL     1      -0.865   0.848   1.429  0.00  0.00    -0.016 C 
ATOM     16  C   UNL     1      -1.603  -0.437   1.858  0.00  0.00    -0.002 C 
ATOM     17  C   UNL     1      -2.270  -1.169   0.677  0.00  0.00    -0.000 C 
ATOM     18  C   UNL     1      -2.946  -0.224  -0.278  0.00  0.00    -0.000 C 
ATOM     19  C   UNL     1      -1.960   0.112  -1.416  0.00  0.00    -0.002 C 
ATOM     20  C   UNL     1      -0.990   1.125  -1.028  0.00  0.00    -0.016 C 
ENDBRANCH  11  14
ENDBRANCH   1  11
BRANCH   1  22
ATOM     21  C   UNL     1       2.674   2.756   2.316  0.00  0.00    +0.002 C 
ATOM     22  C   UNL     1       3.277   1.772   1.311  0.00  0.00    -0.014 C 
ENDBRANCH   1  22
TORSDOF 5
