REMARK  Name = ZINC53185420
REMARK  4 active torsions:
REMARK  status: ('A' for Active; 'I' for Inactive)
REMARK    1  A    between atoms: N_9  and  C_10
REMARK    2  A    between atoms: C_10  and  C_11
REMARK    3  A    between atoms: N_13  and  C_14
REMARK    4  A    between atoms: C_17  and  N_20
REMARK                            x       y       z     vdW  Elec       q    Type
REMARK                         _______ _______ _______ _____ _____    ______ ____
ROOT
ATOM      1  C   UNL     1       2.397  -3.393   1.373  0.00  0.00    +0.237 C 
ATOM      2  O   UNL     1       1.943  -2.751   2.296  0.00  0.00    -0.274 OA
ATOM      3  N   UNL     1       3.308  -4.359   1.606  0.00  0.00    -0.284 N 
ATOM      4  H   UNL     1       3.622  -4.915   0.876  0.00  0.00    +0.155 HD
ENDROOT
BRANCH   3   5
ATOM      5  C   UNL     1       3.799  -4.559   2.902  0.00  0.00    +0.034 A 
ATOM      6  C   UNL     1       5.123  -4.934   3.092  0.00  0.00    +0.025 A 
ATOM      7  C   UNL     1       5.607  -5.132   4.370  0.00  0.00    +0.025 A 
ATOM      8  C   UNL     1       4.771  -4.956   5.465  0.00  0.00    +0.038 A 
ATOM      9  C   UNL     1       3.448  -4.581   5.274  0.00  0.00    +0.025 A 
ATOM     10  C   UNL     1       2.965  -4.377   3.997  0.00  0.00    +0.025 A 
BRANCH   8  11
ATOM     11  N   UNL     1       5.263  -5.157   6.761  0.00  0.00    -0.254 N 
ATOM     12  C   UNL     1       4.459  -5.123   7.992  0.00  0.00    +0.134 C 
ATOM     13  C   UNL     1       5.483  -5.403   9.109  0.00  0.00    +0.125 C 
ATOM     14  N   UNL     1       6.755  -5.565   8.389  0.00  0.00    -0.297 N 
ATOM     15  C   UNL     1       6.539  -5.417   7.075  0.00  0.00    +0.307 C 
ATOM     16  O   UNL     1       7.422  -5.507   6.244  0.00  0.00    -0.252 OA
ATOM     17  H   UNL     1       7.613  -5.754   8.800  0.00  0.00    +0.150 HD
ENDBRANCH   8  11
ENDBRANCH   3   5
BRANCH   1  18
ATOM     18  C   UNL     1       1.942  -3.110  -0.036  0.00  0.00    +0.217 C 
BRANCH  18  27
ATOM     19  C   UNL     1       0.038   1.414  -0.022  0.00  0.00    +0.011 A 
ATOM     20  C   UNL     1       1.223   2.095  -0.047  0.00  0.00    +0.021 A 
ATOM     21  C   UNL     1       2.430   1.409  -0.065  0.00  0.00    +0.043 A 
ATOM     22  C   UNL     1       2.455   0.030  -0.059  0.00  0.00    +0.046 A 
ATOM     23  C   UNL     1       1.260  -0.682  -0.035  0.00  0.00    +0.051 A 
ATOM     24  C   UNL     1       0.040   0.018  -0.016  0.00  0.00    -0.000 A 
ATOM     25  C   UNL     1      -1.012  -1.001   0.008  0.00  0.00    +0.027 A 
ATOM     26  C   UNL     1      -0.400  -2.196   0.002  0.00  0.00    +0.087 A 
ATOM     27  N   UNL     1       0.958  -2.026  -0.024  0.00  0.00    -0.338 N 
ATOM     28 CL   UNL     1       3.922   2.295  -0.096  0.00  0.00    -0.083 Cl
ENDBRANCH  18  27
ENDBRANCH   1  18
TORSDOF 4
