REMARK  Name = ZINC08642556
REMARK  6 active torsions:
REMARK  status: ('A' for Active; 'I' for Inactive)
REMARK    1  A    between atoms: C_1  and  C_2
REMARK    2  A    between atoms: C_3  and  C_8
REMARK    3  A    between atoms: C_4  and  C_7
REMARK    4  A    between atoms: C_8  and  S_9
REMARK    5  A    between atoms: S_9  and  C_10
REMARK    6  A    between atoms: N_18  and  C_19
REMARK                            x       y       z     vdW  Elec       q    Type
REMARK                         _______ _______ _______ _____ _____    ______ ____
ROOT
ATOM      1  C   UNL     1       1.603   1.125  -4.781  0.00  0.00    +0.179 A 
ATOM      2  N   UNL     1       0.401   1.333  -5.250  0.00  0.00    -0.201 NA
ATOM      3  C   UNL     1       0.101   1.102  -6.556  0.00  0.00    +0.189 A 
ATOM      4  N   UNL     1      -0.978   1.212  -7.295  0.00  0.00    -0.154 NA
ATOM      5  N   UNL     1      -0.678   0.821  -8.605  0.00  0.00    -0.282 N 
ATOM      6  C   UNL     1       0.612   0.460  -8.688  0.00  0.00    +0.120 A 
ATOM      7  C   UNL     1       1.169   0.608  -7.441  0.00  0.00    +0.103 A 
ATOM      8  C   UNL     1       2.496   0.396  -6.854  0.00  0.00    +0.270 A 
ATOM      9  N   UNL     1       2.650   0.673  -5.539  0.00  0.00    -0.255 N 
ATOM     10  O   UNL     1       3.426  -0.010  -7.526  0.00  0.00    -0.266 OA
ATOM     11  H   UNL     1      -1.308   0.813  -9.343  0.00  0.00    +0.188 HD
ENDROOT
BRANCH   9  12
ATOM     12  C   UNL     1       3.902   0.489  -4.939  0.00  0.00    +0.052 A 
ATOM     13  C   UNL     1       4.230  -0.736  -4.374  0.00  0.00    +0.026 A 
ATOM     14  C   UNL     1       5.466  -0.915  -3.784  0.00  0.00    +0.002 A 
ATOM     15  C   UNL     1       6.377   0.125  -3.757  0.00  0.00    +0.000 A 
ATOM     16  C   UNL     1       6.054   1.346  -4.319  0.00  0.00    +0.002 A 
ATOM     17  C   UNL     1       4.822   1.529  -4.915  0.00  0.00    +0.026 A 
ENDBRANCH   9  12
BRANCH   1  18
ATOM     18  S   UNL     1       1.896   1.454  -3.075  0.00  0.00    -0.082 S 
BRANCH  18  19
ATOM     19  C   UNL     1       0.287   2.019  -2.455  0.00  0.00    +0.117 C 
BRANCH  19  22
ATOM     20  C   UNL     1       1.057   4.839  -1.214  0.00  0.00    +0.069 C 
ATOM     21  C   UNL     1       0.740   3.587  -0.437  0.00  0.00    +0.085 A 
ATOM     22  C   UNL     1       0.399   2.338  -0.987  0.00  0.00    +0.027 A 
ATOM     23  C   UNL     1       0.189   1.478   0.028  0.00  0.00    +0.138 A 
ATOM     24  O   UNL     1       0.385   2.138   1.179  0.00  0.00    -0.359 OA
ATOM     25  N   UNL     1       0.739   3.472   0.861  0.00  0.00    -0.083 NA
ATOM     26  C   UNL     1      -0.198   0.027  -0.107  0.00  0.00    +0.089 C 
ENDBRANCH  19  22
ENDBRANCH  18  19
ENDBRANCH   1  18
TORSDOF 4
