REMARK  Name = ZINC04102116
REMARK  6 active torsions:
REMARK  status: ('A' for Active; 'I' for Inactive)
REMARK    1  A    between atoms: C_1  and  C_2
REMARK    2  A    between atoms: C_7  and  N_12
REMARK    3  A    between atoms: C_9  and  C_11
REMARK    4  A    between atoms: C_13  and  C_15
REMARK    5  A    between atoms: N_18  and  S_21
REMARK    6  A    between atoms: S_21  and  N_24
REMARK                            x       y       z     vdW  Elec       q    Type
REMARK                         _______ _______ _______ _____ _____    ______ ____
ROOT
ATOM      1  C   UNL     1       1.363  -0.333   6.074  0.00  0.00    +0.077 C 
ATOM      2  C   UNL     1       0.880  -1.745   6.413  0.00  0.00    +0.030 C 
ATOM      3  C   UNL     1       1.648  -2.263   7.634  0.00  0.00    +0.111 C 
ATOM      4  N   UNL     1       1.502  -1.295   8.730  0.00  0.00    -0.166 NA
ATOM      5  C   UNL     1       1.851   0.111   8.483  0.00  0.00    +0.111 C 
ATOM      6  C   UNL     1       1.081   0.601   7.253  0.00  0.00    +0.030 C 
ENDROOT
BRANCH   1   8
ATOM      7  N   UNL     1       0.735  -0.503   3.687  0.00  0.00    -0.312 N 
ATOM      8  C   UNL     1       0.634   0.166   4.853  0.00  0.00    +0.216 C 
ATOM      9  O   UNL     1      -0.044   1.170   4.919  0.00  0.00    -0.276 OA
ATOM     10  H   UNL     1       1.276  -1.306   3.634  0.00  0.00    +0.149 HD
BRANCH   7  16
ATOM     11  C   UNL     1      -0.019   1.526   0.010  0.00  0.00    +0.008 C 
ATOM     12  C   UNL     1       0.002  -0.004   0.002  0.00  0.00    -0.009 C 
ATOM     13  C   UNL     1      -1.433  -0.534   0.013  0.00  0.00    +0.003 C 
ATOM     14  C   UNL     1      -2.149  -0.040   1.272  0.00  0.00    +0.002 C 
ATOM     15  C   UNL     1      -1.409  -0.547   2.511  0.00  0.00    +0.022 C 
ATOM     16  C   UNL     1       0.026  -0.018   2.500  0.00  0.00    +0.076 C 
ATOM     17  C   UNL     1       0.742  -0.511   1.242  0.00  0.00    +0.009 C 
ATOM     18  C   UNL     1       2.178   0.019   1.231  0.00  0.00    +0.009 C 
ENDBRANCH   7  16
ENDBRANCH   1   8
BRANCH   4  19
ATOM     19  S   UNL     1       0.952  -1.779  10.215  0.00  0.00    +0.100 S 
ATOM     20  O   UNL     1       0.400  -0.628  10.839  0.00  0.00    -0.141 OA
ATOM     21  O   UNL     1       0.199  -2.966  10.003  0.00  0.00    -0.141 OA
BRANCH  19  22
ATOM     22  N   UNL     1       2.276  -2.213  11.110  0.00  0.00    -0.166 NA
ATOM     23  C   UNL     1       2.777  -3.594  11.085  0.00  0.00    +0.116 C 
ATOM     24  C   UNL     1       2.871  -4.111  12.524  0.00  0.00    +0.082 C 
ATOM     25  C   UNL     1       3.720  -3.145  13.354  0.00  0.00    +0.173 C 
ATOM     26  C   UNL     1       3.066  -1.762  13.374  0.00  0.00    +0.082 C 
ATOM     27  C   UNL     1       2.977  -1.223  11.938  0.00  0.00    +0.116 C 
ATOM     28  O   UNL     1       5.033  -3.050  12.788  0.00  0.00    -0.346 OA
ATOM     29  C   UNL     1       5.965  -3.508  13.789  0.00  0.00    +0.191 C 
ATOM     30  C   UNL     1       5.080  -4.370  14.724  0.00  0.00    +0.191 C 
ATOM     31  O   UNL     1       3.829  -3.641  14.698  0.00  0.00    -0.346 OA
ENDBRANCH  19  22
ENDBRANCH   4  19
TORSDOF 4
