REMARK  Name = ZINC60199525
REMARK  9 active torsions:
REMARK  status: ('A' for Active; 'I' for Inactive)
REMARK    1  A    between atoms: C_1  and  C_2
REMARK    2  A    between atoms: C_7  and  C_9
REMARK    3  A    between atoms: C_7  and  C_10
REMARK    4  A    between atoms: N_13  and  C_17
REMARK    5  A    between atoms: C_17  and  C_18
REMARK    6  A    between atoms: N_20  and  C_21
REMARK    7  A    between atoms: C_21  and  C_23
REMARK    8  A    between atoms: C_21  and  C_24
REMARK    9  A    between atoms: C_28  and  C_30
REMARK                            x       y       z     vdW  Elec       q    Type
REMARK                         _______ _______ _______ _____ _____    ______ ____
ROOT
ATOM      1  C   UNL     1      -4.972  -3.399  -2.310  0.00  0.00    +0.232 C 
ATOM      2  O   UNL     1      -4.651  -2.256  -2.558  0.00  0.00    -0.274 OA
ATOM      3  N   UNL     1      -6.127  -3.895  -2.795  0.00  0.00    -0.305 N 
ATOM      4  H   UNL     1      -6.383  -4.809  -2.596  0.00  0.00    +0.149 HD
ENDROOT
BRANCH   3   5
ATOM      5  C   UNL     1      -6.995  -3.054  -3.623  0.00  0.00    +0.134 C 
ATOM      6  C   UNL     1      -6.528  -3.116  -5.078  0.00  0.00    +0.036 C 
BRANCH   5   7
ATOM      7  C   UNL     1      -8.414  -3.553  -3.530  0.00  0.00    +0.105 A 
ATOM      8  N   UNL     1      -8.783  -4.834  -3.313  0.00  0.00    -0.348 N 
ATOM      9  H   UNL     1      -8.188  -5.590  -3.191  0.00  0.00    +0.167 HD
ATOM     10  C   UNL     1     -10.150  -4.870  -3.298  0.00  0.00    +0.110 A 
ATOM     11  C   UNL     1     -10.576  -3.597  -3.507  0.00  0.00    +0.064 A 
ATOM     12  N   UNL     1      -9.484  -2.816  -3.639  0.00  0.00    -0.342 N 
ATOM     13  H   UNL     1      -9.494  -1.858  -3.794  0.00  0.00    +0.167 HD
BRANCH  11  14
ATOM     14  C   UNL     1     -11.988  -3.146  -3.572  0.00  0.00    -0.000 A 
ATOM     15  C   UNL     1     -12.283  -1.804  -3.800  0.00  0.00    +0.010 A 
ATOM     16  C   UNL     1     -13.598  -1.390  -3.860  0.00  0.00    +0.001 A 
ATOM     17  C   UNL     1     -14.622  -2.305  -3.693  0.00  0.00    +0.000 A 
ATOM     18  C   UNL     1     -14.335  -3.639  -3.466  0.00  0.00    +0.001 A 
ATOM     19  C   UNL     1     -13.023  -4.065  -3.411  0.00  0.00    +0.010 A 
ENDBRANCH  11  14
ENDBRANCH   5   7
ENDBRANCH   3   5
BRANCH   1  20
ATOM     20  C   UNL     1      -4.079  -4.264  -1.458  0.00  0.00    +0.213 C 
BRANCH  20  32
ATOM     21  C   UNL     1      -0.159   1.471  -0.048  0.00  0.00    +0.007 C 
ATOM     22  C   UNL     1      -0.085  -0.057  -0.027  0.00  0.00    -0.011 C 
ATOM     23  C   UNL     1      -1.501  -0.636   0.015  0.00  0.00    +0.038 C 
ATOM     24  C   UNL     1      -1.428  -2.159   0.057  0.00  0.00    +0.113 C 
ATOM     25  C   UNL     1      -0.642  -2.627   1.276  0.00  0.00    +0.041 C 
ATOM     26  C   UNL     1       0.772  -2.041   1.230  0.00  0.00    -0.032 C 
ATOM     27  C   UNL     1       0.688  -0.513   1.212  0.00  0.00    +0.009 C 
ATOM     28  C   UNL     1       1.553  -2.495   2.465  0.00  0.00    +0.011 C 
ATOM     29  C   UNL     1       1.485  -2.527  -0.033  0.00  0.00    +0.011 C 
ATOM     30  C   UNL     1      -2.817  -2.754   0.064  0.00  0.00    +0.247 C 
ATOM     31  O   UNL     1      -3.679  -2.595   0.901  0.00  0.00    -0.273 OA
ATOM     32  N   UNL     1      -2.895  -3.499  -1.058  0.00  0.00    -0.215 N 
ATOM     33  C   UNL     1      -1.756  -3.453  -1.761  0.00  0.00    +0.310 C 
ATOM     34  O   UNL     1      -1.585  -4.042  -2.810  0.00  0.00    -0.252 OA
ATOM     35  N   UNL     1      -0.823  -2.679  -1.176  0.00  0.00    -0.285 N 
ATOM     36  H   UNL     1       0.073  -2.500  -1.504  0.00  0.00    +0.151 HD
ENDBRANCH  20  32
ENDBRANCH   1  20
TORSDOF 5
