REMARK  Name = ZINC63696558
REMARK  10 active torsions:
REMARK  status: ('A' for Active; 'I' for Inactive)
REMARK    1  A    between atoms: C_1  and  C_2
REMARK    2  A    between atoms: C_2  and  N_3
REMARK    3  A    between atoms: C_4  and  C_33
REMARK    4  A    between atoms: C_6  and  C_10
REMARK    5  A    between atoms: C_7  and  C_9
REMARK    6  A    between atoms: C_10  and  C_11
REMARK    7  A    between atoms: C_11  and  N_12
REMARK    8  A    between atoms: C_13  and  C_15
REMARK    9  A    between atoms: N_20  and  C_22
REMARK   10  A    between atoms: C_28  and  C_32
REMARK                            x       y       z     vdW  Elec       q    Type
REMARK                         _______ _______ _______ _____ _____    ______ ____
ROOT
ATOM      1  C   UNL     1       4.037  -7.807   1.011  0.00  0.00    +0.089 C 
ATOM      2  C   UNL     1       3.122  -8.678   0.146  0.00  0.00    +0.015 C 
ATOM      3  C   UNL     1       3.663 -10.110   0.126  0.00  0.00    +0.016 C 
ATOM      4  C   UNL     1       3.752 -10.636   1.560  0.00  0.00    +0.088 C 
ATOM      5  N   UNL     1       4.639  -9.770   2.347  0.00  0.00    -0.265 NA
ATOM      6  C   UNL     1       4.117  -8.399   2.420  0.00  0.00    +0.100 C 
ENDROOT
BRANCH   5   7
ATOM      7  C   UNL     1       4.859 -10.321   3.691  0.00  0.00    +0.252 C 
ATOM      8  N   UNL     1       5.450 -11.662   3.595  0.00  0.00    -0.351 N 
ATOM      9  C   UNL     1       4.622 -12.495   4.157  0.00  0.00    +0.061 A 
ATOM     10  C   UNL     1       4.657 -13.949   4.368  0.00  0.00    +0.028 A 
ATOM     11  C   UNL     1       3.631 -14.554   4.997  0.00  0.00    +0.005 A 
ATOM     12  C   UNL     1       2.510 -13.850   5.470  0.00  0.00    -0.048 A 
ATOM     13  C   UNL     1       2.377 -12.515   5.329  0.00  0.00    +0.030 A 
ATOM     14  C   UNL     1       3.435 -11.749   4.657  0.00  0.00    +0.061 A 
ATOM     15  N   UNL     1       3.575 -10.482   4.385  0.00  0.00    -0.351 N 
ATOM     16  C   UNL     1       1.412 -14.616   6.162  0.00  0.00    +0.044 C 
ATOM     17  H   UNL     1       6.301 -11.886   3.187  0.00  0.00    +0.163 HD
ATOM     18  H   UNL     1       2.947  -9.775   4.601  0.00  0.00    +0.163 HD
ENDBRANCH   5   7
BRANCH   1  20
ATOM     19  N   UNL     1       3.318  -5.688  -0.044  0.00  0.00    -0.315 N 
ATOM     20  C   UNL     1       3.479  -6.409   1.084  0.00  0.00    +0.217 C 
ATOM     21  O   UNL     1       3.176  -5.932   2.157  0.00  0.00    -0.275 OA
ATOM     22  H   UNL     1       3.560  -6.069  -0.902  0.00  0.00    +0.149 HD
BRANCH  19  23
ATOM     23  C   UNL     1       2.775  -4.329   0.027  0.00  0.00    +0.108 C 
BRANCH  23  24
ATOM     24  C   UNL     1       2.695  -3.738  -1.382  0.00  0.00    +0.052 C 
BRANCH  24  27
ATOM     25  N   UNL     1       0.690  -0.478  -1.207  0.00  0.00    -0.223 NA
ATOM     26  C   UNL     1       0.674  -1.952  -1.281  0.00  0.00    +0.100 C 
ATOM     27  C   UNL     1       2.137  -2.340  -1.309  0.00  0.00    -0.032 C 
ATOM     28  C   UNL     1       2.829  -1.220  -1.256  0.00  0.00    +0.017 C 
ATOM     29  N   UNL     1       2.006  -0.113  -1.196  0.00  0.00    -0.282 N 
ATOM     30  C   UNL     1       4.334  -1.155  -1.262  0.00  0.00    +0.062 C 
ATOM     31  C   UNL     1      -0.030  -2.417  -2.557  0.00  0.00    +0.030 C 
ATOM     32  H   UNL     1       2.321   0.804  -1.152  0.00  0.00    +0.166 HD
BRANCH  25  34
ATOM     33  C   UNL     1      -0.019   1.526   0.010  0.00  0.00    +0.022 C 
ATOM     34  C   UNL     1       0.002  -0.004   0.002  0.00  0.00    +0.103 C 
ENDBRANCH  25  34
ENDBRANCH  24  27
ENDBRANCH  23  24
ENDBRANCH  19  23
ENDBRANCH   1  20
TORSDOF 6
