REMARK  Name = ZINC06921777
REMARK  6 active torsions:
REMARK  status: ('A' for Active; 'I' for Inactive)
REMARK    1  A    between atoms: C_1  and  C_2
REMARK    2  A    between atoms: C_3  and  N_25
REMARK    3  A    between atoms: N_6  and  C_7
REMARK    4  A    between atoms: C_7  and  C_8
REMARK    5  A    between atoms: C_8  and  C_9
REMARK    6  A    between atoms: N_11  and  C_12
REMARK                            x       y       z     vdW  Elec       q    Type
REMARK                         _______ _______ _______ _____ _____    ______ ____
ROOT
ATOM      1  C   UNL     1      -2.853   3.399   1.477  0.00  0.00    +0.215 C 
ATOM      2  O   UNL     1      -3.353   3.755   0.431  0.00  0.00    -0.276 OA
ATOM      3  N   UNL     1      -3.397   3.782   2.649  0.00  0.00    -0.310 N 
ATOM      4  H   UNL     1      -2.996   3.498   3.486  0.00  0.00    +0.149 HD
ENDROOT
BRANCH   3   5
ATOM      5  C   UNL     1      -4.593   4.628   2.660  0.00  0.00    +0.035 C 
ATOM      6  C   UNL     1      -5.734   3.906   1.941  0.00  0.00    +0.029 C 
ATOM      7  C   UNL     1      -6.984   4.789   1.952  0.00  0.00    -0.008 C 
ATOM      8  C   UNL     1      -7.393   5.076   3.398  0.00  0.00    +0.007 C 
ATOM      9  C   UNL     1      -6.251   5.798   4.117  0.00  0.00    -0.008 C 
ATOM     10  C   UNL     1      -5.002   4.915   4.106  0.00  0.00    +0.029 C 
ATOM     11  C   UNL     1      -5.950   7.117   3.401  0.00  0.00    +0.007 C 
ATOM     12  C   UNL     1      -5.541   6.829   1.955  0.00  0.00    -0.008 C 
ATOM     13  C   UNL     1      -6.683   6.107   1.236  0.00  0.00    +0.007 C 
ATOM     14  C   UNL     1      -4.292   5.946   1.944  0.00  0.00    +0.029 C 
ENDBRANCH   3   5
BRANCH   1  15
ATOM     15  C   UNL     1      -1.622   2.529   1.466  0.00  0.00    +0.119 C 
BRANCH  15  16
ATOM     16  C   UNL     1      -1.213   2.242   0.020  0.00  0.00    +0.153 C 
BRANCH  16  22
ATOM     17  C   UNL     1       1.712   3.267   0.003  0.00  0.00    +0.067 C 
ATOM     18  C   UNL     1       1.261   1.829  -0.000  0.00  0.00    +0.066 A 
ATOM     19  C   UNL     1       2.065   0.741  -0.014  0.00  0.00    +0.166 A 
ATOM     20  C   UNL     1       1.250  -0.396  -0.012  0.00  0.00    +0.167 A 
ATOM     21  N   UNL     1       0.002  -0.004   0.002  0.00  0.00    -0.177 NA
ATOM     22  N   UNL     1      -0.017   1.397   0.010  0.00  0.00    -0.266 N 
BRANCH  19  23
ATOM     23  N   UNL     1       3.545   0.752  -0.027  0.00  0.00    +0.060 N 
ATOM     24  O   UNL     1       4.162  -0.299  -0.038  0.00  0.00    -0.126 OA
ATOM     25  O   UNL     1       4.147   1.811  -0.028  0.00  0.00    -0.126 OA
ENDBRANCH  19  23
ENDBRANCH  16  22
ENDBRANCH  15  16
ENDBRANCH   1  15
TORSDOF 5
