REMARK  Name = ZINC13373824
REMARK  9 active torsions:
REMARK  status: ('A' for Active; 'I' for Inactive)
REMARK    1  A    between atoms: C_1  and  C_2
REMARK    2  A    between atoms: C_6  and  C_33
REMARK    3  A    between atoms: C_15  and  C_29
REMARK    4  A    between atoms: C_18  and  O_28
REMARK    5  A    between atoms: C_20  and  O_27
REMARK    6  A    between atoms: C_31  and  C_32
REMARK    7  A    between atoms: C_33  and  C_34
REMARK    8  A    between atoms: C_34  and  C_35
REMARK    9  A    between atoms: C_34  and  C_36
REMARK                            x       y       z     vdW  Elec       q    Type
REMARK                         _______ _______ _______ _____ _____    ______ ____
ROOT
ATOM      1  C   UNL     1      -2.816  -0.878   3.841  0.00  0.00    +0.012 C 
ATOM      2  C   UNL     1      -3.692   0.197   3.186  0.00  0.00    +0.020 C 
ATOM      3  C   UNL     1      -2.823   1.343   2.678  0.00  0.00    +0.070 C 
ATOM      4  C   UNL     1      -2.074   0.862   1.412  0.00  0.00    +0.081 C 
ATOM      5  N   UNL     1      -2.961   1.203   0.295  0.00  0.00    -0.309 N 
ATOM      6  C   UNL     1      -3.849   2.159   0.640  0.00  0.00    +0.259 C 
ATOM      7  O   UNL     1      -4.623   2.665  -0.141  0.00  0.00    -0.271 OA
ATOM      8  C   UNL     1      -3.653   2.503   2.111  0.00  0.00    +0.203 C 
ATOM      9  C   UNL     1      -4.959   2.789   2.822  0.00  0.00    +0.088 C 
ATOM     10  C   UNL     1      -6.131   2.800   1.890  0.00  0.00    -0.016 C 
ATOM     11  C   UNL     1      -7.228   3.485   2.097  0.00  0.00    -0.076 C 
ATOM     12  C   UNL     1      -8.280   3.491   1.010  0.00  0.00    +0.033 C 
ATOM     13  C   UNL     1      -8.407   4.899   0.424  0.00  0.00    +0.038 C 
ATOM     14  C   UNL     1      -7.302   5.197  -0.583  0.00  0.00    +0.147 C 
ATOM     15  C   UNL     1      -6.370   6.290  -0.061  0.00  0.00    +0.166 C 
ATOM     16  C   UNL     1      -4.948   5.790   0.018  0.00  0.00    +0.013 C 
ATOM     17  C   UNL     1      -4.545   5.188   1.133  0.00  0.00    +0.090 C 
ATOM     18  C   UNL     1      -3.179   4.792   1.432  0.00  0.00    +0.333 C 
ATOM     19  O   UNL     1      -2.277   5.514   1.020  0.00  0.00    -0.246 OA
ATOM     20  O   UNL     1      -2.826   3.707   2.124  0.00  0.00    -0.444 OA
ATOM     21  C   UNL     1      -7.484   4.282   3.347  0.00  0.00    +0.039 C 
ATOM     22  C   UNL     1      -5.173   1.914   3.998  0.00  0.00    -0.016 C 
ATOM     23  C   UNL     1      -4.642   0.754   4.219  0.00  0.00    -0.073 C 
ATOM     24  C   UNL     1      -4.963  -0.019   5.475  0.00  0.00    +0.039 C 
ATOM     25  H   UNL     1      -2.917   0.796  -0.582  0.00  0.00    +0.149 HD
ENDROOT
BRANCH  15  26
ATOM     26  O   UNL     1      -6.421   7.417  -0.943  0.00  0.00    -0.385 OA
ATOM     27  H   UNL     1      -5.854   8.152  -0.675  0.00  0.00    +0.210 HD
ENDBRANCH  15  26
BRANCH  14  28
ATOM     28  O   UNL     1      -6.562   4.020  -0.888  0.00  0.00    -0.389 OA
ATOM     29  H   UNL     1      -5.848   4.159  -1.525  0.00  0.00    +0.210 HD
ENDBRANCH  14  28
BRANCH   4  30
ATOM     30  C   UNL     1      -0.733   1.585   1.274  0.00  0.00    +0.025 C 
BRANCH  30  31
ATOM     31  C   UNL     1       0.029   1.022   0.073  0.00  0.00    -0.015 C 
ATOM     32  C   UNL     1       0.397  -0.439   0.341  0.00  0.00    +0.007 C 
ATOM     33  C   UNL     1       1.304   1.837  -0.150  0.00  0.00    +0.007 C 
ENDBRANCH  30  31
ENDBRANCH   4  30
TORSDOF 4
