REMARK  Name = ZINC39599419
REMARK  12 active torsions:
REMARK  status: ('A' for Active; 'I' for Inactive)
REMARK    1  A    between atoms: C_1  and  C_2
REMARK    2  A    between atoms: C_2  and  C_3
REMARK    3  A    between atoms: C_2  and  C_4
REMARK    4  A    between atoms: C_4  and  C_6
REMARK    5  A    between atoms: C_4  and  O_35
REMARK    6  A    between atoms: C_10  and  C_19
REMARK    7  A    between atoms: N_21  and  C_22
REMARK    8  A    between atoms: C_22  and  C_23
REMARK    9  A    between atoms: C_23  and  C_24
REMARK   10  A    between atoms: C_27  and  O_33
REMARK   11  A    between atoms: O_33  and  C_34
REMARK   12  A    between atoms: O_35  and  C_36
REMARK                            x       y       z     vdW  Elec       q    Type
REMARK                         _______ _______ _______ _____ _____    ______ ____
ROOT
ATOM      1  C   UNL     1       0.827  -1.579   0.868  0.00  0.00    +0.257 C 
ATOM      2  O   UNL     1       0.251  -2.369   1.584  0.00  0.00    -0.272 OA
ATOM      3  N   UNL     1       1.618  -2.025  -0.128  0.00  0.00    -0.297 N 
ATOM      4  C   UNL     1       2.490  -1.227  -1.022  0.00  0.00    +0.121 C 
ATOM      5  C   UNL     1       3.768  -2.080  -1.186  0.00  0.00    +0.100 C 
ATOM      6  C   UNL     1       3.317  -3.521  -0.894  0.00  0.00    -0.004 C 
ATOM      7  C   UNL     1       1.818  -3.425  -0.572  0.00  0.00    +0.115 C 
ATOM      8  C   UNL     1       3.540  -4.403  -2.119  0.00  0.00    -0.010 C 
ATOM      9  C   UNL     1       3.138  -5.843  -1.785  0.00  0.00    -0.082 C 
ATOM     10  N   UNL     1       3.941  -6.327  -0.656  0.00  0.00    +0.379 N 
ATOM     11  C   UNL     1       3.651  -5.531   0.543  0.00  0.00    -0.082 C 
ATOM     12  C   UNL     1       4.074  -4.079   0.308  0.00  0.00    -0.010 C 
ATOM     13  H   UNL     1       3.718  -7.295  -0.477  0.00  0.00    -0.086 HD
ATOM     14  H   UNL     1       4.921  -6.247  -0.882  0.00  0.00    -0.086 HD
ENDROOT
BRANCH   5  15
ATOM     15  C   UNL     1       4.297  -1.968  -2.592  0.00  0.00    +0.218 C 
ATOM     16  O   UNL     1       3.542  -1.709  -3.505  0.00  0.00    -0.275 OA
ATOM     17  N   UNL     1       5.609  -2.156  -2.835  0.00  0.00    -0.315 N 
ATOM     18  H   UNL     1       6.213  -2.364  -2.105  0.00  0.00    +0.149 HD
BRANCH  17  19
ATOM     19  C   UNL     1       6.124  -2.047  -4.202  0.00  0.00    +0.109 C 
BRANCH  19  20
ATOM     20  C   UNL     1       7.633  -2.304  -4.201  0.00  0.00    +0.056 C 
BRANCH  20  21
ATOM     21  C   UNL     1       8.162  -2.191  -5.608  0.00  0.00    -0.021 A 
ATOM     22  C   UNL     1       8.568  -0.960  -6.290  0.00  0.00    +0.006 A 
ATOM     23  C   UNL     1       8.604   0.386  -5.921  0.00  0.00    +0.056 A 
ATOM     24  C   UNL     1       9.054   1.329  -6.823  0.00  0.00    +0.121 A 
ATOM     25  C   UNL     1       9.471   0.942  -8.094  0.00  0.00    +0.047 A 
ATOM     26  C   UNL     1       9.439  -0.383  -8.469  0.00  0.00    +0.030 A 
ATOM     27  C   UNL     1       8.989  -1.348  -7.575  0.00  0.00    +0.047 A 
ATOM     28  N   UNL     1       8.845  -2.718  -7.653  0.00  0.00    -0.360 N 
ATOM     29  C   UNL     1       8.356  -3.201  -6.470  0.00  0.00    +0.087 A 
ATOM     30  H   UNL     1       9.061  -3.257  -8.430  0.00  0.00    +0.165 HD
BRANCH  24  31
ATOM     31  O   UNL     1       9.091   2.641  -6.469  0.00  0.00    -0.495 OA
ATOM     32  C   UNL     1       9.568   3.565  -7.450  0.00  0.00    +0.277 C 
ENDBRANCH  24  31
ENDBRANCH  20  21
ENDBRANCH  19  20
ENDBRANCH  17  19
ENDBRANCH   5  15
BRANCH   1  33
ATOM     33  C   UNL     1       0.659  -0.098   1.091  0.00  0.00    +0.261 C 
BRANCH  33  35
ATOM     34  C   UNL     1      -0.543   1.955   0.328  0.00  0.00    +0.011 C 
ATOM     35  C   UNL     1      -0.413   0.442   0.142  0.00  0.00    +0.033 C 
ATOM     36  C   UNL     1      -0.014   0.138  -1.304  0.00  0.00    +0.011 C 
ENDBRANCH  33  35
BRANCH  33  37
ATOM     37  O   UNL     1       0.261   0.138   2.443  0.00  0.00    -0.479 OA
BRANCH  37  38
ATOM     38  C   UNL     1       0.843   1.185   3.084  0.00  0.00    +0.122 A 
ATOM     39  C   UNL     1       0.599   1.397   4.433  0.00  0.00    +0.045 A 
ATOM     40  C   UNL     1       1.193   2.462   5.082  0.00  0.00    +0.004 A 
ATOM     41  C   UNL     1       2.028   3.318   4.388  0.00  0.00    +0.000 A 
ATOM     42  C   UNL     1       2.271   3.110   3.043  0.00  0.00    +0.004 A 
ATOM     43  C   UNL     1       1.685   2.042   2.391  0.00  0.00    +0.045 A 
ENDBRANCH  37  38
ENDBRANCH  33  37
ENDBRANCH   1  33
TORSDOF 9
