REMARK  Name = ZINC04163282
REMARK  5 active torsions:
REMARK  status: ('A' for Active; 'I' for Inactive)
REMARK    1  A    between atoms: C_4  and  C_7
REMARK    2  A    between atoms: C_7  and  C_9
REMARK    3  A    between atoms: C_11  and  C_23
REMARK    4  A    between atoms: C_17  and  C_18
REMARK    5  A    between atoms: C_17  and  O_22
REMARK                            x       y       z     vdW  Elec       q    Type
REMARK                         _______ _______ _______ _____ _____    ______ ____
ROOT
ATOM      1  C   UNL     1      -1.675   6.019   0.013  0.00  0.00    +0.144 C 
ATOM      2  C   UNL     1      -1.556   7.465   0.507  0.00  0.00    +0.120 C 
ATOM      3  N   UNL     1      -2.736   8.218   0.079  0.00  0.00    -0.292 N 
ATOM      4  C   UNL     1      -3.407   7.892  -1.036  0.00  0.00    +0.302 C 
ATOM      5  O   UNL     1      -4.377   8.555  -1.349  0.00  0.00    -0.253 OA
ATOM      6  N   UNL     1      -3.050   6.864  -1.820  0.00  0.00    -0.264 N 
ATOM      7  C   UNL     1      -1.885   6.035  -1.505  0.00  0.00    +0.243 C 
ATOM      8  H   UNL     1      -3.041   8.966   0.615  0.00  0.00    +0.151 HD
ATOM      9  H   UNL     1      -3.574   6.665  -2.612  0.00  0.00    +0.153 HD
ENDROOT
BRANCH   2  10
ATOM     10  C   UNL     1      -1.464   7.477   2.011  0.00  0.00    -0.026 A 
ATOM     11  C   UNL     1      -2.610   7.353   2.774  0.00  0.00    +0.006 A 
ATOM     12  C   UNL     1      -2.526   7.359   4.154  0.00  0.00    +0.015 A 
ATOM     13  C   UNL     1      -1.296   7.500   4.771  0.00  0.00    +0.018 A 
ATOM     14  C   UNL     1      -0.150   7.629   4.007  0.00  0.00    +0.015 A 
ATOM     15  C   UNL     1      -0.235   7.617   2.628  0.00  0.00    +0.006 A 
ATOM     16 BR   UNL     1      -1.181   7.516   6.659  0.00  0.00    -0.050 Br
ENDBRANCH   2  10
BRANCH   7  17
ATOM     17  C   UNL     1      -2.124   4.607  -2.002  0.00  0.00    +0.436 C 
ATOM     18  F   UNL     1      -3.181   4.035  -1.286  0.00  0.00    -0.166 F 
ATOM     19  F   UNL     1      -2.445   4.636  -3.364  0.00  0.00    -0.166 F 
ATOM     20  F   UNL     1      -0.965   3.847  -1.812  0.00  0.00    -0.166 F 
ENDBRANCH   7  17
BRANCH   1  21
ATOM     21  C   UNL     1      -0.412   5.266   0.341  0.00  0.00    +0.173 C 
ATOM     22  O   UNL     1       0.655   5.660  -0.079  0.00  0.00    -0.292 OA
BRANCH  21  26
ATOM     23  C   UNL     1      -0.588   1.770   2.736  0.00  0.00    +0.000 A 
ATOM     24  C   UNL     1      -1.727   2.533   2.547  0.00  0.00    +0.001 A 
ATOM     25  C   UNL     1      -1.677   3.674   1.774  0.00  0.00    +0.011 A 
ATOM     26  C   UNL     1      -0.473   4.053   1.172  0.00  0.00    +0.018 A 
ATOM     27  C   UNL     1       0.672   3.273   1.363  0.00  0.00    +0.011 A 
ATOM     28  C   UNL     1       0.607   2.138   2.143  0.00  0.00    +0.001 A 
ENDBRANCH  21  26
ENDBRANCH   1  21
BRANCH   7  29
ATOM     29  O   UNL     1      -0.727   6.576  -2.142  0.00  0.00    -0.364 OA
ATOM     30  H   UNL     1      -0.790   6.616  -3.106  0.00  0.00    +0.212 HD
ENDBRANCH   7  29
TORSDOF 5
