REMARK  Name = ZINC39430635
REMARK  4 active torsions:
REMARK  status: ('A' for Active; 'I' for Inactive)
REMARK    1  A    between atoms: C_1  and  C_2
REMARK    2  A    between atoms: C_5  and  C_7
REMARK    3  A    between atoms: C_9  and  C_13
REMARK    4  A    between atoms: C_28  and  C_30
REMARK                            x       y       z     vdW  Elec       q    Type
REMARK                         _______ _______ _______ _____ _____    ______ ____
ROOT
ATOM      1  C   UNL     1       4.276  -4.876  -1.277  0.00  0.00    +0.247 C 
ATOM      2  O   UNL     1       3.755  -5.437  -2.219  0.00  0.00    -0.273 OA
ATOM      3  N   UNL     1       5.573  -4.515  -1.342  0.00  0.00    -0.286 N 
ATOM      4  C   UNL     1       6.214  -3.842  -0.207  0.00  0.00    +0.110 C 
ATOM      5  C   UNL     1       7.444  -4.626   0.265  0.00  0.00    +0.033 C 
ATOM      6  C   UNL     1       8.435  -4.729  -0.896  0.00  0.00    +0.069 C 
ATOM      7  C   UNL     1       9.536  -5.704  -0.629  0.00  0.00    -0.013 A 
ATOM      8  C   UNL     1      10.521  -5.754   0.327  0.00  0.00    +0.006 A 
ATOM      9  C   UNL     1      11.409  -6.824   0.263  0.00  0.00    +0.000 A 
ATOM     10  C   UNL     1      11.304  -7.792  -0.716  0.00  0.00    +0.002 A 
ATOM     11  C   UNL     1      10.312  -7.756  -1.682  0.00  0.00    +0.028 A 
ATOM     12  C   UNL     1       9.405  -6.690  -1.628  0.00  0.00    +0.068 A 
ATOM     13  N   UNL     1       8.321  -6.430  -2.405  0.00  0.00    -0.253 NA
ATOM     14  C   UNL     1       7.679  -5.361  -2.062  0.00  0.00    +0.053 C 
ATOM     15  C   UNL     1       6.370  -4.797  -2.554  0.00  0.00    +0.170 C 
ENDROOT
BRANCH  15  16
ATOM     16  C   UNL     1       6.612  -3.525  -3.326  0.00  0.00    +0.067 A 
ATOM     17  C   UNL     1       6.062  -3.374  -4.585  0.00  0.00    +0.025 A 
ATOM     18  C   UNL     1       6.292  -2.201  -5.286  0.00  0.00    +0.003 A 
ATOM     19  C   UNL     1       7.069  -1.218  -4.692  0.00  0.00    +0.020 A 
ATOM     20  C   UNL     1       7.585  -1.440  -3.430  0.00  0.00    +0.111 A 
ATOM     21  N   UNL     1       7.342  -2.567  -2.789  0.00  0.00    -0.258 NA
ENDBRANCH  15  16
BRANCH   1  24
ATOM     22  C   UNL     1       1.666  -3.225  -0.023  0.00  0.00    +0.126 C 
ATOM     23  C   UNL     1       3.014  -3.136  -0.024  0.00  0.00    +0.044 C 
ATOM     24  C   UNL     1       3.473  -4.584  -0.036  0.00  0.00    +0.239 C 
ATOM     25  N   UNL     1       2.208  -5.338  -0.042  0.00  0.00    -0.170 NA
ATOM     26  N   UNL     1       1.278  -4.529  -0.028  0.00  0.00    -0.150 NA
BRANCH  22  31
ATOM     27  C   UNL     1      -0.018   1.503   0.010  0.00  0.00    +0.086 C 
ATOM     28  C   UNL     1       0.002  -0.004   0.002  0.00  0.00    +0.103 A 
ATOM     29  C   UNL     1      -1.082  -0.804   0.003  0.00  0.00    +0.045 A 
ATOM     30  C   UNL     1      -0.614  -2.134  -0.007  0.00  0.00    +0.052 A 
ATOM     31  C   UNL     1       0.745  -2.070  -0.013  0.00  0.00    +0.155 A 
ATOM     32  O   UNL     1       1.104  -0.772  -0.013  0.00  0.00    -0.458 OA
ENDBRANCH  22  31
ENDBRANCH   1  24
TORSDOF 3
