REMARK  Name = ZINC63281129
REMARK  5 active torsions:
REMARK  status: ('A' for Active; 'I' for Inactive)
REMARK    1  A    between atoms: C_4  and  C_7
REMARK    2  A    between atoms: C_7  and  C_8
REMARK    3  A    between atoms: C_8  and  C_9
REMARK    4  A    between atoms: C_9  and  C_10
REMARK    5  A    between atoms: C_13  and  C_20
REMARK                            x       y       z     vdW  Elec       q    Type
REMARK                         _______ _______ _______ _____ _____    ______ ____
ROOT
ATOM      1  C   UNL     1       5.960  -1.962   2.796  0.00  0.00    +0.095 C 
ATOM      2  N   UNL     1       5.363  -1.634   3.894  0.00  0.00    -0.178 NA
ATOM      3  N   UNL     1       5.893  -1.871   5.143  0.00  0.00    -0.206 N 
ATOM      4  C   UNL     1       5.849  -1.467   6.568  0.00  0.00    +0.202 C 
ATOM      5  N   UNL     1       7.257  -1.500   7.031  0.00  0.00    -0.231 NA
ATOM      6  N   UNL     1       8.056  -2.024   5.910  0.00  0.00    -0.224 NA
ATOM      7  C   UNL     1       7.067  -2.801   5.136  0.00  0.00    +0.240 C 
ATOM      8  S   UNL     1       7.444  -2.793   3.345  0.00  0.00    -0.068 S 
ATOM      9  H   UNL     1       7.355  -2.083   7.849  0.00  0.00    +0.143 HD
ATOM     10  H   UNL     1       8.438  -1.272   5.356  0.00  0.00    +0.144 HD
ENDROOT
BRANCH   4  11
ATOM     11  C   UNL     1       5.001  -2.455   7.372  0.00  0.00    +0.141 C 
ATOM     12  C   UNL     1       3.606  -2.537   6.793  0.00  0.00    +0.010 C 
ATOM     13  C   UNL     1       2.768  -2.137   7.777  0.00  0.00    -0.004 A 
ATOM     14  C   UNL     1       1.309  -1.995   7.844  0.00  0.00    +0.010 A 
ATOM     15  C   UNL     1       0.744  -1.561   8.993  0.00  0.00    +0.001 A 
ATOM     16  C   UNL     1       1.515  -1.244  10.120  0.00  0.00    +0.002 A 
ATOM     17  C   UNL     1       2.861  -1.348  10.135  0.00  0.00    +0.026 A 
ATOM     18  C   UNL     1       3.561  -1.795   8.980  0.00  0.00    +0.043 A 
ATOM     19  N   UNL     1       4.840  -1.978   8.750  0.00  0.00    -0.375 N 
ATOM     20  H   UNL     1       5.558  -1.823   9.383  0.00  0.00    +0.160 HD
ENDBRANCH   4  11
BRANCH   1  21
ATOM     21  C   UNL     1       5.507  -1.710   1.381  0.00  0.00    +0.064 C 
BRANCH  21  22
ATOM     22  C   UNL     1       4.171  -0.963   1.399  0.00  0.00    +0.011 C 
BRANCH  22  23
ATOM     23  C   UNL     1       3.711  -0.707  -0.038  0.00  0.00    +0.035 C 
BRANCH  23  27
ATOM     24  C   UNL     1      -0.017   1.378   0.010  0.00  0.00    +0.000 A 
ATOM     25  C   UNL     1       1.171   2.086   0.002  0.00  0.00    +0.000 A 
ATOM     26  C   UNL     1       2.377   1.411  -0.013  0.00  0.00    +0.003 A 
ATOM     27  C   UNL     1       2.396   0.029  -0.020  0.00  0.00    -0.047 A 
ATOM     28  C   UNL     1       1.208  -0.679  -0.012  0.00  0.00    +0.003 A 
ATOM     29  C   UNL     1       0.002  -0.004   0.002  0.00  0.00    +0.000 A 
ENDBRANCH  23  27
ENDBRANCH  22  23
ENDBRANCH  21  22
ENDBRANCH   1  21
TORSDOF 5
