REMARK  Name = ZINC18023769
REMARK  11 active torsions:
REMARK  status: ('A' for Active; 'I' for Inactive)
REMARK    1  A    between atoms: C_1  and  C_2
REMARK    2  A    between atoms: C_2  and  N_3
REMARK    3  A    between atoms: C_7  and  C_9
REMARK    4  A    between atoms: C_9  and  C_11
REMARK    5  A    between atoms: C_9  and  O_12
REMARK    6  A    between atoms: O_12  and  C_13
REMARK    7  A    between atoms: C_13  and  C_15
REMARK    8  A    between atoms: C_18  and  S_21
REMARK    9  A    between atoms: S_21  and  N_24
REMARK   10  A    between atoms: C_26  and  C_33
REMARK   11  A    between atoms: C_29  and  C_32
REMARK                            x       y       z     vdW  Elec       q    Type
REMARK                         _______ _______ _______ _____ _____    ______ ____
ROOT
ATOM      1  C   UNL     1      -2.248   3.379   6.638  0.00  0.00    +0.059 A 
ATOM      2  C   UNL     1      -3.052   2.911   5.597  0.00  0.00    +0.017 A 
ATOM      3  C   UNL     1      -2.551   1.989   4.702  0.00  0.00    +0.029 A 
ATOM      4  C   UNL     1      -1.253   1.526   4.835  0.00  0.00    +0.106 A 
ATOM      5  C   UNL     1      -0.452   1.981   5.867  0.00  0.00    +0.029 A 
ATOM      6  C   UNL     1      -0.939   2.908   6.766  0.00  0.00    +0.017 A 
ENDROOT
BRANCH   4   7
ATOM      7  S   UNL     1      -0.621   0.347   3.688  0.00  0.00    +0.061 S 
ATOM      8  O   UNL     1      -1.744  -0.332   3.144  0.00  0.00    -0.153 OA
ATOM      9  O   UNL     1       0.435  -0.336   4.349  0.00  0.00    -0.153 OA
BRANCH   7  10
ATOM     10  N   UNL     1       0.069   1.195   2.444  0.00  0.00    -0.176 NA
ATOM     11  C   UNL     1      -0.726   1.581   1.270  0.00  0.00    +0.112 C 
ATOM     12  C   UNL     1      -0.013   1.086   0.008  0.00  0.00    +0.002 C 
ATOM     13  C   UNL     1       1.423   1.616  -0.003  0.00  0.00    +0.009 C 
ATOM     14  C   UNL     1       2.175   1.082   1.218  0.00  0.00    +0.002 C 
ATOM     15  C   UNL     1       1.486   1.577   2.494  0.00  0.00    +0.112 C 
ATOM     16  C   UNL     1       3.619   1.586   1.189  0.00  0.00    +0.009 C 
ATOM     17  C   UNL     1      -0.754   1.593  -1.230  0.00  0.00    +0.009 C 
ENDBRANCH   7  10
ENDBRANCH   4   7
BRANCH   1  18
ATOM     18  C   UNL     1      -2.778   4.366   7.600  0.00  0.00    +0.340 C 
ATOM     19  O   UNL     1      -3.917   4.774   7.486  0.00  0.00    -0.245 OA
BRANCH  18  20
ATOM     20  O   UNL     1      -1.999   4.815   8.603  0.00  0.00    -0.449 OA
BRANCH  20  21
ATOM     21  C   UNL     1      -2.587   5.784   9.511  0.00  0.00    +0.259 C 
ATOM     22  C   UNL     1      -2.325   7.198   8.986  0.00  0.00    +0.062 C 
BRANCH  21  27
ATOM     23  N   UNL     1      -2.341   6.957  14.166  0.00  0.00    -0.299 N 
ATOM     24  C   UNL     1      -1.878   6.227  13.132  0.00  0.00    +0.306 C 
ATOM     25  O   UNL     1      -0.962   5.447  13.301  0.00  0.00    -0.252 OA
ATOM     26  N   UNL     1      -2.431   6.362  11.911  0.00  0.00    -0.237 N 
ATOM     27  C   UNL     1      -1.968   5.633  10.876  0.00  0.00    +0.261 C 
ATOM     28  O   UNL     1      -1.054   4.854  11.045  0.00  0.00    -0.271 OA
ATOM     29  H   UNL     1      -3.072   7.579  14.031  0.00  0.00    +0.150 HD
ATOM     30  H   UNL     1      -3.163   6.985  11.776  0.00  0.00    +0.159 HD
BRANCH  23  32
ATOM     31  C   UNL     1      -2.445   7.744  16.480  0.00  0.00    +0.024 C 
ATOM     32  C   UNL     1      -1.740   6.809  15.494  0.00  0.00    +0.102 C 
ENDBRANCH  23  32
ENDBRANCH  21  27
ENDBRANCH  20  21
ENDBRANCH  18  20
ENDBRANCH   1  18
TORSDOF 7
