REMARK  Name = ZINC64794474
REMARK  7 active torsions:
REMARK  status: ('A' for Active; 'I' for Inactive)
REMARK    1  A    between atoms: C_4  and  N_30
REMARK    2  A    between atoms: C_5  and  C_10
REMARK    3  A    between atoms: C_13  and  S_21
REMARK    4  A    between atoms: N_14  and  C_15
REMARK    5  A    between atoms: C_15  and  C_16
REMARK    6  A    between atoms: S_21  and  C_22
REMARK    7  A    between atoms: C_22  and  C_23
REMARK                            x       y       z     vdW  Elec       q    Type
REMARK                         _______ _______ _______ _____ _____    ______ ____
ROOT
ATOM      1  C   UNL     1       6.226   1.346  -0.049  0.00  0.00    +0.174 A 
ATOM      2  N   UNL     1       6.775   2.542  -0.042  0.00  0.00    -0.128 NA
ATOM      3  N   UNL     1       8.056   2.436  -0.055  0.00  0.00    -0.122 NA
ATOM      4  C   UNL     1       8.406   1.170  -0.072  0.00  0.00    +0.193 A 
ATOM      5  N   UNL     1       7.255   0.430  -0.063  0.00  0.00    -0.294 N 
ENDROOT
BRANCH   1  10
ATOM      6  C   UNL     1      -0.017   1.382   0.010  0.00  0.00    +0.020 A 
ATOM      7  C   UNL     1       1.160   2.094   0.002  0.00  0.00    +0.014 A 
ATOM      8  C   UNL     1       2.389   1.389  -0.013  0.00  0.00    +0.029 A 
ATOM      9  C   UNL     1       3.743   1.919  -0.023  0.00  0.00    +0.052 A 
ATOM     10  C   UNL     1       4.787   1.045  -0.037  0.00  0.00    +0.080 A 
ATOM     11  S   UNL     1       3.994  -0.551  -0.039  0.00  0.00    -0.064 S 
ATOM     12  C   UNL     1       2.299  -0.022  -0.020  0.00  0.00    +0.111 A 
ATOM     13  N   UNL     1       1.149  -0.657  -0.013  0.00  0.00    -0.248 NA
ATOM     14  C   UNL     1       0.002  -0.004   0.002  0.00  0.00    +0.112 A 
BRANCH   9  15
ATOM     15  N   UNL     1       3.969   3.301  -0.018  0.00  0.00    -0.356 N 
ATOM     16  H   UNL     1       3.219   3.916  -0.008  0.00  0.00    +0.142 HD
ATOM     17  H   UNL     1       4.877   3.644  -0.025  0.00  0.00    +0.142 HD
ENDBRANCH   9  15
ENDBRANCH   1  10
BRANCH   5  18
ATOM     18  C   UNL     1       7.141  -1.030  -0.070  0.00  0.00    +0.200 C 
BRANCH  18  19
ATOM     19  C   UNL     1       7.089  -1.523  -1.494  0.00  0.00    +0.125 A 
ATOM     20  C   UNL     1       8.149  -1.871  -2.245  0.00  0.00    +0.046 A 
ATOM     21  C   UNL     1       7.645  -2.270  -3.504  0.00  0.00    +0.041 A 
ATOM     22  C   UNL     1       6.307  -2.143  -3.447  0.00  0.00    +0.195 A 
ATOM     23  O   UNL     1       5.976  -1.696  -2.225  0.00  0.00    -0.466 OA
ENDBRANCH  18  19
ENDBRANCH   5  18
BRANCH   4  24
ATOM     24  S   UNL     1      10.052   0.542  -0.095  0.00  0.00    -0.081 S 
BRANCH  24  25
ATOM     25  C   UNL     1      11.090   2.029  -0.089  0.00  0.00    +0.112 C 
BRANCH  25  26
ATOM     26  C   UNL     1      12.542   1.628  -0.107  0.00  0.00    -0.037 A 
ATOM     27  C   UNL     1      13.218   1.426   1.082  0.00  0.00    +0.007 A 
ATOM     28  C   UNL     1      14.550   1.058   1.066  0.00  0.00    +0.038 A 
ATOM     29  C   UNL     1      15.207   0.892  -0.141  0.00  0.00    +0.123 A 
ATOM     30  C   UNL     1      14.530   1.095  -1.331  0.00  0.00    +0.038 A 
ATOM     31  C   UNL     1      13.196   1.458  -1.313  0.00  0.00    +0.007 A 
ATOM     32  F   UNL     1      16.510   0.532  -0.157  0.00  0.00    -0.205 F 
ENDBRANCH  25  26
ENDBRANCH  24  25
ENDBRANCH   4  24
TORSDOF 7
