REMARK  Name = ZINC39715909
REMARK  5 active torsions:
REMARK  status: ('A' for Active; 'I' for Inactive)
REMARK    1  A    between atoms: C_4  and  N_7
REMARK    2  A    between atoms: N_7  and  C_8
REMARK    3  A    between atoms: C_8  and  N_10
REMARK    4  A    between atoms: N_10  and  N_11
REMARK    5  A    between atoms: C_19  and  C_26
REMARK                            x       y       z     vdW  Elec       q    Type
REMARK                         _______ _______ _______ _____ _____    ______ ____
ROOT
ATOM      1  N   UNL     1       6.022  -1.921   0.136  0.00  0.00    -0.188 NA
ATOM      2  C   UNL     1       7.143  -2.541   0.122  0.00  0.00    +0.063 C 
ATOM      3  C   UNL     1       7.218  -4.052   0.219  0.00  0.00    +0.055 C 
ATOM      4  C   UNL     1       8.092  -4.476   1.398  0.00  0.00    +0.010 C 
ATOM      5  C   UNL     1       9.504  -3.880   1.273  0.00  0.00    +0.034 C 
ATOM      6  C   UNL     1       9.340  -2.391   1.105  0.00  0.00    -0.033 C 
ATOM      7  C   UNL     1       9.822  -1.357   1.780  0.00  0.00    -0.000 A 
ATOM      8  C   UNL     1      10.824  -1.268   2.854  0.00  0.00    +0.014 A 
ATOM      9  C   UNL     1      11.062  -0.025   3.350  0.00  0.00    -0.044 A 
ATOM     10  C   UNL     1      10.411   1.125   2.891  0.00  0.00    +0.006 A 
ATOM     11  C   UNL     1       9.486   1.137   1.899  0.00  0.00    +0.026 A 
ATOM     12  C   UNL     1       9.160  -0.110   1.290  0.00  0.00    +0.043 A 
ATOM     13  N   UNL     1       8.347  -0.380   0.311  0.00  0.00    -0.372 N 
ATOM     14  C   UNL     1       8.457  -1.804   0.000  0.00  0.00    +0.152 C 
ATOM     15  H   UNL     1       7.768   0.254  -0.139  0.00  0.00    +0.161 HD
ENDROOT
BRANCH   9  16
ATOM     16  C   UNL     1      12.079   0.122   4.452  0.00  0.00    +0.019 C 
ATOM     17  C   UNL     1      11.407   0.715   5.692  0.00  0.00    +0.008 C 
ATOM     18  C   UNL     1      12.440   0.865   6.811  0.00  0.00    +0.001 C 
ATOM     19  C   UNL     1      13.563   1.794   6.347  0.00  0.00    +0.000 C 
ATOM     20  C   UNL     1      14.236   1.201   5.107  0.00  0.00    +0.001 C 
ATOM     21  C   UNL     1      13.203   1.051   3.989  0.00  0.00    +0.008 C 
ENDBRANCH   9  16
BRANCH   1  22
ATOM     22  N   UNL     1       4.822  -2.644   0.126  0.00  0.00    -0.218 N 
ATOM     23  H   UNL     1       4.838  -3.612   0.179  0.00  0.00    +0.176 HD
BRANCH  22  24
ATOM     24  C   UNL     1       3.645  -1.993   0.042  0.00  0.00    +0.154 C 
ATOM     25  S   UNL     1       2.178  -2.875   0.029  0.00  0.00    -0.017 S 
BRANCH  24  26
ATOM     26  N   UNL     1       3.623  -0.647  -0.032  0.00  0.00    -0.296 N 
ATOM     27  H   UNL     1       4.453  -0.152  -0.109  0.00  0.00    +0.154 HD
BRANCH  26  31
ATOM     28  C   UNL     1      -0.013   1.385   0.069  0.00  0.00    +0.000 A 
ATOM     29  C   UNL     1       0.197   0.304   0.906  0.00  0.00    +0.002 A 
ATOM     30  C   UNL     1       1.401  -0.372   0.875  0.00  0.00    +0.023 A 
ATOM     31  C   UNL     1       2.402   0.035   0.001  0.00  0.00    +0.033 A 
ATOM     32  C   UNL     1       2.188   1.120  -0.838  0.00  0.00    +0.023 A 
ATOM     33  C   UNL     1       0.981   1.792  -0.802  0.00  0.00    +0.002 A 
ENDBRANCH  26  31
ENDBRANCH  24  26
ENDBRANCH  22  24
ENDBRANCH   1  22
TORSDOF 5
