REMARK  Name = ZINC12246534
REMARK  12 active torsions:
REMARK  status: ('A' for Active; 'I' for Inactive)
REMARK    1  A    between atoms: C_1  and  O_2
REMARK    2  A    between atoms: O_2  and  C_3
REMARK    3  A    between atoms: C_6  and  S_9
REMARK    4  A    between atoms: S_9  and  C_10
REMARK    5  A    between atoms: C_13  and  C_27
REMARK    6  A    between atoms: C_16  and  C_17
REMARK    7  A    between atoms: C_16  and  N_70
REMARK    8  A    between atoms: C_22  and  O_23
REMARK    9  A    between atoms: O_23  and  C_24
REMARK   10  A    between atoms: C_24  and  C_25
REMARK   11  A    between atoms: N_29  and  C_30
REMARK   12  A    between atoms: C_30  and  C_31
REMARK                            x       y       z     vdW  Elec       q    Type
REMARK                         _______ _______ _______ _____ _____    ______ ____
ROOT
ATOM      1  C   UNL     1       4.396   2.368   0.831  0.00  0.00    +0.034 C 
ATOM      2  C   UNL     1       5.714   1.650   0.475  0.00  0.00    +0.006 C 
ATOM      3  C   UNL     1       6.526   1.632   1.791  0.00  0.00    +0.021 C 
ATOM      4  C   UNL     1       4.521   2.725   2.328  0.00  0.00    -0.063 C 
ATOM      5  N   UNL     1       5.965   2.753   2.554  0.00  0.00    +0.391 N 
ATOM      6  H   UNL     1       6.356   3.640   2.215  0.00  0.00    -0.080 HD
ENDROOT
BRANCH   3   7
ATOM      7  C   UNL     1       7.991   1.840   1.506  0.00  0.00    +0.200 C 
ATOM      8  O   UNL     1       8.471   2.951   1.580  0.00  0.00    -0.278 OA
ATOM      9  N   UNL     1       8.767   0.791   1.169  0.00  0.00    -0.311 N 
ATOM     10  H   UNL     1       8.370  -0.084   1.037  0.00  0.00    +0.149 HD
BRANCH   9  11
ATOM     11  C   UNL     1      10.211   0.973   1.002  0.00  0.00    +0.161 C 
BRANCH  11  12
ATOM     12  C   UNL     1      10.859  -0.364   0.747  0.00  0.00    +0.077 A 
ATOM     13  C   UNL     1      11.142  -0.883  -0.468  0.00  0.00    +0.117 A 
ATOM     14  N   UNL     1      11.722  -2.105  -0.260  0.00  0.00    -0.306 N 
ATOM     15  C   UNL     1      12.203  -3.056  -1.112  0.00  0.00    +0.092 A 
ATOM     16  C   UNL     1      12.738  -4.199  -0.635  0.00  0.00    +0.018 A 
ATOM     17  C   UNL     1      12.809  -4.425   0.750  0.00  0.00    +0.005 A 
ATOM     18  C   UNL     1      12.334  -3.485   1.611  0.00  0.00    +0.047 A 
ATOM     19  C   UNL     1      11.777  -2.297   1.097  0.00  0.00    +0.138 A 
ATOM     20  N   UNL     1      11.255  -1.229   1.683  0.00  0.00    -0.231 NA
ENDBRANCH  11  12
ENDBRANCH   9  11
ENDBRANCH   3   7
BRANCH   1  21
ATOM     21  S   UNL     1       2.983   1.262   0.564  0.00  0.00    -0.124 S 
BRANCH  21  25
ATOM     22  C   UNL     1      -0.624   3.851   1.463  0.00  0.00    +0.120 A 
ATOM     23  C   UNL     1      -0.798   2.530   1.078  0.00  0.00    +0.047 A 
ATOM     24  C   UNL     1       0.301   1.738   0.808  0.00  0.00    +0.018 A 
ATOM     25  C   UNL     1       1.581   2.269   0.913  0.00  0.00    +0.008 A 
ATOM     26  C   UNL     1       1.753   3.594   1.293  0.00  0.00    +0.018 A 
ATOM     27  C   UNL     1       0.653   4.382   1.567  0.00  0.00    +0.047 A 
BRANCH  22  29
ATOM     28  C   UNL     1      -2.993   4.017   1.605  0.00  0.00    +0.277 C 
ATOM     29  O   UNL     1      -1.707   4.628   1.733  0.00  0.00    -0.495 OA
ENDBRANCH  22  29
ENDBRANCH  21  25
ENDBRANCH   1  21
BRANCH   5  30
ATOM     30  C   UNL     1       6.277   2.603   4.010  0.00  0.00    -0.038 C 
BRANCH  30  31
ATOM     31  C   UNL     1       5.733   3.783   4.774  0.00  0.00    -0.022 A 
ATOM     32  C   UNL     1       6.558   4.848   5.080  0.00  0.00    +0.005 A 
ATOM     33  C   UNL     1       6.059   5.931   5.780  0.00  0.00    +0.000 A 
ATOM     34  C   UNL     1       4.735   5.951   6.176  0.00  0.00    +0.004 A 
ATOM     35  C   UNL     1       3.906   4.888   5.874  0.00  0.00    +0.046 A 
ATOM     36  C   UNL     1       4.403   3.802   5.166  0.00  0.00    +0.122 A 
BRANCH  36  37
ATOM     37  O   UNL     1       3.588   2.758   4.862  0.00  0.00    -0.488 OA
BRANCH  37  38
ATOM     38  C   UNL     1       2.213   2.880   5.229  0.00  0.00    +0.256 C 
BRANCH  38  39
ATOM     39  C   UNL     1       1.484   1.609   4.874  0.00  0.00    +0.006 C 
ATOM     40  C   UNL     1       0.687   1.046   5.748  0.00  0.00    +0.007 C 
ENDBRANCH  38  39
ENDBRANCH  37  38
ENDBRANCH  36  37
ENDBRANCH  30  31
ENDBRANCH   5  30
TORSDOF 11
