REMARK  Name = ZINC63408015
REMARK  4 active torsions:
REMARK  status: ('A' for Active; 'I' for Inactive)
REMARK    1  A    between atoms: C_4  and  C_6
REMARK    2  A    between atoms: C_6  and  N_7
REMARK    3  A    between atoms: C_10  and  N_13
REMARK    4  A    between atoms: C_22  and  C_24
REMARK                            x       y       z     vdW  Elec       q    Type
REMARK                         _______ _______ _______ _____ _____    ______ ____
ROOT
ATOM      1  N   UNL     1      -1.618  -6.136  -1.295  0.00  0.00    -0.297 N 
ATOM      2  C   UNL     1      -2.159  -7.002  -2.174  0.00  0.00    +0.303 C 
ATOM      3  O   UNL     1      -2.233  -6.707  -3.351  0.00  0.00    -0.253 OA
ATOM      4  N   UNL     1      -2.619  -8.195  -1.748  0.00  0.00    -0.283 N 
ATOM      5  C   UNL     1      -2.442  -8.609  -0.349  0.00  0.00    +0.128 C 
ATOM      6  C   UNL     1      -3.816  -8.958   0.236  0.00  0.00    +0.127 C 
ATOM      7  N   UNL     1      -4.503  -9.869  -0.690  0.00  0.00    -0.296 N 
ATOM      8  C   UNL     1      -4.680  -9.455  -2.089  0.00  0.00    +0.127 C 
ATOM      9  C   UNL     1      -3.311  -9.104  -2.673  0.00  0.00    +0.128 C 
ATOM     10  C   UNL     1      -4.963 -11.062  -0.264  0.00  0.00    +0.245 C 
ATOM     11  O   UNL     1      -4.811 -11.393   0.892  0.00  0.00    -0.273 OA
ATOM     12  H   UNL     1      -1.491  -6.399  -0.370  0.00  0.00    +0.151 HD
ENDROOT
BRANCH   1  16
ATOM     13  N   UNL     1       0.624  -2.573  -1.515  0.00  0.00    +0.380 N 
ATOM     14  C   UNL     1      -0.744  -2.461  -0.993  0.00  0.00    -0.077 C 
ATOM     15  C   UNL     1      -1.236  -3.838  -0.542  0.00  0.00    +0.004 C 
ATOM     16  C   UNL     1      -1.220  -4.796  -1.736  0.00  0.00    +0.071 C 
ATOM     17  C   UNL     1       0.195  -4.848  -2.318  0.00  0.00    +0.004 C 
ATOM     18  C   UNL     1       0.635  -3.434  -2.704  0.00  0.00    -0.077 C 
ATOM     19  H   UNL     1       1.220  -2.973  -0.806  0.00  0.00    -0.082 HD
BRANCH  13  20
ATOM     20  C   UNL     1       1.120  -1.238  -1.874  0.00  0.00    -0.075 C 
BRANCH  20  24
ATOM     21  C   UNL     1       3.089   1.230  -0.251  0.00  0.00    +0.000 C 
ATOM     22  C   UNL     1       3.033   0.239   0.938  0.00  0.00    +0.000 C 
ATOM     23  C   UNL     1       2.322  -0.993   0.324  0.00  0.00    +0.002 C 
ATOM     24  C   UNL     1       1.255  -0.387  -0.610  0.00  0.00    -0.028 C 
ATOM     25  C   UNL     1       1.742   1.026  -0.976  0.00  0.00    +0.002 C 
ENDBRANCH  20  24
ENDBRANCH  13  20
ENDBRANCH   1  16
BRANCH  10  26
ATOM     26  C   UNL     1      -5.665 -11.986  -1.226  0.00  0.00    +0.204 C 
ATOM     27  C   UNL     1      -6.991 -11.346  -1.692  0.00  0.00    +0.043 C 
ATOM     28  C   UNL     1      -7.950 -12.567  -1.730  0.00  0.00    +0.031 C 
ATOM     29  C   UNL     1      -7.410 -13.402  -0.541  0.00  0.00    +0.161 C 
ATOM     30  O   UNL     1      -5.986 -13.218  -0.570  0.00  0.00    -0.367 OA
ENDBRANCH  10  26
TORSDOF 4
