REMARK  Name = ZINC63919931
REMARK  9 active torsions:
REMARK  status: ('A' for Active; 'I' for Inactive)
REMARK    1  A    between atoms: C_4  and  C_7
REMARK    2  A    between atoms: C_7  and  C_9
REMARK    3  A    between atoms: C_7  and  N_33
REMARK    4  A    between atoms: C_9  and  N_10
REMARK    5  A    between atoms: C_11  and  C_13
REMARK    6  A    between atoms: C_13  and  C_15
REMARK    7  A    between atoms: C_13  and  N_25
REMARK    8  A    between atoms: C_15  and  C_16
REMARK    9  A    between atoms: C_26  and  C_28
REMARK                            x       y       z     vdW  Elec       q    Type
REMARK                         _______ _______ _______ _____ _____    ______ ____
ROOT
ATOM      1  C   UNL     1       7.105  -3.284  -2.484  0.00  0.00    +0.163 C 
ENDROOT
BRANCH   1   3
ATOM      2  N   UNL     1       5.278  -2.024  -1.392  0.00  0.00    -0.315 N 
ATOM      3  C   UNL     1       5.787  -2.554  -2.522  0.00  0.00    +0.234 C 
ATOM      4  O   UNL     1       5.185  -2.443  -3.568  0.00  0.00    -0.274 OA
ATOM      5  H   UNL     1       5.760  -2.112  -0.555  0.00  0.00    +0.149 HD
BRANCH   2   6
ATOM      6  C   UNL     1       3.997  -1.314  -1.428  0.00  0.00    +0.093 C 
BRANCH   6   7
ATOM      7  C   UNL     1       3.715  -0.701  -0.055  0.00  0.00    -0.020 C 
BRANCH   7  11
ATOM      8  C   UNL     1       6.625   2.312   0.781  0.00  0.00    +0.000 A 
ATOM      9  C   UNL     1       6.756   1.052   1.334  0.00  0.00    +0.000 A 
ATOM     10  C   UNL     1       5.814   0.077   1.064  0.00  0.00    +0.002 A 
ATOM     11  C   UNL     1       4.741   0.362   0.240  0.00  0.00    -0.059 A 
ATOM     12  C   UNL     1       4.610   1.623  -0.312  0.00  0.00    +0.002 A 
ATOM     13  C   UNL     1       5.552   2.597  -0.043  0.00  0.00    +0.000 A 
ENDBRANCH   7  11
BRANCH   7  14
ATOM     14  N   UNL     1       2.374  -0.101  -0.053  0.00  0.00    +0.385 N 
ATOM     15  C   UNL     1       1.344  -1.149  -0.267  0.00  0.00    -0.078 C 
ATOM     16  C   UNL     1       0.058  -0.505   0.310  0.00  0.00    -0.020 C 
ATOM     17  C   UNL     1       0.581   0.268   1.542  0.00  0.00    -0.020 C 
ATOM     18  C   UNL     1       2.081   0.489   1.271  0.00  0.00    -0.078 C 
ATOM     19  H   UNL     1       2.307   0.605  -0.771  0.00  0.00    -0.081 HD
ENDBRANCH   7  14
ENDBRANCH   6   7
ENDBRANCH   2   6
ENDBRANCH   1   3
BRANCH   1  20
ATOM     20  N   UNL     1       7.670  -3.342  -3.835  0.00  0.00    -0.299 N 
ATOM     21  C   UNL     1       6.988  -3.951  -4.825  0.00  0.00    +0.251 C 
ATOM     22  O   UNL     1       5.903  -4.454  -4.596  0.00  0.00    -0.270 OA
ATOM     23  H   UNL     1       8.535  -2.942  -4.016  0.00  0.00    +0.150 HD
BRANCH  21  24
ATOM     24  C   UNL     1       7.553  -4.009  -6.176  0.00  0.00    +0.074 A 
ATOM     25  C   UNL     1       7.019  -4.577  -7.323  0.00  0.00    +0.021 A 
ATOM     26  C   UNL     1       7.791  -4.473  -8.455  0.00  0.00    +0.008 A 
ATOM     27  C   UNL     1       8.989  -3.841  -8.381  0.00  0.00    +0.046 A 
ATOM     28  S   UNL     1       9.102  -3.362  -6.775  0.00  0.00    -0.092 S 
ENDBRANCH  21  24
ENDBRANCH   1  20
BRANCH   1  29
ATOM     29  C   UNL     1       6.886  -4.705  -1.961  0.00  0.00    +0.065 C 
BRANCH  29  30
ATOM     30  C   UNL     1       8.218  -5.394  -1.808  0.00  0.00    -0.039 C 
ATOM     31  C   UNL     1       8.960  -5.487  -0.681  0.00  0.00    -0.001 A 
ATOM     32  C   UNL     1       8.759  -4.992   0.686  0.00  0.00    +0.010 A 
ATOM     33  C   UNL     1       9.701  -5.248   1.622  0.00  0.00    +0.001 A 
ATOM     34  C   UNL     1      10.863  -5.972   1.320  0.00  0.00    +0.002 A 
ATOM     35  C   UNL     1      11.118  -6.459   0.087  0.00  0.00    +0.026 A 
ATOM     36  C   UNL     1      10.195  -6.249  -0.974  0.00  0.00    +0.043 A 
ATOM     37  N   UNL     1      10.215  -6.613  -2.234  0.00  0.00    -0.380 N 
ATOM     38  C   UNL     1       8.991  -6.128  -2.881  0.00  0.00    +0.144 C 
ATOM     39  H   UNL     1      10.920  -7.122  -2.665  0.00  0.00    +0.160 HD
ENDBRANCH  29  30
ENDBRANCH   1  29
TORSDOF 9
