REMARK  Name = ZINC12851913
REMARK  7 active torsions:
REMARK  status: ('A' for Active; 'I' for Inactive)
REMARK    1  A    between atoms: C_1  and  C_2
REMARK    2  A    between atoms: C_3  and  C_26
REMARK    3  A    between atoms: C_4  and  C_18
REMARK    4  A    between atoms: N_9  and  C_10
REMARK    5  A    between atoms: C_13  and  C_16
REMARK    6  A    between atoms: C_26  and  O_28
REMARK    7  A    between atoms: O_28  and  C_29
REMARK                            x       y       z     vdW  Elec       q    Type
REMARK                         _______ _______ _______ _____ _____    ______ ____
ROOT
ATOM      1  C   UNL     1       0.270   3.721   0.136  0.00  0.00    +0.062 C 
ATOM      2  C   UNL     1      -1.144   3.199   0.130  0.00  0.00    +0.029 C 
ATOM      3  C   UNL     1      -2.169   4.055   0.330  0.00  0.00    +0.078 C 
ATOM      4  C   UNL     1      -3.574   3.488   0.317  0.00  0.00    +0.146 C 
ATOM      5  N   UNL     1      -3.707   2.040   0.085  0.00  0.00    -0.287 N 
ATOM      6  C   UNL     1      -2.587   1.314  -0.104  0.00  0.00    +0.311 C 
ATOM      7  O   UNL     1      -2.688   0.119  -0.301  0.00  0.00    -0.252 OA
ATOM      8  N   UNL     1      -1.368   1.866  -0.077  0.00  0.00    -0.228 N 
ATOM      9  H   UNL     1      -4.581   1.619   0.065  0.00  0.00    +0.151 HD
ENDROOT
BRANCH   4  10
ATOM     10  C   UNL     1      -4.353   4.203  -0.757  0.00  0.00    +0.013 A 
ATOM     11  C   UNL     1      -5.310   5.138  -0.409  0.00  0.00    +0.011 A 
ATOM     12  C   UNL     1      -6.025   5.794  -1.392  0.00  0.00    +0.039 A 
ATOM     13  C   UNL     1      -5.784   5.516  -2.728  0.00  0.00    +0.126 A 
ATOM     14  C   UNL     1      -4.826   4.580  -3.077  0.00  0.00    +0.077 A 
ATOM     15  C   UNL     1      -4.106   3.927  -2.091  0.00  0.00    +0.131 A 
ATOM     16  F   UNL     1      -3.167   3.018  -2.431  0.00  0.00    -0.205 F 
ATOM     17  F   UNL     1      -6.484   6.158  -3.689  0.00  0.00    -0.205 F 
ENDBRANCH   4  10
BRANCH   8  18
ATOM     18  C   UNL     1      -0.264   1.035  -0.277  0.00  0.00    +0.043 A 
ATOM     19  C   UNL     1       0.299   0.922  -1.544  0.00  0.00    +0.025 A 
ATOM     20  C   UNL     1       1.384   0.099  -1.746  0.00  0.00    +0.017 A 
ATOM     21  C   UNL     1       1.921  -0.623  -0.676  0.00  0.00    +0.063 A 
ATOM     22  C   UNL     1       1.353  -0.506   0.596  0.00  0.00    +0.017 A 
ATOM     23  C   UNL     1       0.268   0.318   0.790  0.00  0.00    +0.025 A 
BRANCH  21  24
ATOM     24  C   UNL     1       3.084  -1.505  -0.889  0.00  0.00    +0.387 C 
ATOM     25  O   UNL     1       3.549  -2.131   0.043  0.00  0.00    -0.241 OA
ATOM     26  O   UNL     1       3.630  -1.616  -2.115  0.00  0.00    -0.241 OA
ENDBRANCH  21  24
ENDBRANCH   8  18
BRANCH   3  27
ATOM     27  C   UNL     1      -1.939   5.434   0.545  0.00  0.00    +0.339 C 
ATOM     28  O   UNL     1      -0.801   5.867   0.559  0.00  0.00    -0.245 OA
BRANCH  27  29
ATOM     29  O   UNL     1      -2.981   6.271   0.735  0.00  0.00    -0.465 OA
ATOM     30  C   UNL     1      -2.675   7.650   0.945  0.00  0.00    +0.280 C 
ENDBRANCH  27  29
ENDBRANCH   3  27
TORSDOF 5
