REMARK  Name = ZINC39631413
REMARK  11 active torsions:
REMARK  status: ('A' for Active; 'I' for Inactive)
REMARK    1  A    between atoms: C_1  and  C_2
REMARK    2  A    between atoms: C_2  and  C_4
REMARK    3  A    between atoms: C_2  and  N_11
REMARK    4  A    between atoms: C_4  and  C_5
REMARK    5  A    between atoms: C_5  and  C_6
REMARK    6  A    between atoms: C_6  and  C_7
REMARK    7  A    between atoms: C_7  and  C_8
REMARK    8  A    between atoms: C_7  and  C_9
REMARK    9  A    between atoms: C_7  and  O_10
REMARK   10  A    between atoms: C_12  and  C_14
REMARK   11  A    between atoms: C_25  and  C_27
REMARK                            x       y       z     vdW  Elec       q    Type
REMARK                         _______ _______ _______ _____ _____    ______ ____
ROOT
ATOM      1  C   UNL     1      -4.048  -1.424  -0.875  0.00  0.00    +0.100 C 
ATOM      2  C   UNL     1      -4.679  -0.289  -0.038  0.00  0.00    +0.121 C 
ATOM      3  N   UNL     1      -5.232   0.652  -1.040  0.00  0.00    -0.296 N 
ATOM      4  C   UNL     1      -5.799  -0.224  -2.094  0.00  0.00    +0.115 C 
ATOM      5  C   UNL     1      -4.788  -1.380  -2.223  0.00  0.00    -0.004 C 
ATOM      6  C   UNL     1      -5.519  -2.696  -2.467  0.00  0.00    -0.010 C 
ATOM      7  C   UNL     1      -6.199  -2.650  -3.838  0.00  0.00    -0.082 C 
ATOM      8  N   UNL     1      -5.189  -2.428  -4.880  0.00  0.00    +0.379 N 
ATOM      9  C   UNL     1      -4.555  -1.117  -4.691  0.00  0.00    -0.082 C 
ATOM     10  C   UNL     1      -3.806  -1.098  -3.356  0.00  0.00    -0.010 C 
ATOM     11  C   UNL     1      -5.223   1.999  -1.002  0.00  0.00    +0.247 C 
ATOM     12  O   UNL     1      -4.609   2.578  -0.127  0.00  0.00    -0.270 OA
ATOM     13  H   UNL     1      -4.487  -3.150  -4.826  0.00  0.00    -0.086 HD
ATOM     14  H   UNL     1      -5.631  -2.458  -5.787  0.00  0.00    -0.086 HD
ENDROOT
BRANCH  11  15
ATOM     15  C   UNL     1      -5.960   2.772  -2.023  0.00  0.00    +0.037 A 
ATOM     16  C   UNL     1      -6.994   2.173  -2.745  0.00  0.00    +0.014 A 
ATOM     17  C   UNL     1      -7.678   2.900  -3.696  0.00  0.00    +0.021 A 
ATOM     18  C   UNL     1      -7.341   4.222  -3.937  0.00  0.00    +0.041 A 
ATOM     19  C   UNL     1      -6.316   4.822  -3.224  0.00  0.00    +0.021 A 
ATOM     20  C   UNL     1      -5.628   4.106  -2.266  0.00  0.00    +0.014 A 
ATOM     21 CL   UNL     1      -8.206   5.130  -5.137  0.00  0.00    -0.084 Cl
ENDBRANCH  11  15
BRANCH   1  23
ATOM     22  N   UNL     1      -1.740  -2.202  -1.312  0.00  0.00    -0.312 N 
ATOM     23  C   UNL     1      -2.576  -1.171  -1.077  0.00  0.00    +0.218 C 
ATOM     24  O   UNL     1      -2.143  -0.039  -1.027  0.00  0.00    -0.275 OA
ATOM     25  H   UNL     1      -2.087  -3.107  -1.351  0.00  0.00    +0.149 HD
BRANCH  22  27
ATOM     26  C   UNL     1       0.388  -1.892  -0.147  0.00  0.00    +0.028 C 
ATOM     27  C   UNL     1      -0.310  -1.956  -1.508  0.00  0.00    +0.070 C 
BRANCH  27  28
ATOM     28  C   UNL     1       0.294  -3.091  -2.338  0.00  0.00    +0.022 C 
BRANCH  28  29
ATOM     29  C   UNL     1      -0.315  -3.075  -3.741  0.00  0.00    +0.005 C 
BRANCH  29  30
ATOM     30  C   UNL     1       0.289  -4.210  -4.571  0.00  0.00    +0.034 C 
BRANCH  30  31
ATOM     31  C   UNL     1      -0.320  -4.195  -5.975  0.00  0.00    +0.061 C 
ATOM     32  C   UNL     1       0.189  -5.402  -6.765  0.00  0.00    +0.041 C 
ATOM     33  C   UNL     1      -1.845  -4.261  -5.870  0.00  0.00    +0.041 C 
BRANCH  31  34
ATOM     34  O   UNL     1       0.060  -2.992  -6.646  0.00  0.00    -0.389 OA
ATOM     35  H   UNL     1      -0.292  -2.914  -7.543  0.00  0.00    +0.210 HD
ENDBRANCH  31  34
ENDBRANCH  30  31
ENDBRANCH  29  30
ENDBRANCH  28  29
ENDBRANCH  27  28
ENDBRANCH  22  27
ENDBRANCH   1  23
TORSDOF 8
