REMARK  Name = ZINC60240868
REMARK  8 active torsions:
REMARK  status: ('A' for Active; 'I' for Inactive)
REMARK    1  A    between atoms: C_1  and  C_2
REMARK    2  A    between atoms: C_7  and  C_9
REMARK    3  A    between atoms: C_7  and  C_10
REMARK    4  A    between atoms: N_13  and  C_17
REMARK    5  A    between atoms: C_17  and  C_18
REMARK    6  A    between atoms: N_20  and  C_21
REMARK    7  A    between atoms: N_24  and  C_27
REMARK    8  A    between atoms: C_27  and  C_28
REMARK                            x       y       z     vdW  Elec       q    Type
REMARK                         _______ _______ _______ _____ _____    ______ ____
ROOT
ATOM      1  C   UNL     1       0.911   0.719  -0.851  0.00  0.00    +0.007 C 
ATOM      2  C   UNL     1       0.836  -0.793  -0.636  0.00  0.00    -0.011 C 
ATOM      3  C   UNL     1      -0.630  -1.227  -0.565  0.00  0.00    +0.038 C 
ATOM      4  C   UNL     1      -0.706  -2.732  -0.330  0.00  0.00    +0.113 C 
ATOM      5  C   UNL     1       0.009  -3.112   0.962  0.00  0.00    +0.041 C 
ATOM      6  C   UNL     1       1.473  -2.672   0.886  0.00  0.00    -0.032 C 
ATOM      7  C   UNL     1       1.539  -1.158   0.673  0.00  0.00    +0.009 C 
ATOM      8  C   UNL     1       2.184  -3.035   2.191  0.00  0.00    +0.011 C 
ATOM      9  C   UNL     1       2.159  -3.381  -0.284  0.00  0.00    +0.011 C 
ATOM     10  C   UNL     1      -2.146  -3.188  -0.290  0.00  0.00    +0.247 C 
ATOM     11  O   UNL     1      -3.004  -2.844   0.493  0.00  0.00    -0.273 OA
ATOM     12  N   UNL     1      -2.275  -4.060  -1.312  0.00  0.00    -0.215 N 
ATOM     13  C   UNL     1      -1.125  -4.211  -1.980  0.00  0.00    +0.310 C 
ATOM     14  O   UNL     1      -0.993  -4.944  -2.941  0.00  0.00    -0.252 OA
ATOM     15  N   UNL     1      -0.132  -3.460  -1.468  0.00  0.00    -0.285 N 
ATOM     16  H   UNL     1       0.783  -3.410  -1.789  0.00  0.00    +0.151 HD
ENDROOT
BRANCH  12  17
ATOM     17  C   UNL     1      -3.520  -4.755  -1.648  0.00  0.00    +0.213 C 
BRANCH  17  18
ATOM     18  C   UNL     1      -4.310  -3.926  -2.628  0.00  0.00    +0.231 C 
ATOM     19  O   UNL     1      -3.875  -2.860  -3.009  0.00  0.00    -0.274 OA
ATOM     20  N   UNL     1      -5.498  -4.370  -3.082  0.00  0.00    -0.311 N 
ATOM     21  H   UNL     1      -5.846  -5.223  -2.778  0.00  0.00    +0.149 HD
BRANCH  20  22
ATOM     22  C   UNL     1      -6.266  -3.564  -4.035  0.00  0.00    +0.069 C 
ATOM     23  C   UNL     1      -7.115  -2.542  -3.274  0.00  0.00    +0.003 C 
ATOM     24  C   UNL     1      -7.973  -1.758  -4.269  0.00  0.00    -0.077 C 
ATOM     25  N   UNL     1      -8.852  -2.681  -4.997  0.00  0.00    +0.383 N 
ATOM     26  C   UNL     1      -8.045  -3.619  -5.786  0.00  0.00    -0.077 C 
ATOM     27  C   UNL     1      -7.189  -4.475  -4.849  0.00  0.00    +0.003 C 
ATOM     28  H   UNL     1      -9.416  -3.196  -4.338  0.00  0.00    -0.082 HD
BRANCH  25  29
ATOM     29  C   UNL     1      -9.728  -1.916  -5.894  0.00  0.00    -0.006 C 
BRANCH  29  30
ATOM     30  C   UNL     1     -10.702  -1.078  -5.064  0.00  0.00    +0.325 C 
ATOM     31  F   UNL     1     -11.374  -1.905  -4.158  0.00  0.00    -0.211 F 
ATOM     32  F   UNL     1      -9.992  -0.097  -4.363  0.00  0.00    -0.211 F 
ENDBRANCH  29  30
ENDBRANCH  25  29
ENDBRANCH  20  22
ENDBRANCH  17  18
ENDBRANCH  12  17
TORSDOF 5
