REMARK  Name = ZINC16539236
REMARK  12 active torsions:
REMARK  status: ('A' for Active; 'I' for Inactive)
REMARK    1  A    between atoms: C_1  and  C_2
REMARK    2  A    between atoms: C_2  and  C_3
REMARK    3  A    between atoms: C_2  and  C_4
REMARK    4  A    between atoms: C_4  and  C_5
REMARK    5  A    between atoms: N_7  and  C_8
REMARK    6  A    between atoms: C_11  and  C_14
REMARK    7  A    between atoms: C_14  and  C_16
REMARK    8  A    between atoms: C_16  and  O_17
REMARK    9  A    between atoms: O_17  and  C_18
REMARK   10  A    between atoms: C_18  and  C_20
REMARK   11  A    between atoms: C_20  and  C_21
REMARK   12  A    between atoms: C_21  and  N_22
REMARK                            x       y       z     vdW  Elec       q    Type
REMARK                         _______ _______ _______ _____ _____    ______ ____
ROOT
ATOM      1  O   UNL     1      -6.544   5.357  -0.337  0.00  0.00    -0.457 OA
ENDROOT
BRANCH   1   2
ATOM      2  C   UNL     1      -6.803   6.669  -0.453  0.00  0.00    +0.309 C 
ATOM      3  O   UNL     1      -5.893   7.460  -0.532  0.00  0.00    -0.251 OA
BRANCH   2   4
ATOM      4  C   UNL     1      -8.229   7.155  -0.486  0.00  0.00    +0.140 C 
BRANCH   4   5
ATOM      5  C   UNL     1      -8.245   8.679  -0.624  0.00  0.00    +0.129 C 
BRANCH   5   6
ATOM      6  N   UNL     1      -9.631   9.152  -0.656  0.00  0.00    -0.224 N 
ATOM      7  C   UNL     1     -10.340   9.497   0.439  0.00  0.00    +0.247 C 
ATOM      8  O   UNL     1      -9.966   9.476   1.592  0.00  0.00    -0.273 OA
ATOM      9  C   UNL     1     -11.698   9.915  -0.075  0.00  0.00    +0.113 C 
ATOM     10  C   UNL     1     -11.973  11.374   0.275  0.00  0.00    +0.035 C 
ATOM     11  C   UNL     1     -13.339  11.786  -0.278  0.00  0.00    +0.003 C 
ATOM     12  C   UNL     1     -14.423  10.888   0.321  0.00  0.00    +0.000 C 
ATOM     13  C   UNL     1     -14.148   9.431  -0.059  0.00  0.00    +0.003 C 
ATOM     14  C   UNL     1     -12.784   9.009   0.494  0.00  0.00    +0.035 C 
ATOM     15  N   UNL     1     -11.597   9.745  -1.530  0.00  0.00    -0.285 N 
ATOM     16  C   UNL     1     -10.349   9.300  -1.776  0.00  0.00    +0.309 C 
ATOM     17  O   UNL     1      -9.925   9.058  -2.888  0.00  0.00    -0.252 OA
ATOM     18  H   UNL     1     -12.290   9.922  -2.186  0.00  0.00    +0.151 HD
ENDBRANCH   5   6
ENDBRANCH   4   5
ENDBRANCH   2   4
ENDBRANCH   1   2
BRANCH   1  19
ATOM     19  C   UNL     1      -5.147   4.960  -0.312  0.00  0.00    +0.311 C 
BRANCH  19  20
ATOM     20  C   UNL     1      -5.053   3.462  -0.177  0.00  0.00    +0.200 C 
ATOM     21  O   UNL     1      -6.063   2.794  -0.109  0.00  0.00    -0.288 OA
BRANCH  20  25
ATOM     22  C   UNL     1      -1.259   1.584  -0.038  0.00  0.00    +0.033 A 
ATOM     23  C   UNL     1      -1.344   2.968  -0.157  0.00  0.00    +0.024 A 
ATOM     24  C   UNL     1      -2.570   3.580  -0.207  0.00  0.00    +0.013 A 
ATOM     25  C   UNL     1      -3.737   2.811  -0.129  0.00  0.00    +0.021 A 
ATOM     26  C   UNL     1      -3.647   1.419  -0.004  0.00  0.00    +0.013 A 
ATOM     27  C   UNL     1      -2.417   0.815   0.041  0.00  0.00    +0.024 A 
BRANCH  22  30
ATOM     28  C   UNL     1       1.022   1.578   0.619  0.00  0.00    +0.217 C 
ATOM     29  O   UNL     1       0.887   2.699   1.061  0.00  0.00    -0.275 OA
ATOM     30  N   UNL     1      -0.011   0.966   0.007  0.00  0.00    -0.285 N 
ATOM     31  H   UNL     1       0.115   0.097  -0.405  0.00  0.00    +0.155 HD
BRANCH  28  32
ATOM     32  C   UNL     1       2.346   0.870   0.753  0.00  0.00    +0.099 C 
BRANCH  32  34
ATOM     33  C   UNL     1       2.860   2.015   2.913  0.00  0.00    +0.008 C 
ATOM     34  C   UNL     1       3.339   1.778   1.479  0.00  0.00    -0.008 C 
ATOM     35  C   UNL     1       4.716   1.111   1.506  0.00  0.00    +0.008 C 
ENDBRANCH  32  34
ENDBRANCH  28  32
ENDBRANCH  22  30
ENDBRANCH  20  25
ENDBRANCH  19  20
ENDBRANCH   1  19
TORSDOF 10
