REMARK  Name = ZINC09269325
REMARK  10 active torsions:
REMARK  status: ('A' for Active; 'I' for Inactive)
REMARK    1  A    between atoms: C_3  and  S_25
REMARK    2  A    between atoms: C_6  and  N_7
REMARK    3  A    between atoms: N_7  and  C_8
REMARK    4  A    between atoms: C_8  and  N_10
REMARK    5  A    between atoms: C_11  and  C_13
REMARK    6  A    between atoms: C_15  and  N_22
REMARK    7  A    between atoms: C_17  and  N_19
REMARK    8  A    between atoms: S_25  and  N_28
REMARK    9  A    between atoms: N_28  and  C_29
REMARK   10  A    between atoms: C_29  and  C_30
REMARK                            x       y       z     vdW  Elec       q    Type
REMARK                         _______ _______ _______ _____ _____    ______ ____
ROOT
ATOM      1  N   UNL     1      -1.706   0.676  -7.774  0.00  0.00    -0.297 N 
ATOM      2  H   UNL     1      -0.768   0.676  -8.020  0.00  0.00    +0.154 HD
ENDROOT
BRANCH   1   8
ATOM      3  C   UNL     1      -3.089   0.168  -5.861  0.00  0.00    +0.025 A 
ATOM      4  C   UNL     1      -3.457   0.412  -4.552  0.00  0.00    +0.030 A 
ATOM      5  C   UNL     1      -2.824   1.405  -3.828  0.00  0.00    +0.105 A 
ATOM      6  C   UNL     1      -1.825   2.162  -4.413  0.00  0.00    +0.030 A 
ATOM      7  C   UNL     1      -1.448   1.919  -5.720  0.00  0.00    +0.025 A 
ATOM      8  C   UNL     1      -2.082   0.921  -6.449  0.00  0.00    +0.033 A 
BRANCH   5   9
ATOM      9  S   UNL     1      -3.297   1.714  -2.159  0.00  0.00    +0.058 S 
ATOM     10  O   UNL     1      -4.630   1.242  -2.021  0.00  0.00    -0.153 OA
ATOM     11  O   UNL     1      -2.930   3.057  -1.875  0.00  0.00    -0.153 OA
BRANCH   9  12
ATOM     12  N   UNL     1      -2.353   0.751  -1.197  0.00  0.00    -0.187 NA
ATOM     13  H   UNL     1      -2.758   0.044  -0.672  0.00  0.00    +0.148 HD
BRANCH  12  14
ATOM     14  C   UNL     1      -0.905   0.969  -1.139  0.00  0.00    +0.137 C 
BRANCH  14  15
ATOM     15  C   UNL     1      -0.326   0.228   0.067  0.00  0.00    +0.134 C 
ATOM     16  C   UNL     1       1.196   0.457   0.141  0.00  0.00    +0.035 C 
ATOM     17  C   UNL     1       1.416   1.100   1.532  0.00  0.00    +0.031 C 
ATOM     18  C   UNL     1       0.134   0.677   2.292  0.00  0.00    +0.160 C 
ATOM     19  O   UNL     1      -0.895   0.745   1.282  0.00  0.00    -0.375 OA
ENDBRANCH  14  15
ENDBRANCH  12  14
ENDBRANCH   9  12
ENDBRANCH   5   9
ENDBRANCH   1   8
BRANCH   1  20
ATOM     20  C   UNL     1      -2.648   0.441  -8.709  0.00  0.00    +0.141 C 
ATOM     21  S   UNL     1      -4.306   0.582  -8.308  0.00  0.00    -0.018 S 
BRANCH  20  22
ATOM     22  N   UNL     1      -2.284   0.096  -9.960  0.00  0.00    -0.264 N 
ATOM     23  C   UNL     1      -3.226  -0.140 -10.895  0.00  0.00    +0.250 C 
ATOM     24  O   UNL     1      -4.403  -0.040 -10.610  0.00  0.00    -0.270 OA
ATOM     25  H   UNL     1      -1.345   0.016 -10.188  0.00  0.00    +0.157 HD
BRANCH  23  26
ATOM     26  C   UNL     1      -2.828  -0.519 -12.267  0.00  0.00    +0.041 A 
ATOM     27  C   UNL     1      -1.476  -0.629 -12.599  0.00  0.00    +0.046 A 
ATOM     28  C   UNL     1      -1.111  -0.989 -13.879  0.00  0.00    +0.129 A 
ATOM     29  C   UNL     1      -2.080  -1.229 -14.837  0.00  0.00    +0.065 A 
ATOM     30  C   UNL     1      -3.421  -1.116 -14.516  0.00  0.00    +0.129 A 
ATOM     31  C   UNL     1      -3.801  -0.763 -13.237  0.00  0.00    +0.046 A 
BRANCH  30  32
ATOM     32  N   UNL     1      -4.452  -1.375 -15.547  0.00  0.00    +0.057 N 
ATOM     33  O   UNL     1      -5.633  -1.277 -15.265  0.00  0.00    -0.126 OA
ATOM     34  O   UNL     1      -4.119  -1.687 -16.676  0.00  0.00    -0.126 OA
ENDBRANCH  30  32
BRANCH  28  35
ATOM     35  N   UNL     1       0.322  -1.112 -14.232  0.00  0.00    +0.057 N 
ATOM     36  O   UNL     1       0.646  -1.425 -15.363  0.00  0.00    -0.126 OA
ATOM     37  O   UNL     1       1.176  -0.901 -13.390  0.00  0.00    -0.126 OA
ENDBRANCH  28  35
ENDBRANCH  23  26
ENDBRANCH  20  22
ENDBRANCH   1  20
TORSDOF 10
