REMARK  Name = ZINC40930570
REMARK  8 active torsions:
REMARK  status: ('A' for Active; 'I' for Inactive)
REMARK    1  A    between atoms: N_9  and  C_11
REMARK    2  A    between atoms: C_11  and  C_12
REMARK    3  A    between atoms: C_12  and  C_13
REMARK    4  A    between atoms: C_13  and  N_14
REMARK    5  A    between atoms: C_15  and  C_17
REMARK    6  A    between atoms: N_20  and  C_23
REMARK    7  A    between atoms: C_23  and  C_24
REMARK    8  A    between atoms: C_26  and  C_29
REMARK                            x       y       z     vdW  Elec       q    Type
REMARK                         _______ _______ _______ _____ _____    ______ ____
ROOT
ATOM      1  N   UNL     1       8.238  -2.333   1.887  0.00  0.00    -0.315 N 
ATOM      2  C   UNL     1       9.494  -2.821   1.903  0.00  0.00    +0.216 C 
ATOM      3  O   UNL     1       9.799  -3.736   1.168  0.00  0.00    -0.276 OA
ATOM      4  H   UNL     1       7.994  -1.601   2.474  0.00  0.00    +0.149 HD
ENDROOT
BRANCH   2   5
ATOM      5  C   UNL     1      10.520  -2.229   2.835  0.00  0.00    +0.071 C 
ATOM      6  C   UNL     1      10.713  -0.745   2.509  0.00  0.00    -0.006 C 
ATOM      7  C   UNL     1      11.812  -0.170   3.405  0.00  0.00    -0.077 C 
ATOM      8  N   UNL     1      13.068  -0.891   3.169  0.00  0.00    +0.386 N 
ATOM      9  C   UNL     1      12.912  -2.301   3.548  0.00  0.00    -0.077 C 
ATOM     10  C   UNL     1      11.855  -2.958   2.657  0.00  0.00    -0.006 C 
ATOM     11  H   UNL     1      13.310  -0.832   2.191  0.00  0.00    -0.081 HD
BRANCH   8  12
ATOM     12  C   UNL     1      14.138  -0.285   3.973  0.00  0.00    +0.022 C 
BRANCH  12  13
ATOM     13  C   UNL     1      15.451  -0.945   3.640  0.00  0.00    +0.211 A 
ATOM     14  N   UNL     1      16.283  -0.559   2.716  0.00  0.00    -0.192 NA
ATOM     15  C   UNL     1      17.355  -1.374   2.691  0.00  0.00    +0.209 A 
ATOM     16  N   UNL     1      17.202  -2.294   3.615  0.00  0.00    -0.056 NA
ATOM     17  O   UNL     1      15.962  -2.022   4.250  0.00  0.00    -0.340 OA
BRANCH  15  18
ATOM     18  C   UNL     1      18.509  -1.253   1.776  0.00  0.00    +0.060 A 
ATOM     19  C   UNL     1      19.626  -2.041   1.687  0.00  0.00    +0.019 A 
ATOM     20  C   UNL     1      20.580  -1.732   0.745  0.00  0.00    +0.008 A 
ATOM     21  C   UNL     1      20.388  -0.659  -0.065  0.00  0.00    +0.046 A 
ATOM     22  S   UNL     1      18.807  -0.047   0.494  0.00  0.00    -0.093 S 
ENDBRANCH  15  18
ENDBRANCH  12  13
ENDBRANCH   8  12
ENDBRANCH   2   5
BRANCH   1  23
ATOM     23  C   UNL     1       7.241  -2.908   0.981  0.00  0.00    +0.102 C 
BRANCH  23  24
ATOM     24  C   UNL     1       5.908  -2.179   1.160  0.00  0.00    +0.000 C 
BRANCH  24  25
ATOM     25  C   UNL     1       4.866  -2.780   0.214  0.00  0.00    -0.077 C 
BRANCH  25  34
ATOM     26  C   UNL     1      -0.017   1.376   0.010  0.00  0.00    +0.000 A 
ATOM     27  C   UNL     1       1.173   2.080   0.002  0.00  0.00    +0.000 A 
ATOM     28  C   UNL     1       2.375   1.401  -0.015  0.00  0.00    +0.002 A 
ATOM     29  C   UNL     1       2.395   0.014  -0.023  0.00  0.00    -0.061 A 
ATOM     30  C   UNL     1       1.208  -0.687  -0.013  0.00  0.00    -0.048 A 
ATOM     31  C   UNL     1       0.002  -0.004   0.002  0.00  0.00    +0.004 A 
ATOM     32  C   UNL     1       1.186  -2.194  -0.014  0.00  0.00    +0.017 C 
ATOM     33  C   UNL     1       2.554  -2.732  -0.434  0.00  0.00    -0.074 C 
ATOM     34  N   UNL     1       3.587  -2.079   0.386  0.00  0.00    +0.383 N 
ATOM     35  C   UNL     1       3.728  -0.686  -0.046  0.00  0.00    -0.043 C 
ATOM     36  H   UNL     1       3.313  -2.106   1.357  0.00  0.00    -0.081 HD
ENDBRANCH  25  34
ENDBRANCH  24  25
ENDBRANCH  23  24
ENDBRANCH   1  23
TORSDOF 8
