REMARK  Name = ZINC12924537
REMARK  12 active torsions:
REMARK  status: ('A' for Active; 'I' for Inactive)
REMARK    1  A    between atoms: C_1  and  C_2
REMARK    2  A    between atoms: C_5  and  C_7
REMARK    3  A    between atoms: C_7  and  N_60
REMARK    4  A    between atoms: C_8  and  C_9
REMARK    5  A    between atoms: C_8  and  N_60
REMARK    6  A    between atoms: C_9  and  C_10
REMARK    7  A    between atoms: C_16  and  N_17
REMARK    8  A    between atoms: C_16  and  N_60
REMARK    9  A    between atoms: N_20  and  C_28
REMARK   10  A    between atoms: C_21  and  C_23
REMARK   11  A    between atoms: C_23  and  C_24
REMARK   12  A    between atoms: C_24  and  C_25
REMARK                            x       y       z     vdW  Elec       q    Type
REMARK                         _______ _______ _______ _____ _____    ______ ____
ROOT
ATOM      1  C   UNL     1      -0.371  -1.823   2.457  0.00  0.00    +0.072 C 
ENDROOT
BRANCH   1   2
ATOM      2  N   UNL     1      -1.775  -1.511   2.737  0.00  0.00    -0.257 N 
ATOM      3  C   UNL     1      -2.797  -2.391   2.775  0.00  0.00    +0.177 A 
ATOM      4  S   UNL     1      -2.693  -4.079   2.504  0.00  0.00    -0.011 S 
ATOM      5  N   UNL     1      -3.916  -1.697   3.065  0.00  0.00    -0.304 N 
ATOM      6  C   UNL     1      -3.579  -0.373   3.207  0.00  0.00    +0.133 A 
ATOM      7  N   UNL     1      -2.304  -0.245   3.020  0.00  0.00    -0.158 NA
BRANCH   5   8
ATOM      8  C   UNL     1      -5.262  -2.259   3.204  0.00  0.00    +0.091 C 
ATOM      9  C   UNL     1      -5.378  -3.767   3.431  0.00  0.00    +0.027 C 
ATOM     10  C   UNL     1      -5.770  -3.163   2.080  0.00  0.00    +0.027 C 
ENDBRANCH   5   8
BRANCH   6  11
ATOM     11  C   UNL     1      -4.534   0.745   3.534  0.00  0.00    +0.085 C 
BRANCH  11  12
ATOM     12  C   UNL     1      -4.624   0.912   5.052  0.00  0.00    +0.103 C 
BRANCH  12  13
ATOM     13  C   UNL     1      -5.580   2.031   5.378  0.00  0.00    +0.211 C 
ATOM     14  O   UNL     1      -6.135   2.635   4.485  0.00  0.00    -0.276 OA
ATOM     15  N   UNL     1      -5.818   2.360   6.663  0.00  0.00    -0.329 N 
ATOM     16  H   UNL     1      -5.374   1.877   7.378  0.00  0.00    +0.145 HD
ATOM     17  H   UNL     1      -6.433   3.080   6.874  0.00  0.00    +0.145 HD
ENDBRANCH  12  13
ENDBRANCH  11  12
ENDBRANCH   6  11
ENDBRANCH   1   2
BRANCH   1  18
ATOM     18  N   UNL     1      -0.136  -1.690   1.004  0.00  0.00    +0.396 N 
ATOM     19  H   UNL     1      -0.923  -2.114   0.499  0.00  0.00    -0.079 HD
BRANCH  18  20
ATOM     20  C   UNL     1       1.110  -2.391   0.628  0.00  0.00    -0.033 C 
BRANCH  20  25
ATOM     21  C   UNL     1       0.593  -7.919   1.751  0.00  0.00    +0.051 C 
ATOM     22  C   UNL     1       0.620  -6.509   1.220  0.00  0.00    -0.013 A 
ATOM     23  C   UNL     1       0.194  -6.039   0.023  0.00  0.00    +0.011 A 
ATOM     24  C   UNL     1       0.320  -4.690  -0.251  0.00  0.00    +0.009 A 
ATOM     25  C   UNL     1       0.866  -3.877   0.686  0.00  0.00    -0.026 A 
ATOM     26  S   UNL     1       1.229  -5.025   2.004  0.00  0.00    -0.100 S 
ENDBRANCH  20  25
ENDBRANCH  18  20
BRANCH  18  27
ATOM     27  C   UNL     1      -0.043  -0.262   0.636  0.00  0.00    -0.071 C 
BRANCH  27  28
ATOM     28  C   UNL     1      -0.026  -0.145  -0.890  0.00  0.00    +0.017 C 
BRANCH  28  29
ATOM     29  C   UNL     1       0.047   1.308  -1.282  0.00  0.00    -0.049 A 
ATOM     30  C   UNL     1      -1.116   2.030  -1.477  0.00  0.00    +0.003 A 
ATOM     31  C   UNL     1      -1.049   3.364  -1.832  0.00  0.00    +0.000 A 
ATOM     32  C   UNL     1       0.180   3.974  -2.002  0.00  0.00    +0.000 A 
ATOM     33  C   UNL     1       1.342   3.250  -1.813  0.00  0.00    +0.000 A 
ATOM     34  C   UNL     1       1.276   1.917  -1.452  0.00  0.00    +0.003 A 
ENDBRANCH  28  29
ENDBRANCH  27  28
ENDBRANCH  18  27
ENDBRANCH   1  18
TORSDOF 11
