REMARK  Name = ZINC50441370
REMARK  4 active torsions:
REMARK  status: ('A' for Active; 'I' for Inactive)
REMARK    1  A    between atoms: C_2  and  N_19
REMARK    2  A    between atoms: C_5  and  O_8
REMARK    3  A    between atoms: O_8  and  C_9
REMARK    4  A    between atoms: C_9  and  C_10
REMARK                            x       y       z     vdW  Elec       q    Type
REMARK                         _______ _______ _______ _____ _____    ______ ____
ROOT
ATOM      1  O   UNL     1       1.235  -2.039  -0.022  0.00  0.00    -0.481 OA
ENDROOT
BRANCH   1   6
ATOM      2  C   UNL     1      -0.017   1.378   0.010  0.00  0.00    +0.051 A 
ATOM      3  C   UNL     1       1.170   2.087   0.002  0.00  0.00    +0.129 A 
ATOM      4  C   UNL     1       2.379   1.416  -0.013  0.00  0.00    +0.051 A 
ATOM      5  C   UNL     1       2.404   0.034  -0.021  0.00  0.00    +0.063 A 
ATOM      6  C   UNL     1       1.214  -0.680  -0.013  0.00  0.00    +0.149 A 
ATOM      7  C   UNL     1       0.002  -0.004   0.002  0.00  0.00    +0.063 A 
ATOM      8 BR   UNL     1      -1.622  -0.973   0.013  0.00  0.00    -0.046 Br
ATOM      9 BR   UNL     1       4.058  -0.883  -0.044  0.00  0.00    -0.046 Br
BRANCH   3  10
ATOM     10  N   UNL     1       1.147   3.567   0.010  0.00  0.00    +0.056 N 
ATOM     11  O   UNL     1       0.091   4.155   0.023  0.00  0.00    -0.126 OA
ATOM     12  O   UNL     1       2.184   4.188   0.004  0.00  0.00    -0.126 OA
ENDBRANCH   3  10
ENDBRANCH   1   6
BRANCH   1  13
ATOM     13  C   UNL     1       1.259  -2.696   1.247  0.00  0.00    +0.324 C 
BRANCH  13  14
ATOM     14  C   UNL     1       1.280  -4.188   1.041  0.00  0.00    +0.253 C 
ATOM     15  O   UNL     1       1.276  -4.645  -0.083  0.00  0.00    -0.272 OA
ATOM     16  N   UNL     1       1.304  -5.016   2.104  0.00  0.00    -0.302 N 
ATOM     17  C   UNL     1       1.303  -4.484   3.476  0.00  0.00    +0.089 C 
ATOM     18  C   UNL     1       0.202  -5.194   4.271  0.00  0.00    -0.063 C 
ATOM     19  N   UNL     1       0.396  -6.646   4.184  0.00  0.00    +0.381 N 
ATOM     20  C   UNL     1       0.229  -7.091   2.795  0.00  0.00    -0.063 C 
ATOM     21  C   UNL     1       1.325  -6.476   1.927  0.00  0.00    +0.089 C 
ATOM     22  H   UNL     1       1.325  -6.880   4.502  0.00  0.00    -0.086 HD
ATOM     23  H   UNL     1      -0.283  -7.111   4.769  0.00  0.00    -0.086 HD
ENDBRANCH  13  14
ENDBRANCH   1  13
TORSDOF 4
