REMARK  Name = ZINC36915758
REMARK  4 active torsions:
REMARK  status: ('A' for Active; 'I' for Inactive)
REMARK    1  A    between atoms: C_1  and  C_2
REMARK    2  A    between atoms: C_2  and  C_3
REMARK    3  A    between atoms: C_3  and  C_4
REMARK    4  A    between atoms: C_6  and  C_9
REMARK                            x       y       z     vdW  Elec       q    Type
REMARK                         _______ _______ _______ _____ _____    ______ ____
ROOT
ATOM      1  C   UNL     1      -1.377  -5.243  -1.695  0.00  0.00    +0.278 C 
ATOM      2  C   UNL     1      -2.764  -5.901  -1.716  0.00  0.00    +0.156 C 
ATOM      3  N   UNL     1      -2.690  -7.066  -2.614  0.00  0.00    -0.337 N 
ATOM      4  C   UNL     1      -1.548  -7.879  -2.536  0.00  0.00    +0.070 A 
ATOM      5  C   UNL     1      -1.543  -9.129  -3.135  0.00  0.00    +0.026 A 
ATOM      6  C   UNL     1      -0.415  -9.925  -3.057  0.00  0.00    +0.002 A 
ATOM      7  C   UNL     1       0.706  -9.475  -2.385  0.00  0.00    +0.004 A 
ATOM      8  C   UNL     1       0.705  -8.230  -1.784  0.00  0.00    +0.047 A 
ATOM      9  C   UNL     1      -0.422  -7.425  -1.855  0.00  0.00    +0.142 A 
ATOM     10  O   UNL     1      -0.414  -6.204  -1.256  0.00  0.00    -0.476 OA
ATOM     11  H   UNL     1      -3.405  -7.265  -3.238  0.00  0.00    +0.146 HD
ENDROOT
BRANCH   1  14
ATOM     12  C   UNL     1      -1.413  -2.041   0.005  0.00  0.00    +0.172 A 
ATOM     13  N   UNL     1      -1.407  -2.812  -1.088  0.00  0.00    -0.193 NA
ATOM     14  C   UNL     1      -1.389  -4.071  -0.747  0.00  0.00    +0.270 A 
ATOM     15  O   UNL     1      -1.382  -4.143   0.590  0.00  0.00    -0.334 OA
ATOM     16  N   UNL     1      -1.392  -2.803   1.060  0.00  0.00    -0.061 NA
BRANCH  12  17
ATOM     17  C   UNL     1      -1.433  -0.534   0.013  0.00  0.00    +0.079 C 
BRANCH  17  19
ATOM     18  C   UNL     1      -0.019   1.526   0.010  0.00  0.00    +0.004 C 
ATOM     19  C   UNL     1       0.002  -0.004   0.002  0.00  0.00    +0.004 C 
ENDBRANCH  17  19
ENDBRANCH  12  17
ENDBRANCH   1  14
TORSDOF 3
