REMARK  Name = ZINC13682161
REMARK  4 active torsions:
REMARK  status: ('A' for Active; 'I' for Inactive)
REMARK    1  A    between atoms: C_7  and  C_11
REMARK    2  A    between atoms: C_14  and  C_19
REMARK    3  A    between atoms: C_19  and  O_20
REMARK    4  A    between atoms: O_20  and  C_21
REMARK                            x       y       z     vdW  Elec       q    Type
REMARK                         _______ _______ _______ _____ _____    ______ ____
ROOT
ATOM      1  C   UNL     1       0.685  -3.261  -0.022  0.00  0.00    +0.134 A 
ATOM      2  N   UNL     1      -0.625  -3.275  -0.013  0.00  0.00    -0.155 NA
ATOM      3  N   UNL     1      -1.330  -4.471  -0.012  0.00  0.00    -0.186 N 
ATOM      4  C   UNL     1      -2.633  -4.924  -0.004  0.00  0.00    +0.193 A 
ATOM      5  N   UNL     1      -2.606  -6.228  -0.007  0.00  0.00    -0.128 NA
ATOM      6  N   UNL     1      -1.387  -6.644  -0.017  0.00  0.00    -0.120 NA
ATOM      7  C   UNL     1      -0.584  -5.623  -0.019  0.00  0.00    +0.218 A 
ATOM      8  S   UNL     1       1.079  -5.003  -0.037  0.00  0.00    -0.026 S 
ENDROOT
BRANCH   1  15
ATOM      9  C   UNL     1      -0.017   1.363   0.009  0.00  0.00    +0.001 A 
ATOM     10  C   UNL     1       1.170   2.083   0.002  0.00  0.00    +0.002 A 
ATOM     11  C   UNL     1       2.385   1.434  -0.013  0.00  0.00    +0.026 A 
ATOM     12  C   UNL     1       2.426   0.043  -0.021  0.00  0.00    +0.047 A 
ATOM     13  C   UNL     1       1.221  -0.680  -0.013  0.00  0.00    +0.009 A 
ATOM     14  C   UNL     1       0.002  -0.004   0.002  0.00  0.00    +0.010 A 
ATOM     15  C   UNL     1       1.601  -2.103  -0.025  0.00  0.00    +0.034 A 
ATOM     16  C   UNL     1       2.959  -2.142  -0.040  0.00  0.00    +0.094 A 
ATOM     17  N   UNL     1       3.456  -0.873  -0.037  0.00  0.00    -0.360 N 
ATOM     18  H   UNL     1       4.399  -0.646  -0.046  0.00  0.00    +0.165 HD
ENDBRANCH   1  15
BRANCH   4  19
ATOM     19  C   UNL     1      -3.870  -4.064   0.006  0.00  0.00    +0.307 C 
BRANCH  19  20
ATOM     20  O   UNL     1      -4.270  -3.789  -1.337  0.00  0.00    -0.484 OA
BRANCH  20  21
ATOM     21  C   UNL     1      -5.378  -3.019  -1.506  0.00  0.00    +0.121 A 
ATOM     22  C   UNL     1      -6.061  -2.534  -0.401  0.00  0.00    +0.048 A 
ATOM     23  C   UNL     1      -7.187  -1.752  -0.574  0.00  0.00    +0.042 A 
ATOM     24  C   UNL     1      -7.633  -1.452  -1.850  0.00  0.00    +0.124 A 
ATOM     25  C   UNL     1      -6.952  -1.935  -2.954  0.00  0.00    +0.042 A 
ATOM     26  C   UNL     1      -5.822  -2.712  -2.784  0.00  0.00    +0.048 A 
ATOM     27  F   UNL     1      -8.734  -0.687  -2.018  0.00  0.00    -0.205 F 
ENDBRANCH  20  21
ENDBRANCH  19  20
ENDBRANCH   4  19
TORSDOF 4
