REMARK  Name = ZINC27529615
REMARK  3 active torsions:
REMARK  status: ('A' for Active; 'I' for Inactive)
REMARK    1  A    between atoms: C_9  and  O_13
REMARK    2  A    between atoms: O_13  and  C_14
REMARK    3  A    between atoms: C_14  and  C_16
REMARK                            x       y       z     vdW  Elec       q    Type
REMARK                         _______ _______ _______ _____ _____    ______ ____
ROOT
ATOM      1  O   UNL     1       6.110  -0.611  -0.262  0.00  0.00    -0.450 OA
ENDROOT
BRANCH   1  10
ATOM      2  C   UNL     1      -0.017   1.380   0.010  0.00  0.00    +0.000 A 
ATOM      3  C   UNL     1       0.002  -0.004   0.002  0.00  0.00    +0.001 A 
ATOM      4  C   UNL     1       1.206  -0.676  -0.015  0.00  0.00    +0.012 A 
ATOM      5  C   UNL     1       2.404   0.045  -0.022  0.00  0.00    +0.024 A 
ATOM      6  C   UNL     1       2.382   1.440  -0.012  0.00  0.00    -0.037 A 
ATOM      7  C   UNL     1       1.165   2.098   0.002  0.00  0.00    +0.004 A 
ATOM      8  C   UNL     1       3.651   2.249  -0.013  0.00  0.00    +0.040 C 
ATOM      9  C   UNL     1       4.820   1.443  -0.573  0.00  0.00    +0.057 C 
ATOM     10  C   UNL     1       4.951   0.128   0.207  0.00  0.00    +0.248 C 
ATOM     11  C   UNL     1       3.692  -0.675  -0.046  0.00  0.00    +0.204 C 
ATOM     12  O   UNL     1       3.740  -1.868  -0.260  0.00  0.00    -0.288 OA
ENDBRANCH   1  10
BRANCH   1  13
ATOM     13  C   UNL     1       6.708  -1.435   0.621  0.00  0.00    +0.340 C 
ATOM     14  O   UNL     1       6.274  -1.533   1.751  0.00  0.00    -0.245 OA
BRANCH  13  15
ATOM     15  C   UNL     1       7.891  -2.217   0.215  0.00  0.00    +0.063 A 
ATOM     16  C   UNL     1       8.389  -2.109  -1.087  0.00  0.00    +0.019 A 
ATOM     17  C   UNL     1       9.497  -2.836  -1.462  0.00  0.00    +0.050 A 
ATOM     18  C   UNL     1      10.115  -3.687  -0.555  0.00  0.00    +0.166 A 
ATOM     19  C   UNL     1       9.620  -3.803   0.744  0.00  0.00    +0.167 A 
ATOM     20  C   UNL     1       8.513  -3.072   1.129  0.00  0.00    +0.064 A 
ATOM     21  O   UNL     1      10.397  -4.692   1.429  0.00  0.00    -0.453 OA
ATOM     22  C   UNL     1      11.120  -5.425   0.421  0.00  0.00    +0.466 C 
ATOM     23  O   UNL     1      11.201  -4.502  -0.681  0.00  0.00    -0.453 OA
ENDBRANCH  13  15
ENDBRANCH   1  13
TORSDOF 3
