REMARK  Name = ZINC66231170
REMARK  7 active torsions:
REMARK  status: ('A' for Active; 'I' for Inactive)
REMARK    1  A    between atoms: C_1  and  C_2
REMARK    2  A    between atoms: C_2  and  C_4
REMARK    3  A    between atoms: C_2  and  N_19
REMARK    4  A    between atoms: C_6  and  C_7
REMARK    5  A    between atoms: C_6  and  S_9
REMARK    6  A    between atoms: S_9  and  C_12
REMARK    7  A    between atoms: C_20  and  C_22
REMARK                            x       y       z     vdW  Elec       q    Type
REMARK                         _______ _______ _______ _____ _____    ______ ____
ROOT
ATOM      1  C   UNL     1       0.707  -0.490  -1.238  0.00  0.00    +0.211 C 
ATOM      2  O   UNL     1       0.175  -0.250  -2.455  0.00  0.00    -0.288 OA
ATOM      3  C   UNL     1       1.865  -1.162  -1.132  0.00  0.00    +0.214 C 
ENDROOT
BRANCH   3   4
ATOM      4  S   UNL     1       2.690  -1.731  -2.582  0.00  0.00    +0.038 S 
ATOM      5  O   UNL     1       3.012  -3.096  -2.357  0.00  0.00    -0.164 OA
ATOM      6  O   UNL     1       1.907  -1.305  -3.688  0.00  0.00    -0.164 OA
BRANCH   4   7
ATOM      7  C   UNL     1       4.220  -0.863  -2.684  0.00  0.00    +0.095 A 
ATOM      8  C   UNL     1       4.287   0.342  -3.360  0.00  0.00    +0.029 A 
ATOM      9  C   UNL     1       5.487   1.023  -3.441  0.00  0.00    +0.022 A 
ATOM     10  C   UNL     1       6.621   0.499  -2.846  0.00  0.00    +0.041 A 
ATOM     11  C   UNL     1       6.553  -0.706  -2.170  0.00  0.00    +0.022 A 
ATOM     12  C   UNL     1       5.352  -1.384  -2.085  0.00  0.00    +0.029 A 
ATOM     13 CL   UNL     1       8.129   1.354  -2.948  0.00  0.00    -0.084 Cl
ENDBRANCH   4   7
ENDBRANCH   3   4
BRANCH   1  15
ATOM     14  C   UNL     1      -0.019   1.526   0.010  0.00  0.00    +0.036 C 
ATOM     15  C   UNL     1       0.002  -0.004   0.002  0.00  0.00    +0.143 C 
BRANCH  15  16
ATOM     16  N   UNL     1      -1.372  -0.511   0.012  0.00  0.00    -0.305 N 
ATOM     17  C   UNL     1      -2.029  -0.655   1.181  0.00  0.00    +0.217 C 
ATOM     18  O   UNL     1      -1.481  -0.365   2.224  0.00  0.00    -0.275 OA
ATOM     19  H   UNL     1      -1.810  -0.743  -0.822  0.00  0.00    +0.149 HD
BRANCH  17  20
ATOM     20  C   UNL     1      -3.442  -1.177   1.191  0.00  0.00    +0.075 C 
ATOM     21  C   UNL     1      -4.499  -0.098   0.902  0.00  0.00    +0.013 C 
ATOM     22  C   UNL     1      -5.361  -0.763   1.989  0.00  0.00    +0.001 C 
ATOM     23  C   UNL     1      -4.050  -1.282   2.600  0.00  0.00    +0.013 C 
ENDBRANCH  17  20
ENDBRANCH  15  16
ENDBRANCH   1  15
BRANCH   3  24
ATOM     24  C   UNL     1       2.430  -1.417   0.159  0.00  0.00    +0.122 C 
ATOM     25  N   UNL     1       2.877  -1.619   1.184  0.00  0.00    -0.189 NA
ENDBRANCH   3  24
TORSDOF 6
