REMARK  Name = ZINC17161096
REMARK  4 active torsions:
REMARK  status: ('A' for Active; 'I' for Inactive)
REMARK    1  A    between atoms: C_1  and  C_2
REMARK    2  A    between atoms: N_5  and  O_6
REMARK    3  A    between atoms: C_10  and  C_11
REMARK    4  A    between atoms: C_10  and  C_13
REMARK                            x       y       z     vdW  Elec       q    Type
REMARK                         _______ _______ _______ _____ _____    ______ ____
ROOT
ATOM      1  C   UNL     1      -0.123  -2.842  -0.215  0.00  0.00    +0.044 C 
ATOM      2  C   UNL     1      -0.569  -2.129   1.035  0.00  0.00    -0.040 C 
ATOM      3  C   UNL     1      -1.048  -2.841   2.076  0.00  0.00    +0.035 C 
ATOM      4  C   UNL     1      -1.486  -2.137   3.289  0.00  0.00    +0.103 C 
ATOM      5  N   UNL     1      -1.962  -2.806   4.317  0.00  0.00    -0.088 NA
ATOM      6  C   UNL     1      -1.383  -0.672   3.332  0.00  0.00    +0.031 C 
ATOM      7  C   UNL     1      -0.891  -0.013   2.263  0.00  0.00    +0.011 C 
ATOM      8  C   UNL     1      -0.477  -0.718   1.108  0.00  0.00    -0.004 C 
ATOM      9  C   UNL     1       0.029  -0.006   0.013  0.00  0.00    +0.066 C 
ENDROOT
BRANCH   9  10
ATOM     10  C   UNL     1      -0.016   1.468   0.007  0.00  0.00    -0.007 A 
ATOM     11  C   UNL     1      -1.246   2.133  -0.018  0.00  0.00    +0.009 A 
ATOM     12  C   UNL     1      -1.281   3.511  -0.017  0.00  0.00    +0.001 A 
ATOM     13  C   UNL     1      -0.102   4.237  -0.004  0.00  0.00    +0.000 A 
ATOM     14  C   UNL     1       1.119   3.586   0.016  0.00  0.00    +0.001 A 
ATOM     15  C   UNL     1       1.170   2.208   0.021  0.00  0.00    +0.009 A 
ENDBRANCH   9  10
BRANCH   5  16
ATOM     16  O   UNL     1      -2.055  -4.218   4.261  0.00  0.00    -0.409 OA
ATOM     17  H   UNL     1      -2.453  -4.777   5.121  0.00  0.00    +0.328 HD
ENDBRANCH   5  16
BRANCH   9  18
ATOM     18  C   UNL     1       0.591  -0.710  -1.101  0.00  0.00    +0.100 C 
ATOM     19  N   UNL     1       1.036  -1.268  -1.984  0.00  0.00    -0.191 NA
ENDBRANCH   9  18
TORSDOF 3
