REMARK  Name = ZINC39354217
REMARK  6 active torsions:
REMARK  status: ('A' for Active; 'I' for Inactive)
REMARK    1  A    between atoms: C_1  and  C_2
REMARK    2  A    between atoms: C_2  and  C_3
REMARK    3  A    between atoms: C_8  and  C_12
REMARK    4  A    between atoms: C_12  and  C_14
REMARK    5  A    between atoms: N_16  and  C_17
REMARK    6  A    between atoms: C_19  and  C_30
REMARK                            x       y       z     vdW  Elec       q    Type
REMARK                         _______ _______ _______ _____ _____    ______ ____
ROOT
ATOM      1  C   UNL     1      -0.620  -1.400   7.236  0.00  0.00    +0.285 C 
ATOM      2  O   UNL     1      -1.638  -0.760   7.068  0.00  0.00    -0.267 OA
ATOM      3  N   UNL     1      -0.454  -2.116   8.366  0.00  0.00    -0.296 N 
ATOM      4  H   UNL     1       0.328  -2.681   8.471  0.00  0.00    +0.150 HD
ENDROOT
BRANCH   3   5
ATOM      5  C   UNL     1      -1.453  -2.042   9.434  0.00  0.00    +0.149 C 
ATOM      6  C   UNL     1      -1.422  -3.323  10.305  0.00  0.00    +0.126 C 
ATOM      7  C   UNL     1      -2.838  -3.657  10.779  0.00  0.00    +0.021 C 
ATOM      8  C   UNL     1      -2.913  -5.011  11.454  0.00  0.00    +0.006 C 
ATOM      9  C   UNL     1      -2.672  -6.137  10.448  0.00  0.00    +0.000 C 
ATOM     10  C   UNL     1      -3.739  -6.051   9.352  0.00  0.00    +0.001 C 
ATOM     11  C   UNL     1      -3.589  -4.719   8.621  0.00  0.00    +0.014 C 
ATOM     12  C   UNL     1      -3.808  -3.574   9.578  0.00  0.00    +0.053 C 
ATOM     13  S   UNL     1      -3.155  -2.059   8.738  0.00  0.00    -0.134 S 
BRANCH   6  14
ATOM     14  C   UNL     1      -0.896  -4.444   9.510  0.00  0.00    +0.069 C 
ATOM     15  N   UNL     1      -0.489  -5.309   8.896  0.00  0.00    -0.196 NA
ENDBRANCH   6  14
ENDBRANCH   3   5
BRANCH   1  16
ATOM     16  C   UNL     1       0.444  -1.394   6.195  0.00  0.00    +0.246 C 
ATOM     17  O   UNL     1       1.464  -2.035   6.363  0.00  0.00    -0.282 OA
BRANCH  16  23
ATOM     18  C   UNL     1       1.332   0.618   1.705  0.00  0.00    -0.024 A 
ATOM     19  C   UNL     1       2.547   0.043   1.567  0.00  0.00    +0.005 A 
ATOM     20  C   UNL     1       3.089  -0.794   2.554  0.00  0.00    +0.001 A 
ATOM     21  C   UNL     1       2.433  -1.080   3.704  0.00  0.00    +0.010 A 
ATOM     22  C   UNL     1       1.156  -0.531   3.951  0.00  0.00    +0.007 A 
ATOM     23  C   UNL     1       0.270  -0.644   5.012  0.00  0.00    +0.033 C 
ATOM     24  C   UNL     1      -0.924   0.206   4.634  0.00  0.00    +0.153 C 
ATOM     25  N   UNL     1      -0.619   0.772   3.317  0.00  0.00    -0.380 N 
ATOM     26  C   UNL     1       0.556   0.363   2.931  0.00  0.00    +0.046 A 
ATOM     27  H   UNL     1      -1.200   1.363   2.812  0.00  0.00    +0.160 HD
BRANCH  18  29
ATOM     28  C   UNL     1       1.107   2.970   0.952  0.00  0.00    +0.009 C 
ATOM     29  C   UNL     1       0.781   1.511   0.624  0.00  0.00    +0.034 C 
ENDBRANCH  18  29
ENDBRANCH  16  23
ENDBRANCH   1  16
TORSDOF 5
