REMARK  Name = ZINC03244048
REMARK  10 active torsions:
REMARK  status: ('A' for Active; 'I' for Inactive)
REMARK    1  A    between atoms: C_1  and  N_2
REMARK    2  A    between atoms: C_3  and  N_33
REMARK    3  A    between atoms: C_4  and  C_11
REMARK    4  A    between atoms: N_7  and  C_10
REMARK    5  A    between atoms: C_11  and  C_13
REMARK    6  A    between atoms: C_13  and  O_14
REMARK    7  A    between atoms: O_14  and  C_15
REMARK    8  A    between atoms: C_15  and  C_17
REMARK    9  A    between atoms: C_17  and  C_18
REMARK   10  A    between atoms: C_18  and  N_19
REMARK                            x       y       z     vdW  Elec       q    Type
REMARK                         _______ _______ _______ _____ _____    ______ ____
ROOT
ATOM      1  C   UNL     1       5.468   1.854   0.693  0.00  0.00    +0.309 C 
ATOM      2  O   UNL     1       5.611   2.172   1.850  0.00  0.00    -0.251 OA
ENDROOT
BRANCH   1   3
ATOM      3  O   UNL     1       6.357   1.039   0.105  0.00  0.00    -0.457 OA
BRANCH   3   4
ATOM      4  C   UNL     1       7.467   0.578   0.920  0.00  0.00    +0.311 C 
BRANCH   4   5
ATOM      5  C   UNL     1       8.355  -0.321   0.098  0.00  0.00    +0.209 C 
ATOM      6  O   UNL     1       8.079  -0.550  -1.062  0.00  0.00    -0.288 OA
BRANCH   5  10
ATOM      7  C   UNL     1      12.211  -3.327  -0.159  0.00  0.00    +0.155 C 
ATOM      8  N   UNL     1      11.392  -2.356   0.571  0.00  0.00    -0.284 N 
ATOM      9  C   UNL     1      10.283  -1.831  -0.029  0.00  0.00    +0.116 A 
ATOM     10  C   UNL     1       9.507  -0.895   0.676  0.00  0.00    +0.123 A 
ATOM     11  C   UNL     1       9.930  -0.539   2.037  0.00  0.00    +0.269 A 
ATOM     12  O   UNL     1       9.293   0.262   2.696  0.00  0.00    -0.267 OA
ATOM     13  N   UNL     1      11.039  -1.119   2.541  0.00  0.00    -0.263 N 
ATOM     14  C   UNL     1      11.744  -2.003   1.817  0.00  0.00    +0.333 A 
ATOM     15  O   UNL     1      12.738  -2.502   2.308  0.00  0.00    -0.246 OA
ATOM     16  C   UNL     1      11.479  -0.779   3.897  0.00  0.00    +0.157 C 
BRANCH   9  17
ATOM     17  N   UNL     1       9.938  -2.204  -1.291  0.00  0.00    -0.344 N 
ATOM     18  H   UNL     1       9.198  -1.766  -1.741  0.00  0.00    +0.144 HD
ATOM     19  H   UNL     1      10.431  -2.909  -1.741  0.00  0.00    +0.144 HD
ENDBRANCH   9  17
ENDBRANCH   5  10
ENDBRANCH   4   5
ENDBRANCH   3   4
ENDBRANCH   1   3
BRANCH   1  20
ATOM     20  C   UNL     1       4.289   2.373  -0.091  0.00  0.00    +0.140 C 
BRANCH  20  21
ATOM     21  C   UNL     1       3.437   3.274   0.806  0.00  0.00    +0.122 C 
BRANCH  21  22
ATOM     22  N   UNL     1       2.292   3.778   0.044  0.00  0.00    -0.298 N 
ATOM     23  C   UNL     1       1.102   3.042   0.040  0.00  0.00    +0.048 A 
ATOM     24  C   UNL     1       1.137   1.657   0.012  0.00  0.00    +0.024 A 
ATOM     25  C   UNL     1      -0.044   0.936   0.005  0.00  0.00    +0.002 A 
ATOM     26  C   UNL     1      -1.263   1.588   0.019  0.00  0.00    +0.001 A 
ATOM     27  C   UNL     1      -1.309   2.972   0.053  0.00  0.00    +0.017 A 
ATOM     28  C   UNL     1      -0.133   3.696   0.060  0.00  0.00    +0.034 A 
ATOM     29  S   UNL     1      -0.159   5.461   0.097  0.00  0.00    -0.086 S 
ATOM     30  C   UNL     1       1.349   5.878  -0.722  0.00  0.00    +0.034 A 
ATOM     31  C   UNL     1       2.419   4.982  -0.657  0.00  0.00    +0.048 A 
ATOM     32  C   UNL     1       3.608   5.297  -1.295  0.00  0.00    +0.024 A 
ATOM     33  C   UNL     1       3.727   6.490  -1.988  0.00  0.00    +0.002 A 
ATOM     34  C   UNL     1       2.665   7.372  -2.049  0.00  0.00    +0.001 A 
ATOM     35  C   UNL     1       1.472   7.067  -1.415  0.00  0.00    +0.017 A 
ENDBRANCH  21  22
ENDBRANCH  20  21
ENDBRANCH   1  20
TORSDOF 8
