REMARK  Name = ZINC38568459
REMARK  3 active torsions:
REMARK  status: ('A' for Active; 'I' for Inactive)
REMARK    1  A    between atoms: C_3  and  N_6
REMARK    2  A    between atoms: N_15  and  S_19
REMARK    3  A    between atoms: S_19  and  C_22
REMARK                            x       y       z     vdW  Elec       q    Type
REMARK                         _______ _______ _______ _____ _____    ______ ____
ROOT
ATOM      1  N   UNL     1       3.705   2.693   0.083  0.00  0.00    -0.264 N 
ATOM      2  C   UNL     1       4.581   1.670   0.122  0.00  0.00    +0.307 C 
ATOM      3  O   UNL     1       4.183   0.536   0.309  0.00  0.00    -0.252 OA
ATOM      4  N   UNL     1       5.898   1.903  -0.045  0.00  0.00    -0.285 N 
ATOM      5  C   UNL     1       6.408   3.277  -0.144  0.00  0.00    +0.113 C 
ATOM      6  C   UNL     1       7.516   3.469   0.896  0.00  0.00    +0.072 C 
ATOM      7  C   UNL     1       8.578   2.384   0.711  0.00  0.00    +0.145 C 
ATOM      8  C   UNL     1       7.955   1.002   0.910  0.00  0.00    +0.072 C 
ATOM      9  C   UNL     1       6.851   0.788  -0.124  0.00  0.00    +0.113 C 
ATOM     10  N   UNL     1       9.151   2.479  -0.641  0.00  0.00    -0.144 NA
ATOM     11  C   UNL     1      10.591   2.766  -0.457  0.00  0.00    +0.140 C 
ATOM     12  C   UNL     1      10.642   3.353   0.976  0.00  0.00    +0.179 C 
ATOM     13  O   UNL     1       9.634   2.577   1.665  0.00  0.00    -0.356 OA
ATOM     14  H   UNL     1       4.028   3.605   0.008  0.00  0.00    +0.157 HD
ENDROOT
BRANCH   1  17
ATOM     15  C   UNL     1       0.003   2.837   0.207  0.00  0.00    +0.009 A 
ATOM     16  C   UNL     1       1.295   3.324   0.127  0.00  0.00    +0.031 A 
ATOM     17  C   UNL     1       2.332   2.441   0.151  0.00  0.00    +0.073 A 
ATOM     18  S   UNL     1       1.481   0.878   0.289  0.00  0.00    -0.082 S 
ATOM     19  C   UNL     1      -0.192   1.500   0.307  0.00  0.00    +0.047 A 
ENDBRANCH   1  17
BRANCH  10  20
ATOM     20  S   UNL     1       8.347   2.299  -2.078  0.00  0.00    +0.063 S 
ATOM     21  O   UNL     1       9.100   1.375  -2.851  0.00  0.00    -0.153 OA
ATOM     22  O   UNL     1       6.980   2.086  -1.754  0.00  0.00    -0.153 OA
BRANCH  20  23
ATOM     23  C   UNL     1       8.431   3.845  -2.918  0.00  0.00    +0.106 A 
ATOM     24  C   UNL     1       7.372   4.731  -2.843  0.00  0.00    +0.030 A 
ATOM     25  C   UNL     1       7.437   5.944  -3.502  0.00  0.00    +0.022 A 
ATOM     26  C   UNL     1       8.563   6.272  -4.237  0.00  0.00    +0.041 A 
ATOM     27  C   UNL     1       9.622   5.386  -4.311  0.00  0.00    +0.022 A 
ATOM     28  C   UNL     1       9.558   4.175  -3.647  0.00  0.00    +0.030 A 
ATOM     29 CL   UNL     1       8.645   7.795  -5.066  0.00  0.00    -0.084 Cl
ENDBRANCH  20  23
ENDBRANCH  10  20
TORSDOF 3
