REMARK  Name = ZINC08860095
REMARK  7 active torsions:
REMARK  status: ('A' for Active; 'I' for Inactive)
REMARK    1  A    between atoms: C_1  and  C_2
REMARK    2  A    between atoms: C_7  and  N_24
REMARK    3  A    between atoms: C_8  and  C_13
REMARK    4  A    between atoms: N_17  and  C_21
REMARK    5  A    between atoms: C_21  and  C_22
REMARK    6  A    between atoms: C_21  and  C_23
REMARK    7  A    between atoms: N_27  and  C_30
REMARK                            x       y       z     vdW  Elec       q    Type
REMARK                         _______ _______ _______ _____ _____    ______ ____
ROOT
ATOM      1  C   UNL     1       1.816  -8.676  -1.702  0.00  0.00    +0.045 C 
ATOM      2  C   UNL     1       1.039  -8.114  -0.540  0.00  0.00    -0.034 A 
ATOM      3  C   UNL     1       0.635  -8.957   0.505  0.00  0.00    +0.008 A 
ATOM      4  C   UNL     1      -0.069  -8.441   1.552  0.00  0.00    +0.047 A 
ATOM      5  C   UNL     1      -0.379  -7.069   1.570  0.00  0.00    +0.142 A 
ATOM      6  N   UNL     1      -1.068  -6.574   2.599  0.00  0.00    -0.214 NA
ATOM      7  C   UNL     1      -1.387  -5.289   2.667  0.00  0.00    +0.136 A 
ATOM      8  C   UNL     1      -0.992  -4.416   1.627  0.00  0.00    +0.081 A 
ATOM      9  C   UNL     1      -0.265  -4.954   0.537  0.00  0.00    +0.267 A 
ATOM     10  O   UNL     1       0.092  -4.239  -0.383  0.00  0.00    -0.267 OA
ATOM     11  N   UNL     1       0.029  -6.272   0.537  0.00  0.00    -0.267 N 
ATOM     12  C   UNL     1       0.732  -6.798  -0.506  0.00  0.00    +0.099 A 
ENDROOT
BRANCH   8  13
ATOM     13  C   UNL     1      -1.318  -3.040   1.671  0.00  0.00    +0.037 C 
ATOM     14  C   UNL     1      -2.621  -2.652   1.792  0.00  0.00    +0.077 C 
ATOM     15  C   UNL     1      -3.165  -1.347   1.958  0.00  0.00    +0.259 C 
ATOM     16  O   UNL     1      -2.441  -0.368   2.013  0.00  0.00    -0.269 OA
ATOM     17  N   UNL     1      -4.478  -1.227   2.056  0.00  0.00    -0.253 N 
ATOM     18  C   UNL     1      -5.282  -2.312   1.990  0.00  0.00    +0.121 C 
ATOM     19  S   UNL     1      -6.989  -2.391   2.085  0.00  0.00    -0.027 S 
ATOM     20  S   UNL     1      -4.109  -3.643   1.777  0.00  0.00    -0.061 S 
BRANCH  17  21
ATOM     21  C   UNL     1      -5.071   0.101   2.232  0.00  0.00    +0.077 C 
ATOM     22  C   UNL     1      -6.011   0.399   1.062  0.00  0.00    +0.028 C 
ATOM     23  C   UNL     1      -5.860   0.137   3.543  0.00  0.00    +0.028 C 
ENDBRANCH  17  21
ENDBRANCH   8  13
BRANCH   7  24
ATOM     24  N   UNL     1      -2.100  -4.808   3.743  0.00  0.00    -0.312 N 
ATOM     25  C   UNL     1      -1.300  -3.851   4.520  0.00  0.00    +0.125 C 
ATOM     26  C   UNL     1      -2.152  -3.282   5.656  0.00  0.00    +0.124 C 
ATOM     27  N   UNL     1      -2.626  -4.382   6.508  0.00  0.00    -0.325 N 
ATOM     28  C   UNL     1      -3.426  -5.339   5.732  0.00  0.00    +0.124 C 
ATOM     29  C   UNL     1      -2.574  -5.908   4.595  0.00  0.00    +0.125 C 
BRANCH  27  30
ATOM     30  C   UNL     1      -3.350  -3.893   7.601  0.00  0.00    +0.065 A 
ATOM     31  C   UNL     1      -3.819  -4.768   8.572  0.00  0.00    +0.026 A 
ATOM     32  C   UNL     1      -4.534  -4.282   9.650  0.00  0.00    +0.002 A 
ATOM     33  C   UNL     1      -4.783  -2.927   9.763  0.00  0.00    +0.003 A 
ATOM     34  C   UNL     1      -4.318  -2.052   8.799  0.00  0.00    +0.040 A 
ATOM     35  C   UNL     1      -3.597  -2.530   7.720  0.00  0.00    +0.144 A 
ATOM     36  F   UNL     1      -3.138  -1.674   6.780  0.00  0.00    -0.204 F 
ENDBRANCH  27  30
ENDBRANCH   7  24
TORSDOF 4
