REMARK  Name = ZINC24964123
REMARK  5 active torsions:
REMARK  status: ('A' for Active; 'I' for Inactive)
REMARK    1  A    between atoms: C_1  and  C_2
REMARK    2  A    between atoms: C_2  and  C_22
REMARK    3  A    between atoms: N_5  and  C_9
REMARK    4  A    between atoms: C_9  and  C_10
REMARK    5  A    between atoms: C_13  and  C_15
REMARK                            x       y       z     vdW  Elec       q    Type
REMARK                         _______ _______ _______ _____ _____    ______ ____
ROOT
ATOM      1  C   UNL     1      -1.812  -6.867  -3.623  0.00  0.00    +0.050 C 
ATOM      2  C   UNL     1      -2.125  -5.388  -3.388  0.00  0.00    +0.168 C 
ATOM      3  C   UNL     1      -1.692  -4.965  -1.998  0.00  0.00    +0.254 C 
ATOM      4  O   UNL     1      -0.568  -4.980  -1.545  0.00  0.00    -0.272 OA
ATOM      5  N   UNL     1      -2.818  -4.571  -1.371  0.00  0.00    -0.218 N 
ATOM      6  C   UNL     1      -3.891  -4.689  -2.161  0.00  0.00    +0.310 C 
ATOM      7  O   UNL     1      -5.019  -4.398  -1.815  0.00  0.00    -0.252 OA
ATOM      8  N   UNL     1      -3.581  -5.161  -3.381  0.00  0.00    -0.279 N 
ATOM      9  H   UNL     1      -4.176  -5.381  -4.280  0.00  0.00    +0.152 HD
ENDROOT
BRANCH   2  10
ATOM     10  C   UNL     1      -1.460  -4.531  -4.434  0.00  0.00    +0.137 A 
ATOM     11  C   UNL     1      -1.972  -4.220  -5.639  0.00  0.00    +0.047 A 
ATOM     12  C   UNL     1      -1.021  -3.401  -6.289  0.00  0.00    +0.041 A 
ATOM     13  C   UNL     1       0.019  -3.266  -5.446  0.00  0.00    +0.195 A 
ATOM     14  O   UNL     1      -0.252  -3.953  -4.324  0.00  0.00    -0.465 OA
ENDBRANCH   2  10
BRANCH   5  15
ATOM     15  C   UNL     1      -2.861  -4.079   0.009  0.00  0.00    +0.174 C 
BRANCH  15  16
ATOM     16  C   UNL     1      -2.671  -2.584   0.015  0.00  0.00    +0.067 A 
ATOM     17  C   UNL     1      -3.752  -1.760   0.031  0.00  0.00    +0.072 A 
ATOM     18  S   UNL     1      -2.950  -0.162   0.038  0.00  0.00    -0.075 S 
ATOM     19  C   UNL     1      -1.266  -0.764   0.011  0.00  0.00    +0.110 A 
ATOM     20  N   UNL     1      -1.461  -2.075   0.005  0.00  0.00    -0.242 NA
BRANCH  19  21
ATOM     21  C   UNL     1       0.002  -0.004   0.002  0.00  0.00    +0.025 A 
ATOM     22  C   UNL     1      -0.017   1.391   0.010  0.00  0.00    +0.012 A 
ATOM     23  C   UNL     1       1.170   2.095   0.002  0.00  0.00    +0.001 A 
ATOM     24  C   UNL     1       2.378   1.420  -0.013  0.00  0.00    +0.001 A 
ATOM     25  C   UNL     1       2.405   0.037  -0.021  0.00  0.00    +0.020 A 
ATOM     26  C   UNL     1       1.224  -0.679  -0.013  0.00  0.00    +0.051 A 
ATOM     27 CL   UNL     1       1.259  -2.415  -0.022  0.00  0.00    -0.083 Cl
ENDBRANCH  19  21
ENDBRANCH  15  16
ENDBRANCH   5  15
TORSDOF 4
