REMARK  Name = ZINC40758576
REMARK  4 active torsions:
REMARK  status: ('A' for Active; 'I' for Inactive)
REMARK    1  A    between atoms: C_1  and  C_2
REMARK    2  A    between atoms: C_9  and  N_12
REMARK    3  A    between atoms: C_14  and  N_26
REMARK    4  A    between atoms: C_15  and  N_19
REMARK                            x       y       z     vdW  Elec       q    Type
REMARK                         _______ _______ _______ _____ _____    ______ ____
ROOT
ATOM      1  N   UNL     1       0.050  -1.962   3.622  0.00  0.00    -0.296 N 
ATOM      2  C   UNL     1      -0.041  -2.642   4.831  0.00  0.00    +0.149 A 
ATOM      3  C   UNL     1      -0.158  -1.940   6.033  0.00  0.00    +0.106 A 
ATOM      4  C   UNL     1      -0.247  -2.673   7.218  0.00  0.00    +0.150 A 
ATOM      5  N   UNL     1      -0.216  -4.002   7.158  0.00  0.00    -0.219 NA
ATOM      6  C   UNL     1      -0.105  -4.626   6.002  0.00  0.00    +0.225 A 
ATOM      7  N   UNL     1      -0.024  -3.973   4.861  0.00  0.00    -0.219 NA
ATOM      8  H   UNL     1       0.120  -0.994   3.614  0.00  0.00    +0.154 HD
ENDROOT
BRANCH   1  17
ATOM      9  C   UNL     1       2.401   0.967   0.313  0.00  0.00    +0.065 C 
ATOM     10  C   UNL     1       1.762  -0.395   0.223  0.00  0.00    +0.039 A 
ATOM     11  C   UNL     1       1.773  -1.070  -0.995  0.00  0.00    +0.023 A 
ATOM     12  C   UNL     1       1.198  -2.305  -1.095  0.00  0.00    +0.012 A 
ATOM     13  C   UNL     1       0.608  -2.858   0.057  0.00  0.00    +0.002 A 
ATOM     14  C   UNL     1      -0.001  -4.124   0.029  0.00  0.00    +0.010 A 
ATOM     15  C   UNL     1      -0.564  -4.632   1.160  0.00  0.00    +0.003 A 
ATOM     16  C   UNL     1      -0.547  -3.915   2.353  0.00  0.00    +0.025 A 
ATOM     17  C   UNL     1       0.040  -2.670   2.421  0.00  0.00    +0.059 A 
ATOM     18  C   UNL     1       0.632  -2.117   1.263  0.00  0.00    +0.092 A 
ATOM     19  N   UNL     1       1.215  -0.916   1.295  0.00  0.00    -0.250 NA
ENDBRANCH   1  17
BRANCH   4  20
ATOM     20  N   UNL     1      -0.364  -2.024   8.442  0.00  0.00    -0.283 N 
ATOM     21  C   UNL     1      -0.346  -2.758   9.624  0.00  0.00    +0.124 A 
ATOM     22  C   UNL     1      -0.357  -2.096  10.848  0.00  0.00    +0.044 A 
ATOM     23  C   UNL     1      -0.339  -2.839  12.014  0.00  0.00    +0.005 A 
ATOM     24  C   UNL     1      -0.310  -4.224  11.918  0.00  0.00    +0.020 A 
ATOM     25  C   UNL     1      -0.300  -4.815  10.670  0.00  0.00    +0.113 A 
ATOM     26  N   UNL     1      -0.323  -4.081   9.573  0.00  0.00    -0.240 NA
ATOM     27  H   UNL     1      -0.459  -1.059   8.473  0.00  0.00    +0.155 HD
ENDBRANCH   4  20
BRANCH   3  28
ATOM     28  N   UNL     1      -0.186  -0.537   6.049  0.00  0.00    -0.353 N 
ATOM     29  H   UNL     1      -0.123  -0.041   5.217  0.00  0.00    +0.143 HD
ATOM     30  H   UNL     1      -0.267  -0.063   6.891  0.00  0.00    +0.143 HD
ENDBRANCH   3  28
TORSDOF 3
