REMARK  Name = ZINC17287336
REMARK  11 active torsions:
REMARK  status: ('A' for Active; 'I' for Inactive)
REMARK    1  A    between atoms: C_1  and  O_2
REMARK    2  A    between atoms: O_2  and  C_3
REMARK    3  A    between atoms: C_24  and  O_36
REMARK    4  A    between atoms: C_26  and  O_34
REMARK    5  A    between atoms: C_28  and  C_30
REMARK    6  A    between atoms: C_30  and  O_32
REMARK    7  A    between atoms: O_32  and  C_33
REMARK    8  A    between atoms: O_34  and  C_35
REMARK    9  A    between atoms: O_36  and  C_37
REMARK   10  A    between atoms: C_37  and  C_39
REMARK   11  A    between atoms: C_42  and  N_45
REMARK                            x       y       z     vdW  Elec       q    Type
REMARK                         _______ _______ _______ _____ _____    ______ ____
ROOT
ATOM      1  C   UNL     1       1.133   9.591   3.900  0.00  0.00    +0.122 A 
ATOM      2  C   UNL     1      -0.197   9.521   4.297  0.00  0.00    +0.046 A 
ATOM      3  C   UNL     1      -0.851   8.323   4.441  0.00  0.00    +0.014 A 
ATOM      4  C   UNL     1      -0.118   7.163   4.171  0.00  0.00    +0.003 A 
ATOM      5  C   UNL     1       1.242   7.227   3.768  0.00  0.00    +0.050 A 
ATOM      6  C   UNL     1       1.883   8.456   3.626  0.00  0.00    +0.071 A 
ATOM      7  N   UNL     1       1.674   5.944   3.587  0.00  0.00    -0.359 N 
ATOM      8  H   UNL     1       2.568   5.691   3.308  0.00  0.00    +0.166 HD
ATOM      9  C   UNL     1       0.656   5.069   3.859  0.00  0.00    +0.007 A 
ATOM     10  C   UNL     1      -0.454   5.756   4.212  0.00  0.00    -0.022 A 
ATOM     11  C   UNL     1      -1.762   5.098   4.574  0.00  0.00    +0.019 C 
ATOM     12  C   UNL     1      -1.493   3.612   4.845  0.00  0.00    -0.073 C 
ATOM     13  C   UNL     1       0.700   3.563   3.799  0.00  0.00    -0.020 C 
ATOM     14  C   UNL     1       1.446   3.110   2.543  0.00  0.00    -0.005 C 
ATOM     15  C   UNL     1       1.450   1.579   2.497  0.00  0.00    +0.006 C 
ATOM     16  C   UNL     1       0.008   1.067   2.508  0.00  0.00    -0.020 C 
ATOM     17  C   UNL     1      -0.701   1.587   3.763  0.00  0.00    -0.074 C 
ATOM     18  C   UNL     1      -0.727   1.579   1.268  0.00  0.00    +0.049 C 
ATOM     19  C   UNL     1      -0.013   1.086   0.008  0.00  0.00    +0.206 C 
ATOM     20  C   UNL     1       1.423   1.616  -0.003  0.00  0.00    +0.172 C 
ATOM     21  C   UNL     1       2.163   1.101   1.233  0.00  0.00    +0.133 C 
ATOM     22  N   UNL     1      -0.691   3.065   3.725  0.00  0.00    +0.386 N 
ATOM     23  H   UNL     1      -1.107   3.376   2.839  0.00  0.00    -0.081 HD
ENDROOT
BRANCH   1  25
ATOM     24  C   UNL     1       0.908  11.953   4.068  0.00  0.00    +0.277 C 
ATOM     25  O   UNL     1       1.718  10.812   3.776  0.00  0.00    -0.495 OA
ENDBRANCH   1  25
BRANCH  21  26
ATOM     26  C   UNL     1       3.576   1.625   1.226  0.00  0.00    +0.313 C 
ATOM     27  O   UNL     1       3.969   2.314   2.137  0.00  0.00    -0.250 OA
BRANCH  26  28
ATOM     28  O   UNL     1       4.397   1.326   0.207  0.00  0.00    -0.468 OA
ATOM     29  C   UNL     1       5.744   1.865   0.266  0.00  0.00    +0.280 C 
ENDBRANCH  26  28
ENDBRANCH  21  26
BRANCH  20  30
ATOM     30  O   UNL     1       2.090   1.161  -1.182  0.00  0.00    -0.375 OA
ATOM     31  C   UNL     1       1.962   2.044  -2.299  0.00  0.00    +0.194 C 
ENDBRANCH  20  30
BRANCH  19  32
ATOM     32  O   UNL     1      -0.716   1.567  -1.168  0.00  0.00    -0.455 OA
BRANCH  32  33
ATOM     33  C   UNL     1      -1.692   0.780  -1.662  0.00  0.00    +0.340 C 
ATOM     34  O   UNL     1      -1.949  -0.279  -1.125  0.00  0.00    -0.245 OA
BRANCH  33  35
ATOM     35  C   UNL     1      -2.448   1.205  -2.853  0.00  0.00    +0.059 A 
ATOM     36  C   UNL     1      -2.158   2.426  -3.469  0.00  0.00    +0.017 A 
ATOM     37  C   UNL     1      -2.859   2.815  -4.582  0.00  0.00    +0.023 A 
ATOM     38  C   UNL     1      -3.868   2.001  -5.091  0.00  0.00    +0.025 A 
ATOM     39  C   UNL     1      -4.163   0.787  -4.476  0.00  0.00    +0.023 A 
ATOM     40  C   UNL     1      -3.462   0.389  -3.367  0.00  0.00    +0.017 A 
BRANCH  38  41
ATOM     41  N   UNL     1      -4.580   2.401  -6.215  0.00  0.00    -0.358 N 
ATOM     42  H   UNL     1      -5.283   1.834  -6.571  0.00  0.00    +0.142 HD
ATOM     43  H   UNL     1      -4.375   3.246  -6.644  0.00  0.00    +0.142 HD
ENDBRANCH  38  41
ENDBRANCH  33  35
ENDBRANCH  32  33
ENDBRANCH  19  32
TORSDOF 8
