REMARK  Name = ZINC39421880
REMARK  9 active torsions:
REMARK  status: ('A' for Active; 'I' for Inactive)
REMARK    1  A    between atoms: C_1  and  C_2
REMARK    2  A    between atoms: C_2  and  C_3
REMARK    3  A    between atoms: C_8  and  C_12
REMARK    4  A    between atoms: C_12  and  C_14
REMARK    5  A    between atoms: C_14  and  C_16
REMARK    6  A    between atoms: C_14  and  S_22
REMARK    7  A    between atoms: S_22  and  C_23
REMARK    8  A    between atoms: C_27  and  C_31
REMARK    9  A    between atoms: N_29  and  C_30
REMARK                            x       y       z     vdW  Elec       q    Type
REMARK                         _______ _______ _______ _____ _____    ______ ____
ROOT
ATOM      1  C   UNL     1       0.003  -2.127   7.260  0.00  0.00    +0.150 C 
ENDROOT
BRANCH   1   2
ATOM      2  C   UNL     1      -0.339  -3.595   7.240  0.00  0.00    -0.027 A 
ATOM      3  C   UNL     1       0.633  -4.535   7.526  0.00  0.00    +0.005 A 
ATOM      4  C   UNL     1       0.320  -5.881   7.508  0.00  0.00    +0.000 A 
ATOM      5  C   UNL     1      -0.967  -6.287   7.205  0.00  0.00    +0.000 A 
ATOM      6  C   UNL     1      -1.939  -5.347   6.921  0.00  0.00    +0.000 A 
ATOM      7  C   UNL     1      -1.627  -4.001   6.943  0.00  0.00    +0.005 A 
ENDBRANCH   1   2
BRANCH   1   8
ATOM      8  C   UNL     1       1.022  -1.835   6.189  0.00  0.00    +0.179 C 
ATOM      9  O   UNL     1       2.204  -1.818   6.465  0.00  0.00    -0.291 OA
BRANCH   8  15
ATOM     10  C   UNL     1       1.185  -0.791   1.307  0.00  0.00    -0.024 A 
ATOM     11  C   UNL     1       2.531  -0.696   1.262  0.00  0.00    +0.005 A 
ATOM     12  C   UNL     1       3.328  -0.885   2.403  0.00  0.00    +0.001 A 
ATOM     13  C   UNL     1       2.804  -1.174   3.615  0.00  0.00    +0.010 A 
ATOM     14  C   UNL     1       1.403  -1.298   3.774  0.00  0.00    +0.006 A 
ATOM     15  C   UNL     1       0.603  -1.581   4.866  0.00  0.00    +0.025 C 
ATOM     16  C   UNL     1      -0.817  -1.563   4.344  0.00  0.00    +0.152 C 
ATOM     17  N   UNL     1      -0.720  -1.254   2.914  0.00  0.00    -0.380 N 
ATOM     18  C   UNL     1       0.532  -1.098   2.591  0.00  0.00    +0.046 A 
ATOM     19  H   UNL     1      -1.471  -1.174   2.305  0.00  0.00    +0.160 HD
BRANCH  10  21
ATOM     20  C   UNL     1      -0.106   0.874  -0.000  0.00  0.00    +0.009 C 
ATOM     21  C   UNL     1       0.362  -0.581   0.062  0.00  0.00    +0.034 C 
ENDBRANCH  10  21
ENDBRANCH   8  15
ENDBRANCH   1   8
BRANCH   1  22
ATOM     22  S   UNL     1       0.686  -1.687   8.882  0.00  0.00    -0.109 S 
BRANCH  22  23
ATOM     23  C   UNL     1      -0.719  -1.873  10.014  0.00  0.00    +0.201 C 
ATOM     24  N   UNL     1      -0.258  -1.822  11.427  0.00  0.00    -0.229 NA
ATOM     25  N   UNL     1      -1.465  -1.401  12.155  0.00  0.00    -0.233 NA
ATOM     26  C   UNL     1      -2.115  -0.418  11.258  0.00  0.00    +0.171 C 
ATOM     27  N   UNL     1      -1.642  -0.721   9.889  0.00  0.00    -0.260 NA
ATOM     28  C   UNL     1      -0.959   0.439   9.300  0.00  0.00    +0.109 C 
ATOM     29  H   UNL     1       0.053  -2.730  11.738  0.00  0.00    +0.143 HD
ATOM     30  H   UNL     1      -2.074  -2.186  12.332  0.00  0.00    +0.143 HD
BRANCH  26  31
ATOM     31  C   UNL     1      -3.613  -0.565  11.329  0.00  0.00    -0.012 A 
ATOM     32  C   UNL     1      -4.406  -0.298  10.224  0.00  0.00    +0.026 A 
ATOM     33  C   UNL     1      -5.776  -0.443  10.327  0.00  0.00    +0.111 A 
ATOM     34  N   UNL     1      -6.330  -0.829  11.459  0.00  0.00    -0.263 NA
ATOM     35  C   UNL     1      -5.607  -1.092  12.531  0.00  0.00    +0.111 A 
ATOM     36  C   UNL     1      -4.231  -0.975  12.501  0.00  0.00    +0.026 A 
ENDBRANCH  26  31
ENDBRANCH  22  23
ENDBRANCH   1  22
TORSDOF 7
