REMARK  Name = ZINC05193087
REMARK  5 active torsions:
REMARK  status: ('A' for Active; 'I' for Inactive)
REMARK    1  A    between atoms: C_1  and  N_2
REMARK    2  A    between atoms: N_11  and  C_12
REMARK    3  A    between atoms: C_12  and  C_14
REMARK    4  A    between atoms: C_14  and  C_15
REMARK    5  A    between atoms: C_15  and  C_16
REMARK                            x       y       z     vdW  Elec       q    Type
REMARK                         _______ _______ _______ _____ _____    ______ ____
ROOT
ATOM      1  C   UNL     1       4.860  -0.367  -0.048  0.00  0.00    +0.105 C 
ENDROOT
BRANCH   1   2
ATOM      2  C   UNL     1       3.471  -0.953  -0.038  0.00  0.00    +0.239 C 
ATOM      3  O   UNL     1       3.320  -2.160  -0.043  0.00  0.00    -0.274 OA
BRANCH   2  14
ATOM      4  C   UNL     1      -0.018   1.461   0.010  0.00  0.00    +0.151 C 
ATOM      5  N   UNL     1       0.002  -0.004   0.002  0.00  0.00    -0.324 N 
ATOM      6  C   UNL     1      -1.184  -0.713   0.004  0.00  0.00    +0.057 A 
ATOM      7  C   UNL     1      -2.502  -0.234   0.014  0.00  0.00    +0.027 A 
ATOM      8  C   UNL     1      -3.564  -1.108   0.015  0.00  0.00    +0.002 A 
ATOM      9  C   UNL     1      -3.366  -2.479   0.006  0.00  0.00    +0.001 A 
ATOM     10  C   UNL     1      -2.075  -2.977  -0.004  0.00  0.00    +0.017 A 
ATOM     11  C   UNL     1      -1.012  -2.105  -0.005  0.00  0.00    +0.039 A 
ATOM     12  S   UNL     1       0.752  -2.292  -0.015  0.00  0.00    -0.052 S 
ATOM     13  C   UNL     1       1.185  -0.668  -0.013  0.00  0.00    +0.166 A 
ATOM     14  N   UNL     1       2.412  -0.151  -0.023  0.00  0.00    -0.156 NA
ENDBRANCH   2  14
ENDBRANCH   1   2
BRANCH   1  15
ATOM     15  C   UNL     1       5.890  -1.498  -0.065  0.00  0.00    +0.083 C 
BRANCH  15  16
ATOM     16  C   UNL     1       7.279  -0.912  -0.075  0.00  0.00    +0.111 A 
ATOM     17  N   UNL     1       8.337  -1.764  -0.096  0.00  0.00    -0.310 N 
ATOM     18  H   UNL     1       8.183  -2.721  -0.103  0.00  0.00    +0.170 HD
ATOM     19  C   UNL     1       9.604  -1.288  -0.106  0.00  0.00    +0.259 A 
ATOM     20  O   UNL     1      10.562  -2.039  -0.126  0.00  0.00    -0.267 OA
ATOM     21  C   UNL     1       9.779   0.172  -0.094  0.00  0.00    +0.065 A 
ATOM     22  C   UNL     1      11.041   0.763  -0.103  0.00  0.00    +0.015 A 
ATOM     23  C   UNL     1      11.146   2.137  -0.091  0.00  0.00    +0.001 A 
ATOM     24  C   UNL     1      10.008   2.933  -0.069  0.00  0.00    +0.002 A 
ATOM     25  C   UNL     1       8.753   2.368  -0.059  0.00  0.00    +0.028 A 
ATOM     26  C   UNL     1       8.620   0.978  -0.072  0.00  0.00    +0.078 A 
ATOM     27  N   UNL     1       7.402   0.380  -0.069  0.00  0.00    -0.234 NA
ENDBRANCH  15  16
ENDBRANCH   1  15
TORSDOF 4
