REMARK  Name = ZINC12601293
REMARK  14 active torsions:
REMARK  status: ('A' for Active; 'I' for Inactive)
REMARK    1  A    between atoms: C_1  and  C_2
REMARK    2  A    between atoms: C_2  and  C_3
REMARK    3  A    between atoms: C_3  and  C_5
REMARK    4  A    between atoms: C_3  and  C_6
REMARK    5  A    between atoms: C_9  and  S_12
REMARK    6  A    between atoms: S_12  and  N_15
REMARK    7  A    between atoms: N_18  and  C_21
REMARK    8  A    between atoms: C_21  and  C_22
REMARK    9  A    between atoms: N_24  and  C_25
REMARK   10  A    between atoms: C_25  and  C_26
REMARK   11  A    between atoms: N_29  and  C_33
REMARK   12  A    between atoms: C_33  and  C_34
REMARK   13  A    between atoms: C_34  and  C_35
REMARK   14  A    between atoms: C_34  and  C_36
REMARK                            x       y       z     vdW  Elec       q    Type
REMARK                         _______ _______ _______ _____ _____    ______ ____
ROOT
ATOM      1  N   UNL     1      -0.716   1.430  -0.168  0.00  0.00    -0.180 NA
ATOM      2  C   UNL     1      -1.948   2.232  -0.110  0.00  0.00    +0.091 C 
ATOM      3  C   UNL     1      -1.806   3.252   1.031  0.00  0.00    -0.061 C 
ATOM      4  N   UNL     1      -0.571   4.024   0.840  0.00  0.00    +0.387 N 
ATOM      5  C   UNL     1       0.615   3.160   0.918  0.00  0.00    -0.061 C 
ATOM      6  C   UNL     1       0.573   2.137  -0.222  0.00  0.00    +0.091 C 
ATOM      7  H   UNL     1      -0.602   4.460  -0.169  0.00  0.00    -0.081 HD
ENDROOT
BRANCH   1   8
ATOM      8  S   UNL     1      -0.779  -0.224  -0.179  0.00  0.00    +0.061 S 
ATOM      9  O   UNL     1      -2.063  -0.579  -0.673  0.00  0.00    -0.153 OA
ATOM     10  O   UNL     1       0.423  -0.673  -0.790  0.00  0.00    -0.153 OA
BRANCH   8  14
ATOM     11  C   UNL     1      -0.630  -1.598   4.132  0.00  0.00    -0.044 A 
ATOM     12  C   UNL     1      -1.847  -1.342   3.530  0.00  0.00    +0.006 A 
ATOM     13  C   UNL     1      -1.893  -0.923   2.213  0.00  0.00    +0.029 A 
ATOM     14  C   UNL     1      -0.721  -0.759   1.499  0.00  0.00    +0.105 A 
ATOM     15  C   UNL     1       0.496  -1.019   2.100  0.00  0.00    +0.029 A 
ATOM     16  C   UNL     1       0.542  -1.434   3.418  0.00  0.00    +0.006 A 
BRANCH  11  17
ATOM     17  C   UNL     1      -0.580  -2.055   5.567  0.00  0.00    +0.016 C 
ATOM     18  C   UNL     1       0.093  -3.427   5.642  0.00  0.00    +0.012 C 
BRANCH  17  20
ATOM     19  C   UNL     1       0.167  -1.445   7.872  0.00  0.00    +0.004 C 
ATOM     20  C   UNL     1       0.221  -1.048   6.396  0.00  0.00    +0.004 C 
ENDBRANCH  17  20
ENDBRANCH  11  17
ENDBRANCH   8  14
ENDBRANCH   1   8
BRANCH   4  21
ATOM     21  C   UNL     1      -0.484   5.125   1.808  0.00  0.00    +0.019 C 
BRANCH  21  22
ATOM     22  C   UNL     1      -1.583   6.120   1.538  0.00  0.00    +0.197 C 
ATOM     23  O   UNL     1      -2.362   5.931   0.627  0.00  0.00    -0.278 OA
ATOM     24  N   UNL     1      -1.700   7.221   2.306  0.00  0.00    -0.314 N 
ATOM     25  H   UNL     1      -0.993   7.393   3.132  0.00  0.00    +0.149 HD
BRANCH  24  26
ATOM     26  C   UNL     1      -2.768   8.188   2.043  0.00  0.00    +0.137 C 
BRANCH  26  27
ATOM     27  C   UNL     1      -2.677   9.336   3.051  0.00  0.00    +0.149 C 
ATOM     28  C   UNL     1      -3.793  10.347   2.776  0.00  0.00    +0.117 C 
ATOM     29  N   UNL     1      -3.749  11.406   3.795  0.00  0.00    -0.297 NA
ATOM     30  C   UNL     1      -3.902  10.840   5.143  0.00  0.00    +0.112 C 
ATOM     31  C   UNL     1      -2.785   9.824   5.394  0.00  0.00    +0.175 C 
ATOM     32  O   UNL     1      -2.824   8.819   4.377  0.00  0.00    -0.372 OA
BRANCH  29  33
ATOM     33  C   UNL     1      -4.770  12.430   3.534  0.00  0.00    +0.087 C 
BRANCH  33  34
ATOM     34  C   UNL     1      -4.441  13.159   2.230  0.00  0.00    -0.003 C 
ATOM     35  C   UNL     1      -5.547  14.168   1.917  0.00  0.00    +0.008 C 
ATOM     36  C   UNL     1      -3.107  13.893   2.380  0.00  0.00    +0.008 C 
ENDBRANCH  33  34
ENDBRANCH  29  33
ENDBRANCH  26  27
ENDBRANCH  24  26
ENDBRANCH  21  22
ENDBRANCH   4  21
TORSDOF 10
