REMARK  Name = ZINC45643224
REMARK  8 active torsions:
REMARK  status: ('A' for Active; 'I' for Inactive)
REMARK    1  A    between atoms: C_1  and  C_2
REMARK    2  A    between atoms: C_2  and  N_3
REMARK    3  A    between atoms: C_12  and  S_14
REMARK    4  A    between atoms: S_14  and  C_15
REMARK    5  A    between atoms: C_15  and  C_16
REMARK    6  A    between atoms: N_18  and  C_19
REMARK    7  A    between atoms: C_21  and  C_32
REMARK    8  A    between atoms: N_23  and  C_24
REMARK                            x       y       z     vdW  Elec       q    Type
REMARK                         _______ _______ _______ _____ _____    ______ ____
ROOT
ATOM      1  C   UNL     1       0.946  -7.818  -0.032  0.00  0.00    +0.229 C 
ATOM      2  O   UNL     1       2.107  -7.468  -0.036  0.00  0.00    -0.275 OA
ATOM      3  N   UNL     1       0.636  -9.130  -0.036  0.00  0.00    -0.270 N 
ATOM      4  H   UNL     1      -0.292  -9.409  -0.033  0.00  0.00    +0.156 HD
ENDROOT
BRANCH   3   5
ATOM      5  C   UNL     1       1.652 -10.085  -0.045  0.00  0.00    +0.124 A 
ATOM      6  C   UNL     1       2.990  -9.837  -0.045  0.00  0.00    +0.068 A 
ATOM      7  C   UNL     1       3.654 -11.067  -0.055  0.00  0.00    +0.062 A 
ATOM      8  N   UNL     1       2.756 -12.019  -0.062  0.00  0.00    -0.175 NA
ATOM      9  N   UNL     1       1.486 -11.428  -0.051  0.00  0.00    -0.246 N 
ATOM     10  C   UNL     1       5.148 -11.263  -0.058  0.00  0.00    +0.067 C 
BRANCH   9  11
ATOM     11  C   UNL     1       0.205 -12.138  -0.048  0.00  0.00    +0.132 C 
ATOM     12  C   UNL     1       0.121 -13.054   1.184  0.00  0.00    +0.051 C 
ATOM     13  C   UNL     1      -1.067 -14.035   1.032  0.00  0.00    +0.168 C 
ATOM     14  S   UNL     1      -1.216 -14.210  -0.793  0.00  0.00    -0.029 S 
ATOM     15  O   UNL     1      -0.828 -15.525  -1.165  0.00  0.00    -0.174 OA
ATOM     16  O   UNL     1      -2.482 -13.712  -1.203  0.00  0.00    -0.174 OA
ATOM     17  C   UNL     1       0.094 -13.027  -1.320  0.00  0.00    +0.192 C 
ENDBRANCH   9  11
ENDBRANCH   3   5
BRANCH   1  18
ATOM     18  C   UNL     1      -0.152  -6.785  -0.022  0.00  0.00    +0.173 C 
BRANCH  18  19
ATOM     19  S   UNL     1       0.580  -5.125  -0.018  0.00  0.00    -0.077 S 
BRANCH  19  29
ATOM     20  N   UNL     1      -1.372  -0.511   0.012  0.00  0.00    -0.329 N 
ATOM     21  C   UNL     1      -1.606  -1.870   0.007  0.00  0.00    +0.131 A 
ATOM     22  C   UNL     1      -2.929  -2.380   0.011  0.00  0.00    +0.040 A 
ATOM     23  C   UNL     1      -4.047  -1.540   0.020  0.00  0.00    +0.013 A 
ATOM     24  C   UNL     1      -5.298  -2.086   0.023  0.00  0.00    +0.001 A 
ATOM     25  C   UNL     1      -5.475  -3.466   0.018  0.00  0.00    +0.002 A 
ATOM     26  C   UNL     1      -4.405  -4.312   0.009  0.00  0.00    +0.028 A 
ATOM     27  C   UNL     1      -3.107  -3.784   0.006  0.00  0.00    +0.077 A 
ATOM     28  N   UNL     1      -2.022  -4.573  -0.003  0.00  0.00    -0.222 NA
ATOM     29  C   UNL     1      -0.812  -4.045  -0.006  0.00  0.00    +0.191 A 
ATOM     30  N   UNL     1      -0.600  -2.731  -0.007  0.00  0.00    -0.206 NA
ATOM     31  H   UNL     1      -2.118   0.109   0.023  0.00  0.00    +0.147 HD
BRANCH  20  33
ATOM     32  C   UNL     1      -0.019   1.526   0.010  0.00  0.00    +0.024 C 
ATOM     33  C   UNL     1       0.002  -0.004   0.002  0.00  0.00    +0.099 C 
ENDBRANCH  20  33
ENDBRANCH  19  29
ENDBRANCH  18  19
ENDBRANCH   1  18
TORSDOF 6
