REMARK  Name = ZINC39688790
REMARK  7 active torsions:
REMARK  status: ('A' for Active; 'I' for Inactive)
REMARK    1  A    between atoms: C_1  and  C_2
REMARK    2  A    between atoms: C_2  and  C_4
REMARK    3  A    between atoms: C_2  and  N_12
REMARK    4  A    between atoms: C_4  and  C_5
REMARK    5  A    between atoms: C_13  and  C_15
REMARK    6  A    between atoms: C_26  and  C_28
REMARK    7  A    between atoms: N_32  and  C_33
REMARK                            x       y       z     vdW  Elec       q    Type
REMARK                         _______ _______ _______ _____ _____    ______ ____
ROOT
ATOM      1  C   UNL     1      -2.717  -1.805  -1.211  0.00  0.00    +0.100 C 
ATOM      2  C   UNL     1      -3.066  -3.271  -0.871  0.00  0.00    +0.121 C 
ATOM      3  N   UNL     1      -4.315  -3.542  -1.619  0.00  0.00    -0.295 N 
ATOM      4  C   UNL     1      -4.123  -2.854  -2.918  0.00  0.00    +0.115 C 
ATOM      5  C   UNL     1      -3.412  -1.535  -2.555  0.00  0.00    -0.004 C 
ATOM      6  C   UNL     1      -4.432  -0.410  -2.407  0.00  0.00    -0.010 C 
ATOM      7  C   UNL     1      -5.069  -0.122  -3.769  0.00  0.00    -0.082 C 
ATOM      8  N   UNL     1      -4.026   0.259  -4.729  0.00  0.00    +0.379 N 
ATOM      9  C   UNL     1      -3.102  -0.862  -4.936  0.00  0.00    -0.082 C 
ATOM     10  C   UNL     1      -2.381  -1.182  -3.623  0.00  0.00    -0.010 C 
ATOM     11  C   UNL     1      -5.385  -4.254  -1.212  0.00  0.00    +0.265 C 
ATOM     12  O   UNL     1      -6.255  -4.554  -2.007  0.00  0.00    -0.268 OA
ATOM     13  H   UNL     1      -4.454   0.507  -5.608  0.00  0.00    -0.086 HD
ATOM     14  H   UNL     1      -3.515   1.052  -4.371  0.00  0.00    -0.086 HD
ENDROOT
BRANCH  11  15
ATOM     15  C   UNL     1      -5.500  -4.667   0.192  0.00  0.00    +0.124 A 
ATOM     16  C   UNL     1      -4.808  -4.158   1.255  0.00  0.00    +0.143 A 
ATOM     17  N   UNL     1      -5.208  -4.806   2.349  0.00  0.00    -0.243 NA
ATOM     18  C   UNL     1      -6.114  -5.694   2.029  0.00  0.00    +0.199 A 
ATOM     19  N   UNL     1      -6.333  -5.643   0.703  0.00  0.00    -0.330 N 
ATOM     20  C   UNL     1      -7.276  -6.467  -0.057  0.00  0.00    +0.150 C 
ENDBRANCH  11  15
BRANCH   1  22
ATOM     21  N   UNL     1      -0.659  -0.435  -1.134  0.00  0.00    -0.312 N 
ATOM     22  C   UNL     1      -1.225  -1.639  -1.349  0.00  0.00    +0.218 C 
ATOM     23  O   UNL     1      -0.535  -2.588  -1.653  0.00  0.00    -0.275 OA
ATOM     24  H   UNL     1      -1.211   0.325  -0.890  0.00  0.00    +0.149 HD
BRANCH  21  26
ATOM     25  C   UNL     1       1.142  -0.013  -2.734  0.00  0.00    +0.028 C 
ATOM     26  C   UNL     1       0.791  -0.274  -1.268  0.00  0.00    +0.074 C 
BRANCH  26  27
ATOM     27  C   UNL     1       1.254   0.910  -0.415  0.00  0.00    +0.057 C 
BRANCH  27  28
ATOM     28  C   UNL     1       1.020   0.601   1.041  0.00  0.00    -0.045 A 
ATOM     29  C   UNL     1      -0.184   0.935   1.633  0.00  0.00    +0.006 A 
ATOM     30  C   UNL     1      -0.399   0.653   2.969  0.00  0.00    +0.038 A 
ATOM     31  C   UNL     1       0.591   0.034   3.713  0.00  0.00    +0.123 A 
ATOM     32  C   UNL     1       1.796  -0.300   3.119  0.00  0.00    +0.038 A 
ATOM     33  C   UNL     1       2.007  -0.021   1.782  0.00  0.00    +0.006 A 
ATOM     34  F   UNL     1       0.381  -0.242   5.019  0.00  0.00    -0.205 F 
ENDBRANCH  27  28
ENDBRANCH  26  27
ENDBRANCH  21  26
ENDBRANCH   1  22
TORSDOF 5
