REMARK  Name = ZINC07980254
REMARK  8 active torsions:
REMARK  status: ('A' for Active; 'I' for Inactive)
REMARK    1  A    between atoms: C_1  and  C_2
REMARK    2  A    between atoms: C_2  and  C_3
REMARK    3  A    between atoms: N_11  and  C_15
REMARK    4  A    between atoms: C_15  and  C_16
REMARK    5  A    between atoms: N_18  and  C_19
REMARK    6  A    between atoms: N_23  and  C_24
REMARK    7  A    between atoms: C_24  and  C_26
REMARK    8  A    between atoms: C_24  and  C_27
REMARK                            x       y       z     vdW  Elec       q    Type
REMARK                         _______ _______ _______ _____ _____    ______ ____
ROOT
ATOM      1  C   UNL     1       3.038   5.238   0.002  0.00  0.00    -0.011 C 
ATOM      2  C   UNL     1       2.591   4.477   1.252  0.00  0.00    +0.006 C 
ATOM      3  C   UNL     1       1.064   4.381   1.270  0.00  0.00    +0.035 C 
ATOM      4  C   UNL     1       0.583   3.659   0.016  0.00  0.00    +0.113 C 
ATOM      5  C   UNL     1       1.040   4.395  -1.239  0.00  0.00    +0.035 C 
ATOM      6  C   UNL     1       2.568   4.491  -1.248  0.00  0.00    +0.006 C 
ATOM      7  C   UNL     1       1.088   2.234   0.004  0.00  0.00    +0.247 C 
ATOM      8  O   UNL     1       2.242   1.864  -0.009  0.00  0.00    -0.273 OA
ATOM      9  N   UNL     1      -0.018   1.461   0.010  0.00  0.00    -0.215 N 
ATOM     10  C   UNL     1      -1.135   2.198   0.019  0.00  0.00    +0.310 C 
ATOM     11  O   UNL     1      -2.256   1.727   0.021  0.00  0.00    -0.252 OA
ATOM     12  N   UNL     1      -0.878   3.520   0.029  0.00  0.00    -0.285 N 
ATOM     13  H   UNL     1      -1.530   4.238   0.040  0.00  0.00    +0.151 HD
ENDROOT
BRANCH   1  15
ATOM     14  C   UNL     1       5.005   6.210  -1.194  0.00  0.00    +0.004 C 
ATOM     15  C   UNL     1       4.564   5.344  -0.012  0.00  0.00    -0.000 C 
ENDBRANCH   1  15
BRANCH   9  16
ATOM     16  C   UNL     1       0.002  -0.004   0.002  0.00  0.00    +0.214 C 
BRANCH  16  17
ATOM     17  C   UNL     1       0.022  -0.514   1.420  0.00  0.00    +0.236 C 
ATOM     18  O   UNL     1       0.021   0.269   2.346  0.00  0.00    -0.274 OA
ATOM     19  N   UNL     1       0.043  -1.840   1.659  0.00  0.00    -0.269 N 
ATOM     20  H   UNL     1       0.044  -2.466   0.918  0.00  0.00    +0.156 HD
BRANCH  19  21
ATOM     21  C   UNL     1       0.062  -2.312   2.971  0.00  0.00    +0.123 A 
ATOM     22  C   UNL     1       0.068  -1.551   4.100  0.00  0.00    +0.065 A 
ATOM     23  C   UNL     1       0.084  -2.415   5.198  0.00  0.00    +0.136 A 
ATOM     24  N   UNL     1       0.097  -3.645   4.754  0.00  0.00    -0.178 NA
ATOM     25  N   UNL     1       0.083  -3.609   3.354  0.00  0.00    -0.247 N 
BRANCH  25  26
ATOM     26  C   UNL     1       0.090  -4.771   2.462  0.00  0.00    +0.109 C 
ATOM     27  C   UNL     1       1.353  -5.598   2.710  0.00  0.00    +0.033 C 
BRANCH  26  28
ATOM     28  C   UNL     1      -1.145  -5.632   2.736  0.00  0.00    +0.013 C 
ATOM     29  C   UNL     1      -2.015  -6.021   1.538  0.00  0.00    +0.006 C 
ATOM     30  C   UNL     1      -2.517  -4.981   2.542  0.00  0.00    +0.006 C 
ENDBRANCH  26  28
ENDBRANCH  25  26
ENDBRANCH  19  21
ENDBRANCH  16  17
ENDBRANCH   9  16
TORSDOF 6
