REMARK  Name = ZINC01187272
REMARK  3 active torsions:
REMARK  status: ('A' for Active; 'I' for Inactive)
REMARK    1  A    between atoms: C_6  and  N_7
REMARK    2  A    between atoms: C_11  and  C_12
REMARK    3  A    between atoms: C_15  and  C_17
REMARK                            x       y       z     vdW  Elec       q    Type
REMARK                         _______ _______ _______ _____ _____    ______ ____
ROOT
ATOM      1  C   UNL     1       0.611   3.220   0.013  0.00  0.00    +0.129 A 
ATOM      2  C   UNL     1       1.097   1.920   0.002  0.00  0.00    +0.050 A 
ATOM      3  C   UNL     1      -0.013   1.076   0.008  0.00  0.00    +0.050 A 
ATOM      4  C   UNL     1      -1.133   1.881   0.017  0.00  0.00    +0.136 A 
ATOM      5  O   UNL     1      -0.738   3.166   0.026  0.00  0.00    -0.455 OA
ENDROOT
BRANCH   4   6
ATOM      6  C   UNL     1      -2.531   1.411   0.020  0.00  0.00    +0.018 A 
ATOM      7  C   UNL     1      -2.806   0.041   0.014  0.00  0.00    +0.012 A 
ATOM      8  C   UNL     1      -4.112  -0.408   0.017  0.00  0.00    +0.014 A 
ATOM      9  C   UNL     1      -5.158   0.505   0.027  0.00  0.00    +0.049 A 
ATOM     10  C   UNL     1      -4.888   1.890   0.033  0.00  0.00    +0.050 A 
ATOM     11  C   UNL     1      -3.581   2.339   0.035  0.00  0.00    +0.025 A 
ATOM     12  C   UNL     1      -6.207   2.559   0.042  0.00  0.00    +0.251 C 
ATOM     13  O   UNL     1      -6.393   3.759   0.050  0.00  0.00    -0.270 OA
ATOM     14  N   UNL     1      -7.165   1.615   0.041  0.00  0.00    -0.248 N 
ATOM     15  C   UNL     1      -6.630   0.381   0.032  0.00  0.00    +0.251 C 
ATOM     16  O   UNL     1      -7.254  -0.661   0.029  0.00  0.00    -0.270 OA
ATOM     17  H   UNL     1      -8.117   1.800   0.046  0.00  0.00    +0.158 HD
ENDBRANCH   4   6
BRANCH   1  22
ATOM     18  N   UNL     1       0.438   7.875   0.039  0.00  0.00    -0.184 N 
ATOM     19  C   UNL     1       1.422   6.955   0.031  0.00  0.00    +0.272 C 
ATOM     20  O   UNL     1       2.619   7.174   0.026  0.00  0.00    -0.268 OA
ATOM     21  C   UNL     1       0.772   5.633   0.025  0.00  0.00    +0.105 C 
ATOM     22  C   UNL     1       1.389   4.390   0.012  0.00  0.00    +0.064 C 
ATOM     23  C   UNL     1      -0.674   5.915   0.041  0.00  0.00    +0.266 C 
ATOM     24  O   UNL     1      -1.572   5.095   0.047  0.00  0.00    -0.268 OA
ATOM     25  N   UNL     1      -0.811   7.255   0.049  0.00  0.00    -0.223 N 
ATOM     26  H   UNL     1      -1.661   7.723   0.060  0.00  0.00    +0.174 HD
BRANCH  18  32
ATOM     27  C   UNL     1       1.932   9.772   0.040  0.00  0.00    +0.026 A 
ATOM     28  C   UNL     1       2.129  11.139   0.040  0.00  0.00    +0.017 A 
ATOM     29  C   UNL     1       1.043  11.996   0.055  0.00  0.00    +0.018 A 
ATOM     30  C   UNL     1      -0.243  11.488   0.065  0.00  0.00    +0.017 A 
ATOM     31  C   UNL     1      -0.447  10.121   0.059  0.00  0.00    +0.026 A 
ATOM     32  C   UNL     1       0.641   9.259   0.044  0.00  0.00    +0.056 A 
ATOM     33 BR   UNL     1       1.318  13.867   0.063  0.00  0.00    -0.050 Br
ENDBRANCH  18  32
ENDBRANCH   1  22
TORSDOF 3
