REMARK  Name = ZINC09934466
REMARK  8 active torsions:
REMARK  status: ('A' for Active; 'I' for Inactive)
REMARK    1  A    between atoms: C_1  and  C_2
REMARK    2  A    between atoms: C_3  and  C_30
REMARK    3  A    between atoms: C_7  and  N_8
REMARK    4  A    between atoms: C_12  and  N_13
REMARK    5  A    between atoms: N_13  and  N_14
REMARK    6  A    between atoms: C_15  and  C_17
REMARK    7  A    between atoms: C_22  and  N_23
REMARK    8  A    between atoms: C_26  and  C_28
REMARK                            x       y       z     vdW  Elec       q    Type
REMARK                         _______ _______ _______ _____ _____    ______ ____
ROOT
ATOM      1  N   UNL     1      -0.378  -1.900   2.388  0.00  0.00    -0.156 N 
ATOM      2  C   UNL     1      -1.265  -1.760   3.394  0.00  0.00    +0.273 C 
ATOM      3  O   UNL     1      -2.404  -2.194   3.433  0.00  0.00    -0.268 OA
ATOM      4  C   UNL     1      -0.581  -0.981   4.433  0.00  0.00    +0.076 C 
ATOM      5  C   UNL     1      -1.087  -0.583   5.659  0.00  0.00    +0.102 C 
ATOM      6  C   UNL     1       0.759  -0.715   3.888  0.00  0.00    +0.070 C 
ATOM      7  N   UNL     1       0.822  -1.269   2.717  0.00  0.00    -0.176 NA
ATOM      8  C   UNL     1       1.860   0.056   4.569  0.00  0.00    +0.068 C 
ENDROOT
BRANCH   1  15
ATOM      9  C   UNL     1       0.039  -0.513  -0.062  0.00  0.00    +0.046 C 
ATOM     10  C   UNL     1      -0.433  -1.944  -0.027  0.00  0.00    -0.023 A 
ATOM     11  C   UNL     1      -0.671  -2.623  -1.206  0.00  0.00    -0.032 A 
ATOM     12  C   UNL     1      -1.103  -3.936  -1.175  0.00  0.00    +0.021 A 
ATOM     13  C   UNL     1      -1.299  -4.574   0.037  0.00  0.00    +0.017 A 
ATOM     14  C   UNL     1      -1.063  -3.901   1.219  0.00  0.00    +0.027 A 
ATOM     15  C   UNL     1      -0.623  -2.584   1.191  0.00  0.00    +0.064 A 
ATOM     16 BR   UNL     1      -1.428  -4.862  -2.792  0.00  0.00    -0.050 Br
ATOM     17  C   UNL     1      -0.460  -1.931  -2.528  0.00  0.00    +0.045 C 
ENDBRANCH   1  15
BRANCH   5  18
ATOM     18  N   UNL     1      -2.347  -0.913   6.008  0.00  0.00    -0.271 N 
ATOM     19  H   UNL     1      -2.899  -1.429   5.399  0.00  0.00    +0.169 HD
BRANCH  18  20
ATOM     20  N   UNL     1      -2.859  -0.510   7.248  0.00  0.00    -0.233 N 
ATOM     21  C   UNL     1      -4.119  -0.840   7.596  0.00  0.00    +0.262 C 
ATOM     22  O   UNL     1      -4.810  -1.487   6.834  0.00  0.00    -0.269 OA
ATOM     23  H   UNL     1      -2.307   0.006   7.856  0.00  0.00    +0.173 HD
BRANCH  21  24
ATOM     24  C   UNL     1      -4.659  -0.415   8.905  0.00  0.00    +0.068 A 
ATOM     25  C   UNL     1      -3.979  -0.736  10.082  0.00  0.00    +0.015 A 
ATOM     26  C   UNL     1      -4.489  -0.336  11.299  0.00  0.00    +0.001 A 
ATOM     27  C   UNL     1      -5.671   0.381  11.357  0.00  0.00    +0.002 A 
ATOM     28  C   UNL     1      -6.350   0.702  10.195  0.00  0.00    +0.033 A 
ATOM     29  C   UNL     1      -5.848   0.313   8.970  0.00  0.00    +0.138 A 
BRANCH  29  30
ATOM     30  N   UNL     1      -6.572   0.662   7.727  0.00  0.00    +0.057 N 
ATOM     31  O   UNL     1      -7.661   1.184   7.788  0.00  0.00    -0.126 OA
ATOM     32  O   UNL     1      -6.074   0.427   6.650  0.00  0.00    -0.126 OA
ENDBRANCH  29  30
ENDBRANCH  21  24
ENDBRANCH  18  20
ENDBRANCH   5  18
TORSDOF 5
