REMARK  Name = ZINC20285837
REMARK  11 active torsions:
REMARK  status: ('A' for Active; 'I' for Inactive)
REMARK    1  A    between atoms: C_1  and  C_2
REMARK    2  A    between atoms: C_2  and  C_4
REMARK    3  A    between atoms: C_2  and  N_18
REMARK    4  A    between atoms: C_4  and  N_5
REMARK    5  A    between atoms: C_8  and  N_10
REMARK    6  A    between atoms: N_10  and  C_11
REMARK    7  A    between atoms: N_18  and  C_19
REMARK    8  A    between atoms: C_21  and  C_27
REMARK    9  A    between atoms: C_21  and  C_28
REMARK   10  A    between atoms: C_23  and  C_25
REMARK   11  A    between atoms: C_23  and  C_26
REMARK                            x       y       z     vdW  Elec       q    Type
REMARK                         _______ _______ _______ _____ _____    ______ ____
ROOT
ATOM      1  C   UNL     1      -1.303   1.610  -0.120  0.00  0.00    +0.026 C 
ATOM      2  C   UNL     1      -1.134   0.095  -0.247  0.00  0.00    +0.072 C 
ENDROOT
BRANCH   2   3
ATOM      3  N   UNL     1      -0.699  -0.236  -1.611  0.00  0.00    -0.309 NA
ATOM      4  H   UNL     1      -1.017  -1.156  -1.878  0.00  0.00    +0.123 HD
BRANCH   3   5
ATOM      5  C   UNL     1       0.764  -0.125  -1.740  0.00  0.00    +0.051 C 
ATOM      6  C   UNL     1       1.407  -1.450  -1.324  0.00  0.00    +0.006 C 
ATOM      7  C   UNL     1       2.926  -1.354  -1.464  0.00  0.00    -0.072 C 
ATOM      8  N   UNL     1       3.328  -0.933  -2.798  0.00  0.00    +0.386 N 
ATOM      9  C   UNL     1       2.634   0.202  -3.386  0.00  0.00    -0.072 C 
ATOM     10  C   UNL     1       1.121   0.144  -3.201  0.00  0.00    +0.006 C 
ATOM     11  C   UNL     1       2.911   0.177  -4.909  0.00  0.00    -0.010 C 
ATOM     12  C   UNL     1       3.174   1.532  -2.856  0.00  0.00    -0.010 C 
ATOM     13  C   UNL     1       3.498  -2.771  -1.230  0.00  0.00    -0.010 C 
ATOM     14  C   UNL     1       3.501  -0.448  -0.377  0.00  0.00    -0.010 C 
ATOM     15  H   UNL     1       4.329  -0.726  -2.781  0.00  0.00    -0.084 HD
ATOM     16  H   UNL     1       3.230  -1.732  -3.430  0.00  0.00    -0.084 HD
ENDBRANCH   3   5
ENDBRANCH   2   3
BRANCH   2  17
ATOM     17  C   UNL     1      -2.468  -0.594   0.044  0.00  0.00    +0.162 C 
BRANCH  17  18
ATOM     18  N   UNL     1      -2.337  -2.034  -0.193  0.00  0.00    -0.258 NA
ATOM     19  C   UNL     1      -2.452  -2.869   0.797  0.00  0.00    +0.193 C 
ATOM     20  N   UNL     1      -2.401  -4.246   1.046  0.00  0.00    -0.198 NA
ATOM     21  C   UNL     1      -2.601  -4.624   2.339  0.00  0.00    +0.188 C 
ATOM     22  S   UNL     1      -2.751  -2.865   2.550  0.00  0.00    -0.013 S 
BRANCH  21  23
ATOM     23  N   UNL     1      -2.653  -5.764   3.086  0.00  0.00    -0.190 NA
BRANCH  23  24
ATOM     24  C   UNL     1      -3.077  -5.708   4.418  0.00  0.00    +0.056 A 
ATOM     25  C   UNL     1      -2.730  -6.723   5.301  0.00  0.00    +0.026 A 
ATOM     26  C   UNL     1      -3.150  -6.665   6.616  0.00  0.00    +0.017 A 
ATOM     27  C   UNL     1      -3.915  -5.598   7.053  0.00  0.00    +0.018 A 
ATOM     28  C   UNL     1      -4.262  -4.586   6.175  0.00  0.00    +0.017 A 
ATOM     29  C   UNL     1      -3.840  -4.636   4.861  0.00  0.00    +0.026 A 
ATOM     30 BR   UNL     1      -4.488  -5.522   8.853  0.00  0.00    -0.050 Br
ENDBRANCH  23  24
ENDBRANCH  21  23
ENDBRANCH  17  18
ENDBRANCH   2  17
TORSDOF 6
