REMARK  Name = ZINC32913556
REMARK  3 active torsions:
REMARK  status: ('A' for Active; 'I' for Inactive)
REMARK    1  A    between atoms: C_1  and  C_2
REMARK    2  A    between atoms: C_2  and  C_24
REMARK    3  A    between atoms: C_10  and  C_12
REMARK                            x       y       z     vdW  Elec       q    Type
REMARK                         _______ _______ _______ _____ _____    ______ ____
ROOT
ATOM      1  C   UNL     1       2.427   3.504  -2.142  0.00  0.00    +0.011 C 
ATOM      2  C   UNL     1       2.453   3.979  -0.688  0.00  0.00    -0.022 C 
ATOM      3  C   UNL     1       1.151   3.562   0.000  0.00  0.00    +0.063 C 
ATOM      4  C   UNL     1       1.081   2.040   0.003  0.00  0.00    +0.062 A 
ATOM      5  C   UNL     1       2.278   1.311  -0.009  0.00  0.00    +0.079 A 
ATOM      6  S   UNL     1       1.705  -0.361  -0.015  0.00  0.00    -0.049 S 
ATOM      7  C   UNL     1       0.002  -0.004   0.002  0.00  0.00    +0.165 A 
ATOM      8  N   UNL     1      -0.016   1.322   0.009  0.00  0.00    -0.229 NA
ATOM      9  N   UNL     1      -1.064  -0.882   0.007  0.00  0.00    -0.261 N 
ATOM     10  C   UNL     1      -0.843  -2.212  -0.002  0.00  0.00    +0.250 C 
ATOM     11  O   UNL     1       0.296  -2.638  -0.015  0.00  0.00    -0.270 OA
ATOM     12  C   UNL     1       3.557   1.856  -0.013  0.00  0.00    +0.172 C 
ATOM     13  O   UNL     1       4.546   1.151  -0.041  0.00  0.00    -0.291 OA
ATOM     14  C   UNL     1       3.666   3.370   0.017  0.00  0.00    +0.087 C 
ATOM     15  C   UNL     1       2.571   5.504  -0.660  0.00  0.00    +0.011 C 
ATOM     16  H   UNL     1      -2.094  -0.496   0.019  0.00  0.00    +0.157 HD
ENDROOT
BRANCH  10  17
ATOM     17  C   UNL     1      -1.978  -3.147   0.004  0.00  0.00    +0.047 A 
ATOM     18  C   UNL     1      -3.277  -2.688   0.024  0.00  0.00    +0.058 A 
ATOM     19  S   UNL     1      -4.213  -4.147   0.020  0.00  0.00    -0.101 S 
ATOM     20  C   UNL     1      -2.895  -5.329   0.001  0.00  0.00    -0.006 A 
ATOM     21  C   UNL     1      -1.767  -4.582  -0.006  0.00  0.00    -0.025 A 
ATOM     22  C   UNL     1      -0.392  -5.239  -0.022  0.00  0.00    +0.037 C 
ATOM     23  C   UNL     1      -0.537  -6.694   0.428  0.00  0.00    +0.005 C 
ATOM     24  C   UNL     1      -1.618  -7.391  -0.402  0.00  0.00    +0.005 C 
ATOM     25  C   UNL     1      -2.989  -6.823  -0.008  0.00  0.00    +0.043 C 
ENDBRANCH  10  17
TORSDOF 1
