REMARK  Name = ZINC39695818
REMARK  9 active torsions:
REMARK  status: ('A' for Active; 'I' for Inactive)
REMARK    1  A    between atoms: C_1  and  C_2
REMARK    2  A    between atoms: C_7  and  C_12
REMARK    3  A    between atoms: C_12  and  C_14
REMARK    4  A    between atoms: C_12  and  N_15
REMARK    5  A    between atoms: C_16  and  C_18
REMARK    6  A    between atoms: C_29  and  C_31
REMARK    7  A    between atoms: C_32  and  C_43
REMARK    8  A    between atoms: C_35  and  C_37
REMARK    9  A    between atoms: C_39  and  C_42
REMARK                            x       y       z     vdW  Elec       q    Type
REMARK                         _______ _______ _______ _____ _____    ______ ____
ROOT
ATOM      1  C   UNL     1      -6.258   2.497  -8.578  0.00  0.00    +0.100 C 
ATOM      2  C   UNL     1      -5.680   3.841  -9.075  0.00  0.00    +0.121 C 
ATOM      3  N   UNL     1      -6.385   4.104 -10.351  0.00  0.00    -0.296 N 
ATOM      4  C   UNL     1      -7.779   3.667 -10.098  0.00  0.00    +0.115 C 
ATOM      5  C   UNL     1      -7.636   2.387  -9.252  0.00  0.00    -0.004 C 
ATOM      6  C   UNL     1      -8.736   2.327  -8.197  0.00  0.00    -0.010 C 
ATOM      7  C   UNL     1     -10.092   2.159  -8.888  0.00  0.00    -0.082 C 
ATOM      8  N   UNL     1     -10.086   0.928  -9.688  0.00  0.00    +0.379 N 
ATOM      9  C   UNL     1      -9.088   1.033 -10.760  0.00  0.00    -0.082 C 
ATOM     10  C   UNL     1      -7.690   1.153 -10.147  0.00  0.00    -0.010 C 
ATOM     11  C   UNL     1      -5.875   4.622 -11.486  0.00  0.00    +0.247 C 
ATOM     12  O   UNL     1      -6.607   4.864 -12.428  0.00  0.00    -0.270 OA
ATOM     13  H   UNL     1      -9.860   0.144  -9.095  0.00  0.00    -0.086 HD
ATOM     14  H   UNL     1     -10.999   0.788 -10.094  0.00  0.00    -0.086 HD
ENDROOT
BRANCH  11  15
ATOM     15  C   UNL     1      -4.488   4.883 -11.583  0.00  0.00    +0.072 C 
ATOM     16  C   UNL     1      -3.515   3.975 -11.792  0.00  0.00    +0.047 C 
ATOM     17  N   UNL     1      -2.293   4.572 -11.830  0.00  0.00    -0.269 N 
ATOM     18  O   UNL     1      -2.418   5.968 -11.638  0.00  0.00    -0.260 OA
ATOM     19  C   UNL     1      -3.819   6.235 -11.477  0.00  0.00    +0.237 C 
ATOM     20  C   UNL     1      -3.749   2.496 -11.960  0.00  0.00    +0.066 C 
ATOM     21  H   UNL     1      -1.454   4.105 -11.969  0.00  0.00    +0.194 HD
BRANCH  19  22
ATOM     22  C   UNL     1      -4.082   6.846 -10.125  0.00  0.00    +0.120 A 
ATOM     23  C   UNL     1      -3.104   7.253  -9.198  0.00  0.00    +0.073 A 
ATOM     24  C   UNL     1      -3.734   7.746  -8.115  0.00  0.00    +0.135 A 
ATOM     25  O   UNL     1      -5.056   7.662  -8.329  0.00  0.00    -0.360 OA
ATOM     26  N   UNL     1      -5.253   7.094  -9.611  0.00  0.00    -0.080 NA
ATOM     27  C   UNL     1      -3.070   8.295  -6.878  0.00  0.00    +0.089 C 
ENDBRANCH  19  22
ENDBRANCH  11  15
BRANCH   1  29
ATOM     28  N   UNL     1      -6.452   1.351  -6.395  0.00  0.00    -0.305 N 
ATOM     29  C   UNL     1      -6.406   2.511  -7.079  0.00  0.00    +0.219 C 
ATOM     30  O   UNL     1      -6.483   3.567  -6.487  0.00  0.00    -0.275 OA
ATOM     31  H   UNL     1      -6.391   0.506  -6.868  0.00  0.00    +0.149 HD
BRANCH  28  32
ATOM     32  C   UNL     1      -6.597   1.365  -4.937  0.00  0.00    +0.136 C 
ATOM     33  C   UNL     1      -5.219   1.521  -4.290  0.00  0.00    +0.036 C 
BRANCH  32  40
ATOM     34  C   UNL     1     -10.091  -4.314  -1.632  0.00  0.00    +0.044 C 
ATOM     35  C   UNL     1      -9.295  -3.497  -2.616  0.00  0.00    -0.048 A 
ATOM     36  C   UNL     1      -8.799  -4.095  -3.766  0.00  0.00    +0.005 A 
ATOM     37  C   UNL     1      -8.074  -3.372  -4.671  0.00  0.00    +0.030 A 
ATOM     38  C   UNL     1      -7.828  -2.015  -4.441  0.00  0.00    +0.089 A 
ATOM     39  N   UNL     1      -7.162  -1.054  -5.131  0.00  0.00    -0.231 NA
ATOM     40  C   UNL     1      -7.222   0.071  -4.482  0.00  0.00    +0.128 A 
ATOM     41  H   UNL     1      -8.119   0.597  -2.672  0.00  0.00    +0.167 HD
ATOM     42  N   UNL     1      -7.930  -0.089  -3.332  0.00  0.00    -0.340 N 
ATOM     43  C   UNL     1      -8.331  -1.409  -3.277  0.00  0.00    +0.067 A 
ATOM     44  C   UNL     1      -9.069  -2.159  -2.372  0.00  0.00    +0.031 A 
ENDBRANCH  32  40
ENDBRANCH  28  32
ENDBRANCH   1  29
TORSDOF 5
