REMARK  Name = ZINC35515092
REMARK  5 active torsions:
REMARK  status: ('A' for Active; 'I' for Inactive)
REMARK    1  A    between atoms: C_4  and  C_7
REMARK    2  A    between atoms: N_9  and  C_10
REMARK    3  A    between atoms: C_10  and  C_11
REMARK    4  A    between atoms: N_16  and  S_19
REMARK    5  A    between atoms: S_19  and  C_22
REMARK                            x       y       z     vdW  Elec       q    Type
REMARK                         _______ _______ _______ _____ _____    ______ ____
ROOT
ATOM      1  C   UNL     1       4.746  -4.230  -0.067  0.00  0.00    +0.233 C 
ATOM      2  O   UNL     1       3.609  -4.653  -0.058  0.00  0.00    -0.274 OA
ATOM      3  N   UNL     1       5.784  -5.089  -0.081  0.00  0.00    -0.298 N 
ATOM      4  C   UNL     1       7.167  -4.591  -0.086  0.00  0.00    +0.125 C 
ATOM      5  C   UNL     1       7.917  -5.215   1.097  0.00  0.00    +0.128 C 
ATOM      6  N   UNL     1       7.687  -6.667   1.086  0.00  0.00    -0.174 NA
ATOM      7  C   UNL     1       6.304  -7.165   1.091  0.00  0.00    +0.128 C 
ATOM      8  C   UNL     1       5.554  -6.541  -0.087  0.00  0.00    +0.125 C 
ENDROOT
BRANCH   6   9
ATOM      9  S   UNL     1       8.963  -7.723   1.068  0.00  0.00    +0.061 S 
ATOM     10  O   UNL     1       8.478  -8.936   0.510  0.00  0.00    -0.153 OA
ATOM     11  O   UNL     1      10.065  -7.017   0.515  0.00  0.00    -0.153 OA
BRANCH   9  12
ATOM     12  C   UNL     1       9.376  -8.069   2.745  0.00  0.00    +0.107 A 
ATOM     13  C   UNL     1      10.297  -7.284   3.417  0.00  0.00    +0.030 A 
ATOM     14  C   UNL     1      10.632  -7.540   4.726  0.00  0.00    +0.029 A 
ATOM     15  C   UNL     1      10.048  -8.610   5.424  0.00  0.00    +0.056 A 
ATOM     16  C   UNL     1       9.119  -9.386   4.716  0.00  0.00    +0.042 A 
ATOM     17  C   UNL     1       8.779  -9.127   3.410  0.00  0.00    +0.045 A 
ATOM     18  S   UNL     1       8.618 -10.604   5.907  0.00  0.00    -0.027 S 
ATOM     19  C   UNL     1       9.636 -10.050   7.266  0.00  0.00    +0.289 A 
ATOM     20  O   UNL     1       9.725 -10.512   8.388  0.00  0.00    -0.260 OA
ATOM     21  N   UNL     1      10.280  -8.993   6.734  0.00  0.00    -0.316 N 
ATOM     22  H   UNL     1      10.912  -8.495   7.275  0.00  0.00    +0.169 HD
ENDBRANCH   9  12
ENDBRANCH   6   9
BRANCH   1  23
ATOM     23  C   UNL     1       4.997  -2.744  -0.061  0.00  0.00    +0.200 C 
BRANCH  23  26
ATOM     24  C   UNL     1       3.696  -0.685  -0.037  0.00  0.00    +0.244 C 
ATOM     25  O   UNL     1       4.738  -0.060  -0.044  0.00  0.00    -0.270 OA
ATOM     26  N   UNL     1       3.717  -2.032  -0.045  0.00  0.00    -0.303 N 
ATOM     27  H   UNL     1       2.885  -2.531  -0.039  0.00  0.00    +0.150 HD
BRANCH  24  31
ATOM     28  C   UNL     1      -0.017   1.379   0.010  0.00  0.00    +0.000 A 
ATOM     29  C   UNL     1       1.168   2.094   0.002  0.00  0.00    +0.001 A 
ATOM     30  C   UNL     1       2.377   1.429  -0.013  0.00  0.00    +0.013 A 
ATOM     31  C   UNL     1       2.403   0.034  -0.021  0.00  0.00    +0.037 A 
ATOM     32  C   UNL     1       1.204  -0.681  -0.013  0.00  0.00    +0.013 A 
ATOM     33  C   UNL     1       0.002  -0.004   0.002  0.00  0.00    +0.001 A 
ENDBRANCH  24  31
ENDBRANCH  23  26
ENDBRANCH   1  23
TORSDOF 5
