REMARK  Name = ZINC36206285
REMARK  15 active torsions:
REMARK  status: ('A' for Active; 'I' for Inactive)
REMARK    1  A    between atoms: C_1  and  C_2
REMARK    2  A    between atoms: C_2  and  C_3
REMARK    3  A    between atoms: C_2  and  O_4
REMARK    4  A    between atoms: O_4  and  C_5
REMARK    5  A    between atoms: C_5  and  C_6
REMARK    6  A    between atoms: C_6  and  C_8
REMARK    7  A    between atoms: C_6  and  O_36
REMARK    8  A    between atoms: C_8  and  N_9
REMARK    9  A    between atoms: N_9  and  C_10
REMARK   10  A    between atoms: N_9  and  C_16
REMARK   11  A    between atoms: C_10  and  C_11
REMARK   12  A    between atoms: C_16  and  C_17
REMARK   13  A    between atoms: C_23  and  C_28
REMARK   14  A    between atoms: C_31  and  O_34
REMARK   15  A    between atoms: O_34  and  C_35
REMARK                            x       y       z     vdW  Elec       q    Type
REMARK                         _______ _______ _______ _____ _____    ______ ____
ROOT
ATOM      1  C   UNL     1      -6.182  -5.660  -1.430  0.00  0.00    +0.094 A 
ATOM      2  N   UNL     1      -6.570  -6.905  -1.806  0.00  0.00    -0.312 N 
ATOM      3  H   UNL     1      -5.909  -7.525  -2.153  0.00  0.00    +0.170 HD
ATOM      4  C   UNL     1      -7.854  -7.297  -1.707  0.00  0.00    +0.260 A 
ATOM      5  O   UNL     1      -8.186  -8.419  -2.048  0.00  0.00    -0.267 OA
ATOM      6  C   UNL     1      -8.823  -6.377  -1.194  0.00  0.00    +0.080 A 
ATOM      7  C   UNL     1     -10.255  -6.562  -0.993  0.00  0.00    +0.004 A 
ATOM      8  C   UNL     1     -10.979  -5.535  -0.487  0.00  0.00    +0.056 A 
ATOM      9  S   UNL     1      -9.767  -4.250  -0.252  0.00  0.00    -0.076 S 
ATOM     10  C   UNL     1      -8.329  -5.113  -0.832  0.00  0.00    +0.116 A 
ATOM     11  N   UNL     1      -7.042  -4.799  -0.954  0.00  0.00    -0.229 NA
ENDROOT
BRANCH   7  12
ATOM     12  C   UNL     1     -10.906  -7.849  -1.335  0.00  0.00    -0.016 A 
ATOM     13  C   UNL     1     -10.685  -8.434  -2.580  0.00  0.00    +0.012 A 
ATOM     14  C   UNL     1     -11.291  -9.632  -2.895  0.00  0.00    +0.046 A 
ATOM     15  C   UNL     1     -12.121 -10.255  -1.973  0.00  0.00    +0.120 A 
ATOM     16  C   UNL     1     -12.344  -9.675  -0.732  0.00  0.00    +0.046 A 
ATOM     17  C   UNL     1     -11.735  -8.480  -0.409  0.00  0.00    +0.012 A 
BRANCH  15  18
ATOM     18  O   UNL     1     -12.717 -11.436  -2.287  0.00  0.00    -0.495 OA
ATOM     19  C   UNL     1     -13.559 -12.022  -1.291  0.00  0.00    +0.277 C 
ENDBRANCH  15  18
ENDBRANCH   7  12
BRANCH   1  20
ATOM     20  C   UNL     1      -4.733  -5.265  -1.558  0.00  0.00    -0.003 C 
BRANCH  20  21
ATOM     21  N   UNL     1      -4.558  -3.885  -1.087  0.00  0.00    +0.391 N 
ATOM     22  H   UNL     1      -5.196  -3.278  -1.578  0.00  0.00    -0.080 HD
BRANCH  21  23
ATOM     23  C   UNL     1      -3.177  -3.452  -1.341  0.00  0.00    -0.044 C 
BRANCH  23  24
ATOM     24  C   UNL     1      -2.951  -3.328  -2.849  0.00  0.00    +0.124 C 
BRANCH  24  25
ATOM     25  O   UNL     1      -2.979  -4.628  -3.443  0.00  0.00    -0.391 OA
ATOM     26  H   UNL     1      -2.305  -5.231  -3.102  0.00  0.00    +0.210 HD
ENDBRANCH  24  25
BRANCH  24  27
ATOM     27  C   UNL     1      -1.591  -2.678  -3.109  0.00  0.00    +0.189 C 
BRANCH  27  28
ATOM     28  O   UNL     1      -1.429  -2.456  -4.511  0.00  0.00    -0.375 OA
BRANCH  28  30
ATOM     29  C   UNL     1       0.229  -2.309  -6.263  0.00  0.00    +0.037 C 
ATOM     30  C   UNL     1      -0.184  -1.849  -4.864  0.00  0.00    +0.112 C 
ATOM     31  C   UNL     1      -0.338  -0.327  -4.852  0.00  0.00    +0.037 C 
ENDBRANCH  28  30
ENDBRANCH  27  28
ENDBRANCH  24  27
ENDBRANCH  23  24
ENDBRANCH  21  23
BRANCH  21  32
ATOM     32  C   UNL     1      -4.833  -3.821   0.355  0.00  0.00    -0.002 C 
BRANCH  32  33
ATOM     33  C   UNL     1      -4.795  -2.385   0.810  0.00  0.00    +0.089 A 
ATOM     34  C   UNL     1      -5.858  -1.569   0.930  0.00  0.00    +0.042 A 
ATOM     35  C   UNL     1      -5.369  -0.323   1.384  0.00  0.00    +0.041 A 
ATOM     36  C   UNL     1      -4.036  -0.452   1.515  0.00  0.00    +0.195 A 
ATOM     37  O   UNL     1      -3.695  -1.705   1.172  0.00  0.00    -0.470 OA
ENDBRANCH  32  33
ENDBRANCH  21  32
ENDBRANCH  20  21
ENDBRANCH   1  20
TORSDOF 12
