REMARK  Name = ZINC28290005
REMARK  5 active torsions:
REMARK  status: ('A' for Active; 'I' for Inactive)
REMARK    1  A    between atoms: C_5  and  C_7
REMARK    2  A    between atoms: C_7  and  C_9
REMARK    3  A    between atoms: C_7  and  N_25
REMARK    4  A    between atoms: C_9  and  N_10
REMARK    5  A    between atoms: C_11  and  C_13
REMARK                            x       y       z     vdW  Elec       q    Type
REMARK                         _______ _______ _______ _____ _____    ______ ____
ROOT
ATOM      1  N   UNL     1      -2.951   2.426  -2.233  0.00  0.00    -0.310 N 
ATOM      2  C   UNL     1      -3.326   2.318  -3.523  0.00  0.00    +0.279 C 
ATOM      3  O   UNL     1      -3.568   1.226  -3.995  0.00  0.00    -0.267 OA
ATOM      4  H   UNL     1      -2.731   3.416  -1.805  0.00  0.00    +0.149 HD
ENDROOT
BRANCH   2   5
ATOM      5  C   UNL     1      -3.443   3.532  -4.365  0.00  0.00    +0.193 A 
ATOM      6  C   UNL     1      -3.817   3.393  -5.659  0.00  0.00    +0.103 A 
ATOM      7  C   UNL     1      -3.939   4.598  -6.494  0.00  0.00    +0.193 A 
ATOM      8  O   UNL     1      -4.275   4.532  -7.663  0.00  0.00    -0.287 OA
ATOM      9  C   UNL     1      -3.627   5.888  -5.851  0.00  0.00    +0.064 A 
ATOM     10  C   UNL     1      -3.708   7.088  -6.556  0.00  0.00    +0.016 A 
ATOM     11  C   UNL     1      -3.411   8.265  -5.927  0.00  0.00    +0.016 A 
ATOM     12  C   UNL     1      -3.032   8.271  -4.590  0.00  0.00    +0.021 A 
ATOM     13  C   UNL     1      -2.949   7.093  -3.877  0.00  0.00    +0.062 A 
ATOM     14  C   UNL     1      -3.246   5.885  -4.498  0.00  0.00    +0.141 A 
ATOM     15  O   UNL     1      -3.169   4.725  -3.817  0.00  0.00    -0.450 OA
ATOM     16 BR   UNL     1      -2.628   9.910  -3.740  0.00  0.00    -0.050 Br
ENDBRANCH   2   5
BRANCH   1  17
ATOM     17  C   UNL     1      -2.835   1.226  -1.400  0.00  0.00    +0.094 C 
BRANCH  17  18
ATOM     18  C   UNL     1      -2.514   1.633   0.039  0.00  0.00    -0.019 C 
BRANCH  18  23
ATOM     19  C   UNL     1       0.221   4.232   0.170  0.00  0.00    +0.000 A 
ATOM     20  C   UNL     1       1.355   3.441   0.173  0.00  0.00    +0.001 A 
ATOM     21  C   UNL     1       1.237   2.065   0.135  0.00  0.00    +0.020 A 
ATOM     22  C   UNL     1      -0.015   1.478   0.095  0.00  0.00    +0.043 A 
ATOM     23  C   UNL     1      -1.149   2.271   0.088  0.00  0.00    -0.041 A 
ATOM     24  C   UNL     1      -1.031   3.647   0.131  0.00  0.00    +0.003 A 
ATOM     25 CL   UNL     1      -0.164  -0.251   0.047  0.00  0.00    -0.083 Cl
ENDBRANCH  18  23
BRANCH  18  26
ATOM     26  N   UNL     1      -3.520   2.592   0.513  0.00  0.00    +0.385 N 
ATOM     27  C   UNL     1      -4.892   2.045   0.358  0.00  0.00    -0.078 C 
ATOM     28  C   UNL     1      -5.728   2.897   1.346  0.00  0.00    -0.020 C 
ATOM     29  C   UNL     1      -4.763   3.089   2.539  0.00  0.00    -0.020 C 
ATOM     30  C   UNL     1      -3.355   2.863   1.958  0.00  0.00    -0.078 C 
ATOM     31  H   UNL     1      -3.372   3.502  -0.087  0.00  0.00    -0.081 HD
ENDBRANCH  18  26
ENDBRANCH  17  18
ENDBRANCH   1  17
TORSDOF 5
