REMARK  Name = ZINC40377372
REMARK  8 active torsions:
REMARK  status: ('A' for Active; 'I' for Inactive)
REMARK    1  A    between atoms: C_1  and  C_2
REMARK    2  A    between atoms: C_2  and  C_3
REMARK    3  A    between atoms: C_3  and  C_4
REMARK    4  A    between atoms: C_3  and  C_5
REMARK    5  A    between atoms: C_3  and  N_9
REMARK    6  A    between atoms: N_6  and  O_7
REMARK    7  A    between atoms: N_9  and  S_10
REMARK    8  A    between atoms: S_10  and  C_13
REMARK                            x       y       z     vdW  Elec       q    Type
REMARK                         _______ _______ _______ _____ _____    ______ ____
ROOT
ATOM      1  N   UNL     1       1.716   0.117   1.539  0.00  0.00    -0.177 NA
ATOM      2  H   UNL     1       1.706   0.675   2.332  0.00  0.00    +0.149 HD
ENDROOT
BRANCH   1   3
ATOM      3  S   UNL     1       3.090   0.010   0.620  0.00  0.00    +0.061 S 
ATOM      4  O   UNL     1       2.689   0.189  -0.731  0.00  0.00    -0.153 OA
ATOM      5  O   UNL     1       4.061   0.839   1.243  0.00  0.00    -0.153 OA
BRANCH   3   6
ATOM      6  C   UNL     1       3.679  -1.645   0.755  0.00  0.00    +0.124 A 
ATOM      7  C   UNL     1       3.724  -2.456  -0.363  0.00  0.00    +0.031 A 
ATOM      8  C   UNL     1       4.187  -3.755  -0.258  0.00  0.00    +0.017 A 
ATOM      9  C   UNL     1       4.604  -4.243   0.968  0.00  0.00    +0.019 A 
ATOM     10  C   UNL     1       4.560  -3.432   2.087  0.00  0.00    +0.037 A 
ATOM     11  C   UNL     1       4.102  -2.131   1.980  0.00  0.00    +0.068 A 
ATOM     12 CL   UNL     1       4.051  -1.110   3.383  0.00  0.00    -0.081 Cl
ATOM     13 BR   UNL     1       5.236  -6.020   1.112  0.00  0.00    -0.050 Br
ENDBRANCH   3   6
ENDBRANCH   1   3
BRANCH   1  14
ATOM     14  C   UNL     1       0.517  -0.632   1.155  0.00  0.00    +0.095 C 
ATOM     15  C   UNL     1       0.862  -2.117   1.029  0.00  0.00    +0.037 C 
BRANCH  14  16
ATOM     16  C   UNL     1      -0.547  -0.451   2.206  0.00  0.00    +0.153 C 
ATOM     17  N   UNL     1      -1.716  -0.013   1.874  0.00  0.00    -0.075 NA
ATOM     18  N   UNL     1      -0.273  -0.752   3.522  0.00  0.00    -0.342 N 
ATOM     19  H   UNL     1       0.605  -1.081   3.772  0.00  0.00    +0.144 HD
ATOM     20  H   UNL     1      -0.958  -0.636   4.199  0.00  0.00    +0.144 HD
BRANCH  17  21
ATOM     21  O   UNL     1      -2.716   0.157   2.862  0.00  0.00    -0.408 OA
ATOM     22  H   UNL     1      -3.557   0.489   2.518  0.00  0.00    +0.328 HD
ENDBRANCH  17  21
ENDBRANCH  14  16
BRANCH  14  24
ATOM     23  C   UNL     1      -0.192   1.403  -0.109  0.00  0.00    +0.006 C 
ATOM     24  C   UNL     1       0.000  -0.113  -0.188  0.00  0.00    +0.028 C 
ENDBRANCH  14  24
ENDBRANCH   1  14
TORSDOF 6
