REMARK  Name = ZINC09034164
REMARK  11 active torsions:
REMARK  status: ('A' for Active; 'I' for Inactive)
REMARK    1  A    between atoms: C_1  and  C_2
REMARK    2  A    between atoms: C_3  and  C_25
REMARK    3  A    between atoms: C_15  and  C_19
REMARK    4  A    between atoms: C_16  and  N_18
REMARK    5  A    between atoms: C_19  and  O_21
REMARK    6  A    between atoms: O_21  and  C_22
REMARK    7  A    between atoms: C_22  and  C_23
REMARK    8  A    between atoms: C_22  and  C_24
REMARK    9  A    between atoms: C_25  and  O_27
REMARK   10  A    between atoms: O_27  and  C_28
REMARK   11  A    between atoms: C_28  and  C_29
REMARK                            x       y       z     vdW  Elec       q    Type
REMARK                         _______ _______ _______ _____ _____    ______ ____
ROOT
ATOM      1  C   UNL     1       1.044   0.639  -4.715  0.00  0.00    +0.087 C 
ATOM      2  C   UNL     1      -0.263   1.389  -4.705  0.00  0.00    +0.116 C 
ATOM      3  C   UNL     1      -0.812   1.717  -3.528  0.00  0.00    +0.098 C 
ATOM      4  C   UNL     1      -2.111   2.468  -3.469  0.00  0.00    +0.145 C 
ATOM      5  C   UNL     1      -1.874   3.903  -3.071  0.00  0.00    -0.001 A 
ATOM      6  C   UNL     1      -1.162   4.932  -3.645  0.00  0.00    +0.022 A 
ATOM      7  C   UNL     1      -1.125   6.173  -3.032  0.00  0.00    +0.018 A 
ATOM      8  C   UNL     1      -1.805   6.374  -1.844  0.00  0.00    +0.017 A 
ATOM      9  C   UNL     1      -2.520   5.345  -1.268  0.00  0.00    +0.025 A 
ATOM     10  C   UNL     1      -2.562   4.093  -1.878  0.00  0.00    +0.038 A 
ATOM     11  N   UNL     1      -3.203   2.913  -1.498  0.00  0.00    -0.284 N 
ATOM     12  C   UNL     1      -2.991   1.915  -2.373  0.00  0.00    +0.237 C 
ATOM     13  O   UNL     1      -3.425   0.784  -2.298  0.00  0.00    -0.274 OA
ATOM     14 BR   UNL     1      -0.146   7.589  -3.816  0.00  0.00    -0.050 Br
ATOM     15  C   UNL     1      -2.817   2.400  -4.793  0.00  0.00    +0.117 C 
ATOM     16  C   UNL     1      -2.143   2.022  -5.912  0.00  0.00    +0.195 C 
ATOM     17  O   UNL     1      -0.839   1.702  -5.875  0.00  0.00    -0.446 OA
ATOM     18  H   UNL     1      -3.740   2.824  -0.695  0.00  0.00    +0.155 HD
ENDROOT
BRANCH  16  19
ATOM     19  N   UNL     1      -2.811   1.964  -7.106  0.00  0.00    -0.329 N 
ATOM     20  H   UNL     1      -3.732   2.263  -7.161  0.00  0.00    +0.145 HD
ATOM     21  H   UNL     1      -2.363   1.625  -7.896  0.00  0.00    +0.145 HD
ENDBRANCH  16  19
BRANCH  15  22
ATOM     22  C   UNL     1      -4.178   2.730  -4.876  0.00  0.00    +0.342 C 
ATOM     23  O   UNL     1      -4.520   3.898  -4.931  0.00  0.00    -0.245 OA
BRANCH  22  24
ATOM     24  O   UNL     1      -5.110   1.753  -4.894  0.00  0.00    -0.458 OA
BRANCH  24  25
ATOM     25  C   UNL     1      -6.477   2.161  -4.980  0.00  0.00    +0.171 C 
ATOM     26  C   UNL     1      -6.888   2.261  -6.450  0.00  0.00    +0.052 C 
ATOM     27  C   UNL     1      -7.362   1.133  -4.272  0.00  0.00    +0.052 C 
ENDBRANCH  24  25
ENDBRANCH  22  24
ENDBRANCH  15  22
BRANCH   3  28
ATOM     28  C   UNL     1      -0.157   1.357  -2.324  0.00  0.00    +0.340 C 
ATOM     29  O   UNL     1       0.497   2.183  -1.717  0.00  0.00    -0.245 OA
BRANCH  28  30
ATOM     30  O   UNL     1      -0.259   0.097  -1.852  0.00  0.00    -0.457 OA
BRANCH  30  31
ATOM     31  C   UNL     1       0.427  -0.197  -0.634  0.00  0.00    +0.259 C 
BRANCH  31  32
ATOM     32  C   UNL     1       0.200  -1.640  -0.265  0.00  0.00    +0.006 C 
ATOM     33  C   UNL     1       1.205  -2.380   0.134  0.00  0.00    +0.007 C 
ENDBRANCH  31  32
ENDBRANCH  30  31
ENDBRANCH  28  30
ENDBRANCH   3  28
TORSDOF 8
