REMARK  Name = ZINC46055600
REMARK  7 active torsions:
REMARK  status: ('A' for Active; 'I' for Inactive)
REMARK    1  A    between atoms: C_8  and  C_18
REMARK    2  A    between atoms: N_9  and  C_10
REMARK    3  A    between atoms: C_10  and  C_11
REMARK    4  A    between atoms: C_18  and  N_19
REMARK    5  A    between atoms: C_22  and  C_25
REMARK    6  A    between atoms: N_27  and  C_28
REMARK    7  A    between atoms: C_28  and  C_29
REMARK                            x       y       z     vdW  Elec       q    Type
REMARK                         _______ _______ _______ _____ _____    ______ ____
ROOT
ATOM      1  C   UNL     1       3.768  -3.404  -0.053  0.00  0.00    -0.024 C 
ENDROOT
BRANCH   1   9
ATOM      2  C   UNL     1      -0.017   1.362   0.009  0.00  0.00    +0.001 A 
ATOM      3  C   UNL     1       1.170   2.083   0.002  0.00  0.00    +0.002 A 
ATOM      4  C   UNL     1       2.386   1.436  -0.013  0.00  0.00    +0.026 A 
ATOM      5  C   UNL     1       2.428   0.046  -0.021  0.00  0.00    +0.049 A 
ATOM      6  C   UNL     1       1.223  -0.681  -0.013  0.00  0.00    +0.000 A 
ATOM      7  C   UNL     1       0.002  -0.004   0.002  0.00  0.00    +0.010 A 
ATOM      8  C   UNL     1       1.604  -2.095  -0.025  0.00  0.00    +0.029 A 
ATOM      9  C   UNL     1       2.945  -2.141  -0.038  0.00  0.00    +0.004 A 
ATOM     10  N   UNL     1       3.455  -0.871  -0.036  0.00  0.00    -0.341 N 
BRANCH  10  11
ATOM     11  C   UNL     1       4.881  -0.537  -0.048  0.00  0.00    +0.157 C 
BRANCH  11  12
ATOM     12  C   UNL     1       5.384  -0.431   1.369  0.00  0.00    -0.026 A 
ATOM     13  C   UNL     1       5.337   0.782   2.030  0.00  0.00    +0.005 A 
ATOM     14  C   UNL     1       5.798   0.880   3.329  0.00  0.00    +0.002 A 
ATOM     15  C   UNL     1       6.307  -0.235   3.968  0.00  0.00    +0.020 A 
ATOM     16  C   UNL     1       6.355  -1.449   3.307  0.00  0.00    +0.041 A 
ATOM     17  C   UNL     1       5.888  -1.548   2.008  0.00  0.00    +0.025 A 
ATOM     18 CL   UNL     1       6.995  -2.850   4.109  0.00  0.00    -0.084 Cl
ENDBRANCH  11  12
ENDBRANCH  10  11
ENDBRANCH   1   9
BRANCH   1  19
ATOM     19  N   UNL     1       4.123  -3.740  -1.438  0.00  0.00    +0.383 N 
ATOM     20  C   UNL     1       2.903  -4.052  -2.193  0.00  0.00    -0.078 C 
ATOM     21  C   UNL     1       3.259  -4.324  -3.656  0.00  0.00    -0.006 C 
ATOM     22  C   UNL     1       4.224  -5.511  -3.729  0.00  0.00    +0.071 C 
ATOM     23  C   UNL     1       5.460  -5.205  -2.878  0.00  0.00    -0.006 C 
ATOM     24  C   UNL     1       5.022  -4.900  -1.444  0.00  0.00    -0.078 C 
ATOM     25  H   UNL     1       4.588  -2.953  -1.866  0.00  0.00    -0.081 HD
BRANCH  22  26
ATOM     26  C   UNL     1       4.640  -5.735  -5.160  0.00  0.00    +0.216 C 
ATOM     27  O   UNL     1       4.209  -5.017  -6.037  0.00  0.00    -0.276 OA
ATOM     28  N   UNL     1       5.492  -6.734  -5.465  0.00  0.00    -0.308 N 
ATOM     29  H   UNL     1       5.837  -7.308  -4.764  0.00  0.00    +0.149 HD
BRANCH  28  30
ATOM     30  C   UNL     1       5.897  -6.952  -6.856  0.00  0.00    +0.178 C 
BRANCH  30  31
ATOM     31  C   UNL     1       6.846  -8.120  -6.926  0.00  0.00    +0.122 A 
ATOM     32  C   UNL     1       6.498  -9.406  -7.107  0.00  0.00    +0.046 A 
ATOM     33  C   UNL     1       7.695 -10.159  -7.109  0.00  0.00    +0.041 A 
ATOM     34  C   UNL     1       8.703  -9.286  -6.928  0.00  0.00    +0.195 A 
ATOM     35  O   UNL     1       8.184  -8.052  -6.824  0.00  0.00    -0.466 OA
ENDBRANCH  30  31
ENDBRANCH  28  30
ENDBRANCH  22  26
ENDBRANCH   1  19
TORSDOF 7
