REMARK  Name = ZINC08299803
REMARK  6 active torsions:
REMARK  status: ('A' for Active; 'I' for Inactive)
REMARK    1  A    between atoms: C_1  and  C_2
REMARK    2  A    between atoms: C_2  and  C_4
REMARK    3  A    between atoms: N_6  and  C_9
REMARK    4  A    between atoms: C_9  and  C_10
REMARK    5  A    between atoms: C_18  and  C_20
REMARK    6  A    between atoms: N_22  and  C_23
REMARK                            x       y       z     vdW  Elec       q    Type
REMARK                         _______ _______ _______ _____ _____    ______ ____
ROOT
ATOM      1  C   UNL     1      -0.753   1.593  -1.232  0.00  0.00    -0.046 C 
ATOM      2  C   UNL     1       0.030   1.203  -2.489  0.00  0.00    -0.010 C 
ATOM      3  C   UNL     1      -0.858   0.315  -3.369  0.00  0.00    -0.004 C 
ATOM      4  C   UNL     1      -2.129   1.087  -3.747  0.00  0.00    -0.015 C 
ATOM      5  C   UNL     1      -2.851   1.489  -2.438  0.00  0.00    -0.078 C 
ATOM      6  C   UNL     1      -2.008  -0.478  -1.305  0.00  0.00    -0.065 C 
ATOM      7  C   UNL     1      -1.261  -0.926  -2.564  0.00  0.00    +0.061 C 
ATOM      8  N   UNL     1      -2.106   0.997  -1.260  0.00  0.00    +0.383 N 
ATOM      9  H   UNL     1      -2.609   1.272  -0.409  0.00  0.00    -0.081 HD
ENDROOT
BRANCH   7  10
ATOM     10  C   UNL     1      -0.026  -1.696  -2.171  0.00  0.00    +0.215 C 
ATOM     11  O   UNL     1       1.069  -1.300  -2.510  0.00  0.00    -0.276 OA
ATOM     12  N   UNL     1      -0.139  -2.824  -1.441  0.00  0.00    -0.312 N 
ATOM     13  H   UNL     1      -1.014  -3.140  -1.169  0.00  0.00    +0.149 HD
BRANCH  12  14
ATOM     14  C   UNL     1       1.062  -3.571  -1.059  0.00  0.00    +0.073 C 
ATOM     15  C   UNL     1       1.455  -4.519  -2.194  0.00  0.00    +0.022 C 
ATOM     16  C   UNL     1       2.709  -5.300  -1.795  0.00  0.00    +0.002 C 
ATOM     17  C   UNL     1       2.423  -6.111  -0.529  0.00  0.00    +0.000 C 
ATOM     18  C   UNL     1       2.030  -5.163   0.606  0.00  0.00    +0.002 C 
ATOM     19  C   UNL     1       0.776  -4.382   0.206  0.00  0.00    +0.022 C 
ENDBRANCH  12  14
ENDBRANCH   7  10
BRANCH   1  20
ATOM     20  C   UNL     1      -0.013   1.086   0.008  0.00  0.00    +0.130 C 
BRANCH  20  23
ATOM     21  C   UNL     1      -1.727   1.657   3.141  0.00  0.00    +0.147 A 
ATOM     22  C   UNL     1      -1.159   0.796   2.224  0.00  0.00    +0.141 A 
ATOM     23  N   UNL     1      -0.698   1.558   1.213  0.00  0.00    -0.253 N 
ATOM     24  N   UNL     1      -1.005   2.888   1.531  0.00  0.00    -0.065 NA
ATOM     25  N   UNL     1      -1.608   2.912   2.668  0.00  0.00    -0.127 NA
BRANCH  21  27
ATOM     26  C   UNL     1      -2.943   2.326   5.311  0.00  0.00    +0.093 C 
ATOM     27  C   UNL     1      -2.357   1.271   4.409  0.00  0.00    +0.181 C 
ATOM     28  O   UNL     1      -2.405   0.103   4.731  0.00  0.00    -0.291 OA
ENDBRANCH  21  27
ENDBRANCH  20  23
ENDBRANCH   1  20
TORSDOF 5
