REMARK  Name = ZINC35723653
REMARK  7 active torsions:
REMARK  status: ('A' for Active; 'I' for Inactive)
REMARK    1  A    between atoms: C_1  and  N_2
REMARK    2  A    between atoms: N_2  and  C_3
REMARK    3  A    between atoms: N_6  and  C_7
REMARK    4  A    between atoms: C_7  and  C_9
REMARK    5  A    between atoms: C_7  and  C_16
REMARK    6  A    between atoms: C_9  and  C_10
REMARK    7  A    between atoms: C_22  and  C_24
REMARK                            x       y       z     vdW  Elec       q    Type
REMARK                         _______ _______ _______ _____ _____    ______ ____
ROOT
ATOM      1  C   UNL     1      -3.179  -2.444   1.250  0.00  0.00    +0.239 C 
ATOM      2  O   UNL     1      -2.938  -1.421   1.853  0.00  0.00    -0.273 OA
ATOM      3  N   UNL     1      -4.149  -3.272   1.688  0.00  0.00    -0.262 N 
ATOM      4  C   UNL     1      -4.871  -2.952   2.831  0.00  0.00    +0.188 A 
ATOM      5  N   UNL     1      -4.779  -1.897   3.631  0.00  0.00    -0.125 NA
ATOM      6  N   UNL     1      -5.521  -1.760   4.641  0.00  0.00    -0.140 NA
ATOM      7  C   UNL     1      -6.439  -2.662   4.965  0.00  0.00    +0.134 A 
ATOM      8  S   UNL     1      -6.197  -3.843   3.641  0.00  0.00    -0.030 S 
ATOM      9  H   UNL     1      -4.342  -4.091   1.205  0.00  0.00    +0.157 HD
ENDROOT
BRANCH   7  10
ATOM     10  C   UNL     1      -7.394  -2.683   6.093  0.00  0.00    +0.009 A 
ATOM     11  C   UNL     1      -8.278  -3.753   6.243  0.00  0.00    +0.012 A 
ATOM     12  C   UNL     1      -9.166  -3.767   7.298  0.00  0.00    +0.020 A 
ATOM     13  C   UNL     1      -9.183  -2.723   8.207  0.00  0.00    +0.041 A 
ATOM     14  C   UNL     1      -8.308  -1.659   8.064  0.00  0.00    +0.020 A 
ATOM     15  C   UNL     1      -7.411  -1.636   7.016  0.00  0.00    +0.012 A 
ATOM     16 CL   UNL     1     -10.304  -2.747   9.532  0.00  0.00    -0.084 Cl
ENDBRANCH   7  10
BRANCH   1  17
ATOM     17  C   UNL     1      -2.396  -2.791   0.010  0.00  0.00    +0.165 C 
BRANCH  17  23
ATOM     18  C   UNL     1      -0.018   1.461   0.010  0.00  0.00    +0.133 C 
ATOM     19  N   UNL     1       0.002  -0.004   0.002  0.00  0.00    -0.292 N 
ATOM     20  C   UNL     1       1.281  -0.719  -0.014  0.00  0.00    +0.133 C 
ATOM     21  C   UNL     1      -1.156  -0.694   0.009  0.00  0.00    +0.302 C 
ATOM     22  O   UNL     1      -2.217  -0.100   0.023  0.00  0.00    -0.253 OA
ATOM     23  N   UNL     1      -1.137  -2.041   0.002  0.00  0.00    -0.288 N 
ATOM     24  H   UNL     1      -0.291  -2.515  -0.009  0.00  0.00    +0.151 HD
ENDBRANCH  17  23
BRANCH  17  25
ATOM     25  C   UNL     1      -3.215  -2.426  -1.230  0.00  0.00    +0.067 C 
BRANCH  25  26
ATOM     26  C   UNL     1      -2.486  -2.884  -2.466  0.00  0.00    -0.045 A 
ATOM     27  C   UNL     1      -1.586  -2.040  -3.090  0.00  0.00    +0.004 A 
ATOM     28  C   UNL     1      -0.917  -2.461  -4.225  0.00  0.00    +0.000 A 
ATOM     29  C   UNL     1      -1.149  -3.724  -4.735  0.00  0.00    +0.000 A 
ATOM     30  C   UNL     1      -2.048  -4.568  -4.111  0.00  0.00    +0.000 A 
ATOM     31  C   UNL     1      -2.713  -4.149  -2.974  0.00  0.00    +0.004 A 
ENDBRANCH  25  26
ENDBRANCH  17  25
ENDBRANCH   1  17
TORSDOF 5
