REMARK  Name = ZINC20731366
REMARK  4 active torsions:
REMARK  status: ('A' for Active; 'I' for Inactive)
REMARK    1  A    between atoms: C_2  and  C_3
REMARK    2  A    between atoms: C_3  and  N_4
REMARK    3  A    between atoms: C_15  and  O_29
REMARK    4  A    between atoms: N_21  and  C_22
REMARK                            x       y       z     vdW  Elec       q    Type
REMARK                         _______ _______ _______ _____ _____    ______ ____
ROOT
ATOM      1  N   UNL     1       1.367  -1.676   1.111  0.00  0.00    -0.266 N 
ATOM      2  C   UNL     1       1.854  -1.352   2.366  0.00  0.00    +0.041 A 
ATOM      3  C   UNL     1       2.379  -0.144   2.828  0.00  0.00    +0.024 A 
ATOM      4  C   UNL     1       2.798  -0.098   4.148  0.00  0.00    +0.002 A 
ATOM      5  C   UNL     1       2.705  -1.193   4.983  0.00  0.00    +0.000 A 
ATOM      6  C   UNL     1       2.184  -2.402   4.535  0.00  0.00    +0.007 A 
ATOM      7  C   UNL     1       1.766  -2.456   3.223  0.00  0.00    -0.006 A 
ATOM      8  C   UNL     1       1.169  -3.563   2.415  0.00  0.00    +0.112 C 
ATOM      9  C   UNL     1       0.939  -2.954   1.050  0.00  0.00    +0.236 C 
ATOM     10  O   UNL     1       0.463  -3.510   0.083  0.00  0.00    -0.274 OA
ATOM     11  C   UNL     1      -0.157  -4.034   3.011  0.00  0.00    +0.121 C 
ATOM     12  C   UNL     1       0.061  -5.003   4.137  0.00  0.00    +0.191 C 
ATOM     13  N   UNL     1       1.060  -5.832   4.189  0.00  0.00    -0.197 NA
ATOM     14  C   UNL     1       2.003  -5.808   3.204  0.00  0.00    +0.164 A 
ATOM     15  C   UNL     1       2.101  -4.738   2.321  0.00  0.00    +0.036 A 
ATOM     16  C   UNL     1       3.141  -5.002   1.450  0.00  0.00    +0.142 A 
ATOM     17  N   UNL     1       3.672  -6.159   1.773  0.00  0.00    -0.172 NA
ATOM     18  N   UNL     1       2.982  -6.682   2.879  0.00  0.00    -0.213 N 
ENDROOT
BRANCH  18  19
ATOM     19  C   UNL     1       3.259  -7.893   3.528  0.00  0.00    +0.086 A 
ATOM     20  C   UNL     1       2.488  -8.294   4.611  0.00  0.00    +0.029 A 
ATOM     21  C   UNL     1       2.762  -9.488   5.248  0.00  0.00    +0.002 A 
ATOM     22  C   UNL     1       3.804 -10.285   4.809  0.00  0.00    +0.002 A 
ATOM     23  C   UNL     1       4.574  -9.889   3.731  0.00  0.00    +0.022 A 
ATOM     24  C   UNL     1       4.301  -8.698   3.085  0.00  0.00    +0.066 A 
ATOM     25 CL   UNL     1       5.263  -8.206   1.726  0.00  0.00    -0.081 Cl
ENDBRANCH  18  19
BRANCH  12  26
ATOM     26  O   UNL     1      -0.829  -5.014   5.151  0.00  0.00    -0.495 OA
ATOM     27  H   UNL     1      -0.631  -5.660   5.842  0.00  0.00    +0.293 HD
ENDBRANCH  12  26
BRANCH   1  28
ATOM     28  C   UNL     1       1.317  -0.740  -0.015  0.00  0.00    +0.140 C 
BRANCH  28  30
ATOM     29  C   UNL     1      -0.016   1.306   0.009  0.00  0.00    +0.005 C 
ATOM     30  C   UNL     1       0.002  -0.004   0.002  0.00  0.00    -0.015 C 
ENDBRANCH  28  30
ENDBRANCH   1  28
TORSDOF 4
