REMARK  Name = ZINC39000046
REMARK  9 active torsions:
REMARK  status: ('A' for Active; 'I' for Inactive)
REMARK    1  A    between atoms: C_1  and  O_2
REMARK    2  A    between atoms: O_2  and  C_3
REMARK    3  A    between atoms: C_5  and  O_26
REMARK    4  A    between atoms: C_6  and  C_11
REMARK    5  A    between atoms: C_7  and  O_9
REMARK    6  A    between atoms: O_9  and  C_10
REMARK    7  A    between atoms: N_12  and  N_13
REMARK    8  A    between atoms: C_14  and  C_20
REMARK    9  A    between atoms: O_26  and  C_27
REMARK                            x       y       z     vdW  Elec       q    Type
REMARK                         _______ _______ _______ _____ _____    ______ ____
ROOT
ATOM      1  C   UNL     1       2.479  -2.493  -4.370  0.00  0.00    +0.145 C 
ATOM      2  N   UNL     1       2.540  -3.790  -4.432  0.00  0.00    -0.183 NA
ENDROOT
BRANCH   2   3
ATOM      3  N   UNL     1       3.068  -4.412  -5.571  0.00  0.00    -0.171 N 
ATOM      4  C   UNL     1       3.105  -5.855  -5.875  0.00  0.00    +0.280 C 
ATOM      5  N   UNL     1       3.766  -5.920  -7.188  0.00  0.00    -0.188 NA
ATOM      6  N   UNL     1       4.037  -4.769  -7.539  0.00  0.00    -0.219 N 
ATOM      7  C   UNL     1       3.651  -3.825  -6.639  0.00  0.00    +0.174 C 
ATOM      8  S   UNL     1       3.876  -2.139  -6.829  0.00  0.00    -0.015 S 
ATOM      9  H   UNL     1       4.479  -4.558  -8.376  0.00  0.00    +0.176 HD
BRANCH   4  10
ATOM     10  C   UNL     1       3.910  -6.594  -4.838  0.00  0.00    +0.062 A 
ATOM     11  C   UNL     1       3.953  -6.119  -3.540  0.00  0.00    +0.025 A 
ATOM     12  C   UNL     1       4.696  -6.806  -2.593  0.00  0.00    +0.003 A 
ATOM     13  C   UNL     1       5.371  -7.951  -2.988  0.00  0.00    +0.017 A 
ATOM     14  C   UNL     1       5.281  -8.366  -4.303  0.00  0.00    +0.083 A 
ATOM     15  N   UNL     1       4.560  -7.690  -5.176  0.00  0.00    -0.361 N 
ATOM     16  H   UNL     1       4.511  -8.005  -6.092  0.00  0.00    +0.165 HD
ENDBRANCH   4  10
ENDBRANCH   2   3
BRANCH   1  20
ATOM     17  C   UNL     1       0.585  -0.611  -1.062  0.00  0.00    +0.127 A 
ATOM     18  C   UNL     1       1.137   0.163  -2.074  0.00  0.00    +0.092 A 
ATOM     19  C   UNL     1       1.755  -0.443  -3.154  0.00  0.00    +0.136 A 
ATOM     20  C   UNL     1       1.824  -1.842  -3.225  0.00  0.00    +0.078 A 
ATOM     21  C   UNL     1       1.264  -2.617  -2.198  0.00  0.00    +0.136 A 
ATOM     22  C   UNL     1       0.654  -1.997  -1.123  0.00  0.00    +0.092 A 
BRANCH  17  24
ATOM     23  C   UNL     1      -0.056   1.419  -0.005  0.00  0.00    +0.277 C 
ATOM     24  O   UNL     1      -0.020  -0.010  -0.005  0.00  0.00    -0.495 OA
ENDBRANCH  17  24
BRANCH  21  25
ATOM     25  O   UNL     1       1.325  -3.972  -2.258  0.00  0.00    -0.494 OA
ATOM     26  C   UNL     1       0.734  -4.696  -1.178  0.00  0.00    +0.277 C 
ENDBRANCH  21  25
BRANCH  19  27
ATOM     27  O   UNL     1       2.294   0.316  -4.143  0.00  0.00    -0.494 OA
ATOM     28  C   UNL     1       2.187   1.734  -4.004  0.00  0.00    +0.277 C 
ENDBRANCH  19  27
ENDBRANCH   1  20
TORSDOF 6
