REMARK  Name = ZINC38383485
REMARK  5 active torsions:
REMARK  status: ('A' for Active; 'I' for Inactive)
REMARK    1  A    between atoms: C_1  and  C_2
REMARK    2  A    between atoms: C_2  and  C_3
REMARK    3  A    between atoms: C_3  and  C_23
REMARK    4  A    between atoms: N_6  and  C_10
REMARK    5  A    between atoms: C_10  and  N_11
REMARK                            x       y       z     vdW  Elec       q    Type
REMARK                         _______ _______ _______ _____ _____    ______ ____
ROOT
ATOM      1  C   UNL     1       0.720  -0.468  -1.254  0.00  0.00    +0.138 C 
ATOM      2  C   UNL     1       2.153   0.024  -1.288  0.00  0.00    +0.252 C 
ATOM      3  O   UNL     1       3.032  -0.223  -0.490  0.00  0.00    -0.272 OA
ATOM      4  N   UNL     1       2.247   0.794  -2.391  0.00  0.00    -0.210 N 
ATOM      5  C   UNL     1       1.085   0.855  -3.050  0.00  0.00    +0.311 C 
ATOM      6  O   UNL     1       0.923   1.488  -4.075  0.00  0.00    -0.252 OA
ATOM      7  N   UNL     1       0.116   0.138  -2.453  0.00  0.00    -0.281 N 
ATOM      8  H   UNL     1      -0.801   0.039  -2.754  0.00  0.00    +0.152 HD
ENDROOT
BRANCH   1   9
ATOM      9  C   UNL     1       0.670  -1.972  -1.337  0.00  0.00    -0.015 A 
ATOM     10  C   UNL     1       0.633  -2.727  -0.180  0.00  0.00    +0.006 A 
ATOM     11  C   UNL     1       0.587  -4.107  -0.257  0.00  0.00    +0.000 A 
ATOM     12  C   UNL     1       0.578  -4.731  -1.491  0.00  0.00    +0.000 A 
ATOM     13  C   UNL     1       0.614  -3.975  -2.648  0.00  0.00    +0.000 A 
ATOM     14  C   UNL     1       0.656  -2.595  -2.571  0.00  0.00    +0.006 A 
ENDBRANCH   1   9
BRANCH   1  16
ATOM     15  C   UNL     1       0.015   1.553   0.036  0.00  0.00    +0.007 C 
ATOM     16  C   UNL     1       0.012   0.023   0.011  0.00  0.00    +0.037 C 
ENDBRANCH   1  16
BRANCH   4  17
ATOM     17  C   UNL     1       3.471   1.479  -2.814  0.00  0.00    +0.205 C 
BRANCH  17  18
ATOM     18  N   UNL     1       4.245   0.597  -3.699  0.00  0.00    -0.283 NA
ATOM     19  C   UNL     1       3.713   0.629  -5.068  0.00  0.00    +0.105 C 
ATOM     20  C   UNL     1       4.426  -0.432  -5.913  0.00  0.00    +0.122 C 
ATOM     21  N   UNL     1       5.877  -0.220  -5.804  0.00  0.00    -0.314 N 
ATOM     22  C   UNL     1       6.464  -0.103  -4.461  0.00  0.00    +0.122 C 
ATOM     23  C   UNL     1       5.671   0.945  -3.673  0.00  0.00    +0.105 C 
ATOM     24  C   UNL     1       6.673  -0.131  -6.941  0.00  0.00    +0.099 A 
ATOM     25  C   UNL     1       8.021   0.190  -6.815  0.00  0.00    +0.042 A 
ATOM     26  C   UNL     1       8.800   0.275  -7.954  0.00  0.00    +0.005 A 
ATOM     27  C   UNL     1       8.204   0.035  -9.185  0.00  0.00    +0.018 A 
ATOM     28  C   UNL     1       6.861  -0.279  -9.236  0.00  0.00    +0.084 A 
ATOM     29  N   UNL     1       6.142  -0.358  -8.132  0.00  0.00    -0.350 N 
ATOM     30  H   UNL     1       5.201  -0.585  -8.196  0.00  0.00    +0.166 HD
ENDBRANCH  17  18
ENDBRANCH   4  17
TORSDOF 4
