REMARK  Name = ZINC35686635
REMARK  6 active torsions:
REMARK  status: ('A' for Active; 'I' for Inactive)
REMARK    1  A    between atoms: C_4  and  C_7
REMARK    2  A    between atoms: C_7  and  C_8
REMARK    3  A    between atoms: C_8  and  C_10
REMARK    4  A    between atoms: C_8  and  N_22
REMARK    5  A    between atoms: N_12  and  C_13
REMARK    6  A    between atoms: N_25  and  C_26
REMARK                            x       y       z     vdW  Elec       q    Type
REMARK                         _______ _______ _______ _____ _____    ______ ____
ROOT
ATOM      1  C   UNL     1       4.027  -1.393   1.310  0.00  0.00    +0.165 C 
ENDROOT
BRANCH   1   2
ATOM      2  N   UNL     1       4.477  -0.167   1.973  0.00  0.00    -0.288 N 
ATOM      3  C   UNL     1       3.580   0.649   2.562  0.00  0.00    +0.304 C 
ATOM      4  O   UNL     1       2.398   0.367   2.544  0.00  0.00    -0.252 OA
ATOM      5  N   UNL     1       3.994   1.777   3.172  0.00  0.00    -0.269 N 
ATOM      6  H   UNL     1       5.420   0.058   1.988  0.00  0.00    +0.151 HD
ATOM      7  H   UNL     1       4.926   2.044   3.118  0.00  0.00    +0.156 HD
BRANCH   5   8
ATOM      8  C   UNL     1       3.081   2.565   3.882  0.00  0.00    +0.035 A 
ATOM      9  C   UNL     1       3.212   3.947   3.889  0.00  0.00    +0.024 A 
ATOM     10  C   UNL     1       2.309   4.722   4.591  0.00  0.00    +0.017 A 
ATOM     11  C   UNL     1       1.275   4.121   5.287  0.00  0.00    +0.018 A 
ATOM     12  C   UNL     1       1.142   2.744   5.281  0.00  0.00    +0.017 A 
ATOM     13  C   UNL     1       2.038   1.965   4.577  0.00  0.00    +0.024 A 
ATOM     14 BR   UNL     1       0.041   5.185   6.247  0.00  0.00    -0.050 Br
ENDBRANCH   5   8
ENDBRANCH   1   2
BRANCH   1  15
ATOM     15  C   UNL     1       5.154  -2.393   1.285  0.00  0.00    +0.234 C 
ATOM     16  O   UNL     1       6.228  -2.109   1.772  0.00  0.00    -0.274 OA
ATOM     17  N   UNL     1       4.969  -3.603   0.720  0.00  0.00    -0.302 N 
ATOM     18  H   UNL     1       4.111  -3.830   0.331  0.00  0.00    +0.150 HD
BRANCH  17  19
ATOM     19  C   UNL     1       6.065  -4.575   0.695  0.00  0.00    +0.159 C 
ATOM     20  C   UNL     1       5.785  -5.639  -0.368  0.00  0.00    +0.032 C 
ATOM     21  C   UNL     1       4.298  -5.931  -0.458  0.00  0.00    +0.004 C 
ATOM     22  C   UNL     1       3.728  -6.596   0.782  0.00  0.00    +0.019 C 
ATOM     23  C   UNL     1       3.766  -5.643   1.978  0.00  0.00    +0.104 C 
ATOM     24  N   UNL     1       5.081  -5.757   2.629  0.00  0.00    -0.314 N 
ATOM     25  C   UNL     1       6.173  -5.255   2.044  0.00  0.00    +0.233 C 
ATOM     26  O   UNL     1       7.253  -5.347   2.589  0.00  0.00    -0.274 OA
ATOM     27  H   UNL     1       5.156  -6.197   3.490  0.00  0.00    +0.149 HD
ENDBRANCH  17  19
ENDBRANCH   1  15
BRANCH   1  28
ATOM     28  C   UNL     1       3.598  -1.071  -0.122  0.00  0.00    +0.067 C 
BRANCH  28  32
ATOM     29  C   UNL     1       0.181   1.490  -0.047  0.00  0.00    +0.000 A 
ATOM     30  C   UNL     1       1.452   2.034  -0.057  0.00  0.00    +0.000 A 
ATOM     31  C   UNL     1       2.558   1.205  -0.082  0.00  0.00    +0.004 A 
ATOM     32  C   UNL     1       2.393  -0.168  -0.095  0.00  0.00    -0.045 A 
ATOM     33  C   UNL     1       1.121  -0.711  -0.083  0.00  0.00    +0.004 A 
ATOM     34  C   UNL     1       0.015   0.118  -0.060  0.00  0.00    +0.000 A 
ENDBRANCH  28  32
ENDBRANCH   1  28
TORSDOF 6
