REMARK  Name = ZINC22292988
REMARK  7 active torsions:
REMARK  status: ('A' for Active; 'I' for Inactive)
REMARK    1  A    between atoms: C_1  and  C_2
REMARK    2  A    between atoms: C_5  and  C_30
REMARK    3  A    between atoms: N_8  and  C_10
REMARK    4  A    between atoms: C_10  and  C_11
REMARK    5  A    between atoms: N_16  and  C_17
REMARK    6  A    between atoms: C_17  and  C_19
REMARK    7  A    between atoms: C_19  and  C_20
REMARK                            x       y       z     vdW  Elec       q    Type
REMARK                         _______ _______ _______ _____ _____    ______ ____
ROOT
ATOM      1  C   UNL     1       2.971  -2.034   2.241  0.00  0.00    +0.008 A 
ATOM      2  C   UNL     1       3.536  -1.180   3.102  0.00  0.00    +0.067 A 
ATOM      3  S   UNL     1       5.192  -1.045   2.455  0.00  0.00    -0.061 S 
ATOM      4  C   UNL     1       5.038  -2.085   1.143  0.00  0.00    +0.163 A 
ATOM      5  N   UNL     1       3.749  -2.507   1.231  0.00  0.00    -0.341 N 
ATOM      6  N   UNL     1       5.960  -2.418   0.236  0.00  0.00    -0.156 NA
ATOM      7  H   UNL     1       3.389  -3.132   0.583  0.00  0.00    +0.167 HD
ENDROOT
BRANCH   6   8
ATOM      8  C   UNL     1       7.181  -1.904   0.312  0.00  0.00    +0.243 C 
ATOM      9  O   UNL     1       7.461  -1.130   1.208  0.00  0.00    -0.273 OA
BRANCH   8  10
ATOM     10  C   UNL     1       8.221  -2.280  -0.711  0.00  0.00    +0.133 C 
BRANCH  10  11
ATOM     11  C   UNL     1       9.512  -1.566  -0.402  0.00  0.00    -0.035 A 
ATOM     12  C   UNL     1       9.756  -0.318  -0.943  0.00  0.00    +0.008 A 
ATOM     13  C   UNL     1      10.939   0.340  -0.662  0.00  0.00    +0.050 A 
ATOM     14  C   UNL     1      11.884  -0.252   0.164  0.00  0.00    +0.162 A 
ATOM     15  C   UNL     1      11.637  -1.506   0.709  0.00  0.00    +0.162 A 
ATOM     16  C   UNL     1      10.446  -2.158   0.427  0.00  0.00    +0.053 A 
ATOM     17  O   UNL     1      12.547  -2.100   1.528  0.00  0.00    -0.485 OA
ATOM     18  C   UNL     1      13.880  -1.581   1.494  0.00  0.00    +0.270 C 
ATOM     19  C   UNL     1      13.801  -0.049   1.555  0.00  0.00    +0.270 C 
ATOM     20  O   UNL     1      13.046   0.406   0.428  0.00  0.00    -0.485 OA
ENDBRANCH  10  11
ENDBRANCH   8  10
ENDBRANCH   6   8
BRANCH   1  21
ATOM     21  C   UNL     1       1.534  -2.461   2.390  0.00  0.00    -0.024 C 
BRANCH  21  27
ATOM     22  C   UNL     1      -0.019   1.526   0.010  0.00  0.00    +0.005 C 
ATOM     23  C   UNL     1       0.002  -0.004   0.002  0.00  0.00    -0.031 C 
ATOM     24  C   UNL     1      -1.434  -0.535   0.015  0.00  0.00    +0.003 C 
ATOM     25  C   UNL     1      -1.402  -2.064   0.086  0.00  0.00    -0.031 C 
ATOM     26  C   UNL     1      -0.613  -2.496   1.324  0.00  0.00    -0.075 C 
ATOM     27  N   UNL     1       0.758  -1.980   1.239  0.00  0.00    +0.384 N 
ATOM     28  C   UNL     1       0.740  -0.512   1.242  0.00  0.00    -0.075 C 
ATOM     29  C   UNL     1      -0.728  -2.620  -1.170  0.00  0.00    +0.005 C 
ATOM     30  H   UNL     1       1.188  -2.307   0.386  0.00  0.00    -0.081 HD
ENDBRANCH  21  27
ENDBRANCH   1  21
TORSDOF 5
