REMARK  Name = ZINC02124946
REMARK  8 active torsions:
REMARK  status: ('A' for Active; 'I' for Inactive)
REMARK    1  A    between atoms: C_1  and  C_2
REMARK    2  A    between atoms: C_6  and  O_28
REMARK    3  A    between atoms: C_12  and  C_13
REMARK    4  A    between atoms: C_13  and  C_14
REMARK    5  A    between atoms: N_16  and  C_17
REMARK    6  A    between atoms: C_17  and  C_18
REMARK    7  A    between atoms: C_22  and  C_26
REMARK    8  A    between atoms: O_28  and  C_29
REMARK                            x       y       z     vdW  Elec       q    Type
REMARK                         _______ _______ _______ _____ _____    ______ ____
ROOT
ATOM      1  C   UNL     1       3.182  10.903  -5.036  0.00  0.00    +0.045 C 
ATOM      2  C   UNL     1       2.023  11.676  -4.463  0.00  0.00    -0.029 A 
ATOM      3  C   UNL     1       2.036  13.140  -4.435  0.00  0.00    +0.022 A 
ATOM      4  C   UNL     1       3.125  13.861  -4.939  0.00  0.00    +0.035 A 
ATOM      5  C   UNL     1       3.112  15.226  -4.901  0.00  0.00    +0.083 A 
ATOM      6  C   UNL     1       2.020  15.906  -4.362  0.00  0.00    +0.142 A 
ATOM      7  C   UNL     1       0.934  15.208  -3.860  0.00  0.00    +0.094 A 
ATOM      8  C   UNL     1       0.931  13.822  -3.892  0.00  0.00    +0.143 A 
ATOM      9  O   UNL     1      -0.118  13.123  -3.407  0.00  0.00    -0.422 OA
ATOM     10  C   UNL     1      -0.138  11.781  -3.435  0.00  0.00    +0.341 A 
ATOM     11  O   UNL     1      -1.109  11.193  -2.992  0.00  0.00    -0.245 OA
ATOM     12  C   UNL     1       0.937  11.034  -3.960  0.00  0.00    +0.049 A 
ATOM     13 CL   UNL     1       4.463  16.120  -5.525  0.00  0.00    -0.080 Cl
ENDROOT
BRANCH   6  14
ATOM     14  O   UNL     1       2.021  17.263  -4.331  0.00  0.00    -0.494 OA
ATOM     15  C   UNL     1       0.872  17.900  -3.768  0.00  0.00    +0.277 C 
ENDBRANCH   6  14
BRANCH  12  16
ATOM     16  C   UNL     1       0.878   9.529  -3.967  0.00  0.00    +0.138 C 
BRANCH  16  17
ATOM     17  C   UNL     1       1.471   8.996  -2.688  0.00  0.00    +0.218 C 
ATOM     18  O   UNL     1       1.899   9.764  -1.853  0.00  0.00    -0.275 OA
ATOM     19  N   UNL     1       1.526   7.667  -2.473  0.00  0.00    -0.315 N 
ATOM     20  H   UNL     1       1.183   7.053  -3.141  0.00  0.00    +0.149 HD
BRANCH  19  21
ATOM     21  C   UNL     1       2.102   7.150  -1.229  0.00  0.00    +0.107 C 
BRANCH  21  22
ATOM     22  C   UNL     1       2.043   5.621  -1.237  0.00  0.00    +0.006 C 
ATOM     23  C   UNL     1       2.755   5.077   0.003  0.00  0.00    +0.006 C 
ATOM     24  C   UNL     1       2.696   3.548  -0.005  0.00  0.00    +0.015 C 
ATOM     25  C   UNL     1       1.235   3.094   0.007  0.00  0.00    +0.102 C 
ATOM     26  C   UNL     1       0.522   3.639  -1.233  0.00  0.00    +0.015 C 
ATOM     27  C   UNL     1       0.582   5.167  -1.225  0.00  0.00    +0.006 C 
BRANCH  25  28
ATOM     28  C   UNL     1       1.177   1.588  -0.001  0.00  0.00    +0.359 C 
ATOM     29  O   UNL     1       2.199   0.944  -0.014  0.00  0.00    -0.246 OA
ATOM     30  O   UNL     1      -0.011   0.963   0.007  0.00  0.00    -0.246 OA
ENDBRANCH  25  28
ENDBRANCH  21  22
ENDBRANCH  19  21
ENDBRANCH  16  17
ENDBRANCH  12  16
TORSDOF 6
