REMARK  Name = ZINC42958404
REMARK  6 active torsions:
REMARK  status: ('A' for Active; 'I' for Inactive)
REMARK    1  A    between atoms: C_1  and  C_2
REMARK    2  A    between atoms: C_2  and  C_4
REMARK    3  A    between atoms: C_2  and  N_21
REMARK    4  A    between atoms: C_4  and  C_6
REMARK    5  A    between atoms: C_4  and  O_13
REMARK    6  A    between atoms: O_13  and  C_14
REMARK                            x       y       z     vdW  Elec       q    Type
REMARK                         _______ _______ _______ _____ _____    ______ ____
ROOT
ATOM      1  C   UNL     1       0.742  -0.511   1.242  0.00  0.00    +0.134 C 
ENDROOT
BRANCH   1   2
ATOM      2  C   UNL     1      -0.030  -0.130   2.478  0.00  0.00    -0.020 A 
ATOM      3  C   UNL     1       0.064   1.154   2.983  0.00  0.00    +0.007 A 
ATOM      4  C   UNL     1      -0.644   1.505   4.117  0.00  0.00    +0.015 A 
ATOM      5  C   UNL     1      -1.447   0.571   4.747  0.00  0.00    +0.018 A 
ATOM      6  C   UNL     1      -1.540  -0.714   4.242  0.00  0.00    +0.015 A 
ATOM      7  C   UNL     1      -0.836  -1.062   3.105  0.00  0.00    +0.007 A 
ATOM      8 BR   UNL     1      -2.415   1.049   6.299  0.00  0.00    -0.050 Br
ENDBRANCH   1   2
BRANCH   1  10
ATOM      9  C   UNL     1      -0.019   1.526   0.010  0.00  0.00    -0.011 C 
ATOM     10  C   UNL     1       0.002  -0.004   0.002  0.00  0.00    -0.044 C 
BRANCH  10  11
ATOM     11  N   UNL     1       0.690  -0.478  -1.207  0.00  0.00    +0.382 N 
ATOM     12  H   UNL     1       1.636  -0.129  -1.214  0.00  0.00    -0.090 HD
ATOM     13  H   UNL     1       0.703  -1.487  -1.212  0.00  0.00    -0.090 HD
ATOM     14  H   UNL     1       0.202  -0.144  -2.024  0.00  0.00    -0.090 HD
ENDBRANCH  10  11
ENDBRANCH   1  10
BRANCH   1  15
ATOM     15  O   UNL     1       2.044   0.076   1.292  0.00  0.00    -0.370 OA
BRANCH  15  16
ATOM     16  C   UNL     1       3.051  -0.683   0.620  0.00  0.00    +0.119 C 
ATOM     17  C   UNL     1       3.631  -1.722   1.601  0.00  0.00    +0.031 C 
ATOM     18  C   UNL     1       4.282  -2.820   0.804  0.00  0.00    +0.002 C 
ATOM     19  C   UNL     1       5.792  -2.588   0.605  0.00  0.00    +0.000 C 
ATOM     20  C   UNL     1       6.133  -1.121   0.282  0.00  0.00    +0.000 C 
ATOM     21  C   UNL     1       5.163  -0.504  -0.689  0.00  0.00    +0.002 C 
ATOM     22  C   UNL     1       4.066   0.227   0.112  0.00  0.00    +0.031 C 
ENDBRANCH  15  16
ENDBRANCH   1  15
TORSDOF 5
