REMARK  Name = ZINC36788343
REMARK  9 active torsions:
REMARK  status: ('A' for Active; 'I' for Inactive)
REMARK    1  A    between atoms: C_1  and  C_2
REMARK    2  A    between atoms: C_5  and  N_8
REMARK    3  A    between atoms: C_9  and  C_11
REMARK    4  A    between atoms: C_11  and  N_12
REMARK    5  A    between atoms: N_12  and  C_13
REMARK    6  A    between atoms: C_14  and  C_16
REMARK    7  A    between atoms: C_16  and  S_17
REMARK    8  A    between atoms: S_17  and  C_18
REMARK    9  A    between atoms: N_27  and  C_28
REMARK                            x       y       z     vdW  Elec       q    Type
REMARK                         _______ _______ _______ _____ _____    ______ ____
ROOT
ATOM      1  N   UNL     1       0.420  -6.845   2.495  0.00  0.00    -0.295 N 
ATOM      2  C   UNL     1      -0.787  -7.205   3.244  0.00  0.00    +0.132 C 
ATOM      3  C   UNL     1       1.632  -6.969   3.071  0.00  0.00    +0.226 C 
ATOM      4  O   UNL     1       2.631  -6.670   2.452  0.00  0.00    -0.275 OA
ENDROOT
BRANCH   1   5
ATOM      5  C   UNL     1       0.309  -6.349   1.121  0.00  0.00    +0.203 C 
BRANCH   5   7
ATOM      6  N   UNL     1       0.059  -4.170  -0.021  0.00  0.00    -0.284 N 
ATOM      7  C   UNL     1       0.175  -4.848   1.138  0.00  0.00    +0.235 C 
ATOM      8  O   UNL     1       0.173  -4.251   2.193  0.00  0.00    -0.274 OA
ATOM      9  H   UNL     1      -0.017  -4.651  -0.860  0.00  0.00    +0.155 HD
BRANCH   6  14
ATOM     10  C   UNL     1       0.008   1.503   0.007  0.00  0.00    +0.044 C 
ATOM     11  C   UNL     1       0.022  -0.004  -0.001  0.00  0.00    -0.050 A 
ATOM     12  C   UNL     1       0.777  -0.692   0.931  0.00  0.00    +0.005 A 
ATOM     13  C   UNL     1       0.791  -2.073   0.927  0.00  0.00    +0.023 A 
ATOM     14  C   UNL     1       0.046  -2.771  -0.014  0.00  0.00    +0.033 A 
ATOM     15  C   UNL     1      -0.712  -2.077  -0.948  0.00  0.00    +0.023 A 
ATOM     16  C   UNL     1      -0.726  -0.696  -0.936  0.00  0.00    +0.005 A 
ENDBRANCH   6  14
ENDBRANCH   5   7
ENDBRANCH   1   5
BRANCH   3  17
ATOM     17  C   UNL     1       1.746  -7.479   4.485  0.00  0.00    +0.173 C 
BRANCH  17  18
ATOM     18  S   UNL     1       3.493  -7.531   4.970  0.00  0.00    -0.078 S 
BRANCH  18  19
ATOM     19  C   UNL     1       3.459  -8.139   6.623  0.00  0.00    +0.173 A 
ATOM     20  N   UNL     1       2.303  -8.433   7.184  0.00  0.00    -0.216 NA
ATOM     21  C   UNL     1       2.246  -8.893   8.428  0.00  0.00    +0.116 A 
ATOM     22  C   UNL     1       3.404  -9.088   9.205  0.00  0.00    +0.072 A 
ATOM     23  C   UNL     1       3.163  -9.598  10.544  0.00  0.00    +0.023 A 
ATOM     24  C   UNL     1       1.903  -9.838  10.937  0.00  0.00    +0.048 A 
ATOM     25  S   UNL     1       0.932  -9.390   9.511  0.00  0.00    -0.077 S 
ATOM     26  C   UNL     1       4.643  -8.760   8.570  0.00  0.00    +0.263 A 
ATOM     27  O   UNL     1       5.697  -8.897   9.166  0.00  0.00    -0.267 OA
ATOM     28  N   UNL     1       4.630  -8.305   7.304  0.00  0.00    -0.290 N 
ATOM     29  C   UNL     1       5.896  -7.973   6.647  0.00  0.00    +0.154 C 
ENDBRANCH  18  19
ENDBRANCH  17  18
ENDBRANCH   3  17
TORSDOF 6
