REMARK  Name = ZINC13457973
REMARK  6 active torsions:
REMARK  status: ('A' for Active; 'I' for Inactive)
REMARK    1  A    between atoms: C_1  and  N_2
REMARK    2  A    between atoms: N_2  and  S_3
REMARK    3  A    between atoms: S_3  and  C_6
REMARK    4  A    between atoms: C_9  and  C_12
REMARK    5  A    between atoms: C_15  and  C_17
REMARK    6  A    between atoms: C_30  and  C_31
REMARK                            x       y       z     vdW  Elec       q    Type
REMARK                         _______ _______ _______ _____ _____    ______ ____
ROOT
ATOM      1  C   UNL     1      -7.072   8.427   0.102  0.00  0.00    +0.136 A 
ATOM      2  C   UNL     1      -8.016   7.443   0.106  0.00  0.00    +0.050 A 
ATOM      3  C   UNL     1      -7.336   6.220   0.090  0.00  0.00    +0.050 A 
ATOM      4  C   UNL     1      -5.988   6.514   0.085  0.00  0.00    +0.129 A 
ATOM      5  O   UNL     1      -5.853   7.856   0.089  0.00  0.00    -0.455 OA
ENDROOT
BRANCH   4   6
ATOM      6  C   UNL     1      -4.929   5.570   0.073  0.00  0.00    +0.052 C 
ATOM      7  C   UNL     1      -3.646   5.995   0.064  0.00  0.00    -0.018 C 
ATOM      8  C   UNL     1      -3.192   7.433   0.065  0.00  0.00    +0.042 C 
ATOM      9  C   UNL     1      -1.658   7.379   0.052  0.00  0.00    +0.043 C 
ATOM     10  C   UNL     1      -1.287   5.917   0.042  0.00  0.00    -0.007 A 
ATOM     11  C   UNL     1      -2.453   5.131   0.049  0.00  0.00    +0.072 A 
ATOM     12  N   UNL     1      -2.386   3.802   0.043  0.00  0.00    -0.247 NA
ATOM     13  C   UNL     1      -1.233   3.136   0.030  0.00  0.00    +0.072 A 
ATOM     14  C   UNL     1      -1.207   1.729   0.017  0.00  0.00    +0.028 A 
ATOM     15  C   UNL     1      -0.013   1.076   0.008  0.00  0.00    +0.002 A 
ATOM     16  C   UNL     1       1.191   1.777   0.000  0.00  0.00    +0.001 A 
ATOM     17  C   UNL     1       1.204   3.141   0.007  0.00  0.00    +0.011 A 
ATOM     18  C   UNL     1      -0.004   3.843   0.022  0.00  0.00    +0.015 A 
ATOM     19  C   UNL     1      -0.042   5.307   0.029  0.00  0.00    +0.077 A 
BRANCH  19  20
ATOM     20  C   UNL     1       1.202   6.105   0.022  0.00  0.00    +0.388 C 
ATOM     21  O   UNL     1       1.704   6.438  -1.032  0.00  0.00    -0.241 OA
ATOM     22  O   UNL     1       1.779   6.463   1.186  0.00  0.00    -0.241 OA
ENDBRANCH  19  20
ENDBRANCH   4   6
BRANCH   1  26
ATOM     23  C   UNL     1      -7.848  12.601   0.124  0.00  0.00    +0.105 A 
ATOM     24  C   UNL     1      -6.542  12.144   0.111  0.00  0.00    +0.029 A 
ATOM     25  C   UNL     1      -6.283  10.789   0.104  0.00  0.00    +0.013 A 
ATOM     26  C   UNL     1      -7.342   9.879   0.110  0.00  0.00    +0.017 A 
ATOM     27  C   UNL     1      -8.658  10.347   0.118  0.00  0.00    +0.013 A 
ATOM     28  C   UNL     1      -8.902  11.705   0.130  0.00  0.00    +0.029 A 
BRANCH  23  29
ATOM     29  S   UNL     1      -8.171  14.334   0.134  0.00  0.00    +0.058 S 
ATOM     30  O   UNL     1      -9.465  14.503   0.696  0.00  0.00    -0.153 OA
ATOM     31  O   UNL     1      -7.016  14.959   0.677  0.00  0.00    -0.153 OA
BRANCH  29  33
ATOM     32  C   UNL     1      -9.358  14.323  -2.296  0.00  0.00    +0.127 C 
ATOM     33  N   UNL     1      -8.274  14.821  -1.446  0.00  0.00    -0.193 NA
ATOM     34  H   UNL     1      -7.617  15.436  -1.807  0.00  0.00    +0.148 HD
ENDBRANCH  29  33
ENDBRANCH  23  29
ENDBRANCH   1  26
TORSDOF 5
