REMARK  Name = ZINC02216003
REMARK  8 active torsions:
REMARK  status: ('A' for Active; 'I' for Inactive)
REMARK    1  A    between atoms: C_1  and  O_2
REMARK    2  A    between atoms: O_2  and  C_3
REMARK    3  A    between atoms: C_5  and  C_10
REMARK    4  A    between atoms: C_8  and  O_9
REMARK    5  A    between atoms: C_12  and  C_32
REMARK    6  A    between atoms: C_13  and  S_22
REMARK    7  A    between atoms: S_22  and  C_23
REMARK    8  A    between atoms: C_23  and  C_24
REMARK                            x       y       z     vdW  Elec       q    Type
REMARK                         _______ _______ _______ _____ _____    ______ ____
ROOT
ATOM      1  C   UNL     1      -4.871   0.257   0.037  0.00  0.00    +0.097 C 
ATOM      2  C   UNL     1      -5.647  -0.067   1.280  0.00  0.00    +0.069 C 
ATOM      3  C   UNL     1      -6.726  -0.894   1.238  0.00  0.00    +0.080 C 
ATOM      4  N   UNL     1      -7.129  -1.442   0.042  0.00  0.00    -0.311 N 
ATOM      5  C   UNL     1      -6.740  -0.883  -1.145  0.00  0.00    +0.016 C 
ATOM      6  C   UNL     1      -5.669  -0.065  -1.201  0.00  0.00    +0.024 C 
ATOM      7  C   UNL     1      -5.262   0.510  -2.417  0.00  0.00    +0.162 C 
ATOM      8  O   UNL     1      -4.302   1.255  -2.433  0.00  0.00    -0.292 OA
ATOM      9  C   UNL     1      -5.992   0.221  -3.700  0.00  0.00    +0.080 C 
ATOM     10  C   UNL     1      -6.629  -1.169  -3.608  0.00  0.00    +0.014 C 
ATOM     11  C   UNL     1      -7.542  -1.202  -2.383  0.00  0.00    +0.051 C 
ATOM     12  H   UNL     1      -7.693  -2.232   0.041  0.00  0.00    +0.152 HD
ENDROOT
BRANCH   1  15
ATOM     13  C   UNL     1      -1.201  -0.638   0.010  0.00  0.00    +0.162 A 
ATOM     14  C   UNL     1      -2.374   0.099   0.019  0.00  0.00    +0.054 A 
ATOM     15  C   UNL     1      -3.596  -0.546   0.027  0.00  0.00    -0.031 A 
ATOM     16  C   UNL     1      -3.652  -1.928   0.026  0.00  0.00    +0.008 A 
ATOM     17  C   UNL     1      -2.485  -2.669   0.017  0.00  0.00    +0.049 A 
ATOM     18  C   UNL     1      -1.257  -2.028   0.003  0.00  0.00    +0.158 A 
BRANCH  13  20
ATOM     19  C   UNL     1      -0.017   1.425   0.010  0.00  0.00    +0.277 C 
ATOM     20  O   UNL     1       0.002  -0.004   0.002  0.00  0.00    -0.491 OA
ENDBRANCH  13  20
BRANCH  18  21
ATOM     21  O   UNL     1      -0.108  -2.756  -0.012  0.00  0.00    -0.503 OA
ATOM     22  H   UNL     1       0.232  -2.972   0.867  0.00  0.00    +0.292 HD
ENDBRANCH  18  21
ENDBRANCH   1  15
BRANCH   2  23
ATOM     23  C   UNL     1      -5.245   0.503   2.530  0.00  0.00    +0.098 C 
ATOM     24  N   UNL     1      -4.926   0.955   3.522  0.00  0.00    -0.191 NA
ENDBRANCH   2  23
BRANCH   3  25
ATOM     25  S   UNL     1      -7.610  -1.264   2.717  0.00  0.00    -0.100 S 
BRANCH  25  26
ATOM     26  C   UNL     1      -8.933  -2.378   2.171  0.00  0.00    +0.171 C 
BRANCH  26  27
ATOM     27  C   UNL     1      -9.775  -2.776   3.356  0.00  0.00    +0.229 C 
ATOM     28  O   UNL     1      -9.509  -2.350   4.460  0.00  0.00    -0.275 OA
ATOM     29  N   UNL     1     -10.824  -3.606   3.188  0.00  0.00    -0.264 N 
ATOM     30  C   UNL     1     -11.601  -3.973   4.281  0.00  0.00    +0.164 A 
ATOM     31  N   UNL     1     -11.467  -3.609   5.538  0.00  0.00    -0.233 NA
ATOM     32  C   UNL     1     -12.295  -4.050   6.468  0.00  0.00    +0.120 A 
ATOM     33  C   UNL     1     -13.281  -4.888   6.067  0.00  0.00    +0.068 A 
ATOM     34  S   UNL     1     -12.945  -4.985   4.316  0.00  0.00    -0.061 S 
ATOM     35  H   UNL     1     -11.037  -3.946   2.306  0.00  0.00    +0.157 HD
ENDBRANCH  26  27
ENDBRANCH  25  26
ENDBRANCH   3  25
TORSDOF 7
