REMARK  Name = ZINC04452491
REMARK  3 active torsions:
REMARK  status: ('A' for Active; 'I' for Inactive)
REMARK    1  A    between atoms: C_1  and  C_2
REMARK    2  A    between atoms: C_4  and  C_20
REMARK    3  A    between atoms: N_13  and  C_14
REMARK                            x       y       z     vdW  Elec       q    Type
REMARK                         _______ _______ _______ _____ _____    ______ ____
ROOT
ATOM      1  C   UNL     1      -0.018   1.503   0.010  0.00  0.00    +0.069 C 
ATOM      2  C   UNL     1       0.002  -0.004   0.002  0.00  0.00    +0.075 A 
ATOM      3  C   UNL     1       0.008  -0.817  -1.138  0.00  0.00    +0.062 A 
ATOM      4  C   UNL     1       0.027  -2.107  -0.730  0.00  0.00    +0.059 A 
ATOM      5  N   UNL     1       0.034  -2.108   0.629  0.00  0.00    -0.199 N 
ATOM      6  N   UNL     1       0.023  -0.775   1.059  0.00  0.00    -0.168 NA
ATOM      7  C   UNL     1       0.053  -3.238   1.451  0.00  0.00    +0.289 A 
ATOM      8  N   UNL     1       0.072  -4.450   0.912  0.00  0.00    -0.104 NA
ATOM      9  N   UNL     1       0.090  -5.494   1.670  0.00  0.00    -0.108 NA
ATOM     10  C   UNL     1       0.089  -5.354   2.991  0.00  0.00    +0.255 A 
ATOM     11  N   UNL     1       0.070  -4.140   3.530  0.00  0.00    -0.108 NA
ATOM     12  N   UNL     1       0.057  -3.098   2.770  0.00  0.00    -0.104 NA
ATOM     13  N   UNL     1       0.108  -6.475   3.807  0.00  0.00    -0.308 N 
ATOM     14  C   UNL     1       0.040  -3.322  -1.621  0.00  0.00    +0.067 C 
ATOM     15 BR   UNL     1      -0.009  -0.218  -2.931  0.00  0.00    -0.047 Br
ATOM     16  H   UNL     1       0.122  -7.361   3.413  0.00  0.00    +0.149 HD
ENDROOT
BRANCH  13  17
ATOM     17  C   UNL     1       0.107  -6.321   5.264  0.00  0.00    +0.073 C 
ATOM     18  C   UNL     1       1.541  -6.119   5.756  0.00  0.00    +0.022 C 
ATOM     19  C   UNL     1       1.540  -5.958   7.278  0.00  0.00    +0.002 C 
ATOM     20  C   UNL     1       0.952  -7.214   7.923  0.00  0.00    +0.000 C 
ATOM     21  C   UNL     1      -0.483  -7.416   7.431  0.00  0.00    +0.002 C 
ATOM     22  C   UNL     1      -0.482  -7.577   5.909  0.00  0.00    +0.022 C 
ENDBRANCH  13  17
TORSDOF 1
