REMARK  Name = ZINC09970435
REMARK  12 active torsions:
REMARK  status: ('A' for Active; 'I' for Inactive)
REMARK    1  A    between atoms: C_1  and  C_2
REMARK    2  A    between atoms: C_2  and  C_27
REMARK    3  A    between atoms: C_3  and  C_25
REMARK    4  A    between atoms: C_3  and  O_26
REMARK    5  A    between atoms: C_4  and  C_23
REMARK    6  A    between atoms: C_4  and  O_24
REMARK    7  A    between atoms: C_5  and  C_21
REMARK    8  A    between atoms: C_5  and  O_22
REMARK    9  A    between atoms: C_6  and  C_8
REMARK   10  A    between atoms: C_6  and  O_9
REMARK   11  A    between atoms: O_9  and  C_10
REMARK   12  A    between atoms: C_27  and  O_28
REMARK                            x       y       z     vdW  Elec       q    Type
REMARK                         _______ _______ _______ _____ _____    ______ ____
ROOT
ATOM      1  C   UNL     1       1.609   3.484   0.103  0.00  0.00    +0.047 C 
ATOM      2  C   UNL     1       0.510   3.584   1.169  0.00  0.00    +0.125 C 
ATOM      3  C   UNL     1       1.088   3.314   2.551  0.00  0.00    +0.125 C 
ATOM      4  C   UNL     1       1.149   1.841   2.921  0.00  0.00    +0.129 C 
ATOM      5  C   UNL     1      -0.124   1.087   2.572  0.00  0.00    +0.159 C 
ATOM      6  C   UNL     1      -0.674   1.409   1.190  0.00  0.00    +0.242 C 
ATOM      7  O   UNL     1      -0.586   2.767   0.845  0.00  0.00    -0.326 OA
ATOM      8  C   UNL     1      -0.016   0.520   0.129  0.00  0.00    +0.092 C 
ATOM      9  C   UNL     1       0.155  -0.424   2.651  0.00  0.00    +0.051 C 
ATOM     10  C   UNL     1       2.377   1.165   2.307  0.00  0.00    +0.047 C 
ATOM     11  C   UNL     1       2.509   3.901   2.615  0.00  0.00    +0.047 C 
ENDROOT
BRANCH   5  12
ATOM     12  O   UNL     1      -1.131   1.396   3.551  0.00  0.00    -0.379 OA
ATOM     13  H   UNL     1      -1.954   0.900   3.441  0.00  0.00    +0.211 HD
ENDBRANCH   5  12
BRANCH   4  14
ATOM     14  O   UNL     1       1.310   1.766   4.359  0.00  0.00    -0.383 OA
ATOM     15  H   UNL     1       1.385   0.864   4.700  0.00  0.00    +0.210 HD
ENDBRANCH   4  14
BRANCH   3  16
ATOM     16  O   UNL     1       0.287   4.005   3.526  0.00  0.00    -0.383 OA
ATOM     17  H   UNL     1       0.199   4.954   3.362  0.00  0.00    +0.210 HD
ENDBRANCH   3  16
BRANCH   6  18
ATOM     18  O   UNL     1      -2.081   1.056   1.203  0.00  0.00    -0.458 OA
BRANCH  18  19
ATOM     19  C   UNL     1      -2.799   1.341   0.084  0.00  0.00    +0.125 A 
ATOM     20  C   UNL     1      -2.186   2.017  -0.975  0.00  0.00    +0.046 A 
ATOM     21  C   UNL     1      -2.878   2.316  -2.107  0.00  0.00    +0.012 A 
ATOM     22  C   UNL     1      -4.228   1.940  -2.219  0.00  0.00    -0.017 A 
ATOM     23  C   UNL     1      -4.972   2.233  -3.374  0.00  0.00    +0.023 A 
ATOM     24  C   UNL     1      -6.278   1.854  -3.449  0.00  0.00    +0.018 A 
ATOM     25  C   UNL     1      -6.891   1.179  -2.394  0.00  0.00    +0.016 A 
ATOM     26  C   UNL     1      -6.201   0.879  -1.260  0.00  0.00    +0.010 A 
ATOM     27  C   UNL     1      -4.851   1.254  -1.147  0.00  0.00    -0.014 A 
ATOM     28  C   UNL     1      -4.107   0.957   0.007  0.00  0.00    +0.054 A 
ATOM     29 BR   UNL     1      -7.275   2.250  -5.006  0.00  0.00    -0.050 Br
ENDBRANCH  18  19
ENDBRANCH   6  18
BRANCH   2  30
ATOM     30  C   UNL     1       0.018   5.053   1.160  0.00  0.00    +0.193 C 
BRANCH  30  31
ATOM     31  O   UNL     1      -0.536   5.361  -0.121  0.00  0.00    -0.392 OA
ATOM     32  H   UNL     1      -0.866   6.267  -0.199  0.00  0.00    +0.210 HD
ENDBRANCH  30  31
ENDBRANCH   2  30
TORSDOF 7
