REMARK  Name = ZINC16271182
REMARK  5 active torsions:
REMARK  status: ('A' for Active; 'I' for Inactive)
REMARK    1  A    between atoms: C_1  and  C_2
REMARK    2  A    between atoms: C_14  and  C_15
REMARK    3  A    between atoms: N_17  and  N_18
REMARK    4  A    between atoms: C_19  and  C_21
REMARK    5  A    between atoms: N_25  and  C_26
REMARK                            x       y       z     vdW  Elec       q    Type
REMARK                         _______ _______ _______ _____ _____    ______ ____
ROOT
ATOM      1  C   UNL     1      -3.647   8.871  -0.625  0.00  0.00    +0.267 C 
ATOM      2  O   UNL     1      -3.881   9.161  -1.783  0.00  0.00    -0.268 OA
ATOM      3  N   UNL     1      -4.239   9.555   0.374  0.00  0.00    -0.230 N 
ATOM      4  H   UNL     1      -4.053   9.324   1.298  0.00  0.00    +0.173 HD
ENDROOT
BRANCH   1  18
ATOM      5  C   UNL     1      -2.178   7.166  -2.666  0.00  0.00    +0.046 C 
ATOM      6  C   UNL     1      -2.032   6.976  -1.178  0.00  0.00    -0.017 A 
ATOM      7  C   UNL     1      -1.190   5.979  -0.679  0.00  0.00    +0.076 A 
ATOM      8  C   UNL     1      -1.120   5.881   0.729  0.00  0.00    +0.116 A 
ATOM      9  N   UNL     1      -0.358   4.977   1.325  0.00  0.00    -0.226 NA
ATOM     10  C   UNL     1       0.374   4.124   0.650  0.00  0.00    +0.114 A 
ATOM     11  N   UNL     1       0.388   4.119  -0.707  0.00  0.00    -0.296 N 
ATOM     12  C   UNL     1      -0.355   5.005  -1.412  0.00  0.00    +0.263 A 
ATOM     13  O   UNL     1      -0.335   4.998  -2.630  0.00  0.00    -0.267 OA
ATOM     14  C   UNL     1       1.283   3.064  -1.217  0.00  0.00    +0.127 C 
ATOM     15  C   UNL     1       2.188   2.676  -0.029  0.00  0.00    +0.029 C 
ATOM     16  C   UNL     1       1.299   3.041   1.179  0.00  0.00    +0.076 C 
ATOM     17  S   UNL     1      -2.216   7.163   1.282  0.00  0.00    -0.064 S 
ATOM     18  C   UNL     1      -2.721   7.777  -0.316  0.00  0.00    +0.081 A 
ENDBRANCH   1  18
BRANCH   3  19
ATOM     19  N   UNL     1      -5.125  10.600   0.079  0.00  0.00    -0.229 N 
ATOM     20  C   UNL     1      -5.717  11.284   1.078  0.00  0.00    +0.277 C 
ATOM     21  O   UNL     1      -5.564  10.930   2.232  0.00  0.00    -0.267 OA
ATOM     22  H   UNL     1      -5.311  10.832  -0.844  0.00  0.00    +0.173 HD
BRANCH  20  23
ATOM     23  C   UNL     1      -6.545  12.456   0.774  0.00  0.00    +0.107 A 
ATOM     24  C   UNL     1      -6.878  12.915  -0.483  0.00  0.00    +0.047 A 
ATOM     25  C   UNL     1      -7.679  14.048  -0.308  0.00  0.00    +0.036 A 
ATOM     26  C   UNL     1      -7.812  14.261   1.023  0.00  0.00    +0.101 A 
ATOM     27  N   UNL     1      -7.127  13.301   1.692  0.00  0.00    -0.345 N 
ATOM     28  C   UNL     1      -7.023  13.182   3.148  0.00  0.00    +0.149 C 
ATOM     29 BR   UNL     1      -8.438  15.098  -1.685  0.00  0.00    -0.049 Br
ENDBRANCH  20  23
ENDBRANCH   3  19
TORSDOF 3
