REMARK  Name = ZINC08921197
REMARK  10 active torsions:
REMARK  status: ('A' for Active; 'I' for Inactive)
REMARK    1  A    between atoms: C_1  and  C_2
REMARK    2  A    between atoms: C_2  and  O_3
REMARK    3  A    between atoms: O_3  and  C_4
REMARK    4  A    between atoms: C_14  and  O_35
REMARK    5  A    between atoms: C_16  and  C_19
REMARK    6  A    between atoms: C_22  and  O_27
REMARK    7  A    between atoms: C_23  and  O_25
REMARK    8  A    between atoms: O_25  and  C_26
REMARK    9  A    between atoms: O_27  and  C_28
REMARK   10  A    between atoms: C_28  and  C_30
REMARK                            x       y       z     vdW  Elec       q    Type
REMARK                         _______ _______ _______ _____ _____    ______ ____
ROOT
ATOM      1  C   UNL     1      -5.989   0.301  -1.847  0.00  0.00    +0.403 C 
ATOM      2  O   UNL     1      -6.042  -0.841  -2.257  0.00  0.00    -0.226 OA
ATOM      3  N   UNL     1      -5.131   0.624  -0.859  0.00  0.00    -0.262 N 
ATOM      4  C   UNL     1      -4.246  -0.385  -0.257  0.00  0.00    +0.116 C 
ATOM      5  C   UNL     1      -2.788  -0.028  -0.551  0.00  0.00    +0.056 C 
ATOM      6  C   UNL     1      -2.556   1.444  -0.230  0.00  0.00    -0.020 A 
ATOM      7  C   UNL     1      -3.590   2.313  -0.149  0.00  0.00    +0.013 A 
ATOM      8  S   UNL     1      -2.847   3.877   0.232  0.00  0.00    -0.076 S 
ATOM      9  C   UNL     1      -1.209   3.388   0.280  0.00  0.00    +0.080 A 
ATOM     10  C   UNL     1      -1.241   2.014   0.002  0.00  0.00    +0.068 A 
ATOM     11  C   UNL     1       0.058   1.293  -0.007  0.00  0.00    +0.220 C 
ATOM     12  N   UNL     1       1.149   2.011  -0.008  0.00  0.00    -0.223 NA
ATOM     13  C   UNL     1       1.185   3.466  -0.062  0.00  0.00    +0.224 C 
ATOM     14  N   UNL     1      -0.035   4.062   0.514  0.00  0.00    -0.313 N 
ATOM     15  C   UNL     1      -5.044   2.003  -0.339  0.00  0.00    +0.153 C 
ATOM     16  H   UNL     1      -0.010   4.884   1.029  0.00  0.00    +0.149 HD
ENDROOT
BRANCH  13  17
ATOM     17  C   UNL     1       1.314   3.902  -1.499  0.00  0.00    -0.002 A 
ATOM     18  C   UNL     1       0.767   5.106  -1.906  0.00  0.00    +0.011 A 
ATOM     19  C   UNL     1       0.887   5.512  -3.222  0.00  0.00    +0.050 A 
ATOM     20  C   UNL     1       1.547   4.709  -4.138  0.00  0.00    +0.173 A 
ATOM     21  C   UNL     1       2.092   3.495  -3.729  0.00  0.00    +0.163 A 
ATOM     22  C   UNL     1       1.973   3.096  -2.408  0.00  0.00    +0.056 A 
BRANCH  21  23
ATOM     23  O   UNL     1       2.740   2.703  -4.625  0.00  0.00    -0.491 OA
ATOM     24  C   UNL     1       3.274   1.472  -4.134  0.00  0.00    +0.277 C 
ENDBRANCH  21  23
BRANCH  20  25
ATOM     25  O   UNL     1       1.661   5.105  -5.434  0.00  0.00    -0.418 OA
BRANCH  25  26
ATOM     26  C   UNL     1       0.782   4.581  -6.314  0.00  0.00    +0.351 C 
ATOM     27  O   UNL     1      -0.123   3.871  -5.920  0.00  0.00    -0.244 OA
BRANCH  26  28
ATOM     28  C   UNL     1       0.918   4.869  -7.743  0.00  0.00    +0.097 A 
ATOM     29  C   UNL     1       0.132   4.436  -8.800  0.00  0.00    +0.022 A 
ATOM     30  C   UNL     1       0.485   4.860 -10.056  0.00  0.00    +0.008 A 
ATOM     31  C   UNL     1       1.568   5.668 -10.203  0.00  0.00    +0.046 A 
ATOM     32  S   UNL     1       2.134   5.873  -8.577  0.00  0.00    -0.090 S 
ENDBRANCH  26  28
ENDBRANCH  25  26
ENDBRANCH  20  25
ENDBRANCH  13  17
BRANCH  11  33
ATOM     33  O   UNL     1       0.109  -0.059  -0.018  0.00  0.00    -0.492 OA
ATOM     34  H   UNL     1       1.006  -0.419  -0.027  0.00  0.00    +0.294 HD
ENDBRANCH  11  33
BRANCH   1  35
ATOM     35  O   UNL     1      -6.787   1.245  -2.380  0.00  0.00    -0.451 OA
BRANCH  35  37
ATOM     36  C   UNL     1      -8.507   2.026  -3.917  0.00  0.00    +0.048 C 
ATOM     37  C   UNL     1      -7.686   0.826  -3.440  0.00  0.00    +0.230 C 
ENDBRANCH  35  37
ENDBRANCH   1  35
TORSDOF 8
