REMARK  Name = ZINC09086969
REMARK  5 active torsions:
REMARK  status: ('A' for Active; 'I' for Inactive)
REMARK    1  A    between atoms: C_4  and  C_7
REMARK    2  A    between atoms: C_8  and  C_25
REMARK    3  A    between atoms: C_9  and  C_15
REMARK    4  A    between atoms: C_18  and  O_21
REMARK    5  A    between atoms: O_21  and  C_22
REMARK                            x       y       z     vdW  Elec       q    Type
REMARK                         _______ _______ _______ _____ _____    ______ ____
ROOT
ATOM      1  C   UNL     1       3.692  -0.693  -0.131  0.00  0.00    +0.051 C 
ATOM      2  C   UNL     1       3.711  -2.039   0.051  0.00  0.00    +0.041 C 
ATOM      3  C   UNL     1       5.062  -2.720   0.133  0.00  0.00    +0.140 C 
ATOM      4  N   UNL     1       6.253  -1.865   0.006  0.00  0.00    -0.288 N 
ATOM      5  C   UNL     1       6.083  -0.540  -0.172  0.00  0.00    +0.305 C 
ATOM      6  O   UNL     1       7.066   0.168  -0.276  0.00  0.00    -0.252 OA
ATOM      7  N   UNL     1       4.870   0.022  -0.243  0.00  0.00    -0.268 N 
ATOM      8  H   UNL     1       7.143  -2.247   0.051  0.00  0.00    +0.151 HD
ATOM      9  H   UNL     1       4.815   0.981  -0.377  0.00  0.00    +0.156 HD
ENDROOT
BRANCH   2  10
ATOM     10  C   UNL     1       2.471  -2.804   0.166  0.00  0.00    +0.139 A 
ATOM     11  N   UNL     1       2.094  -3.831  -0.665  0.00  0.00    -0.338 N 
ATOM     12  H   UNL     1       2.595  -4.173  -1.422  0.00  0.00    +0.167 HD
ATOM     13  C   UNL     1       0.866  -4.286  -0.220  0.00  0.00    +0.066 A 
ATOM     14  C   UNL     1       0.001  -5.284  -0.645  0.00  0.00    +0.028 A 
ATOM     15  C   UNL     1      -1.184  -5.499   0.029  0.00  0.00    +0.002 A 
ATOM     16  C   UNL     1      -1.518  -4.723   1.130  0.00  0.00    +0.002 A 
ATOM     17  C   UNL     1      -0.673  -3.729   1.567  0.00  0.00    +0.030 A 
ATOM     18  C   UNL     1       0.533  -3.497   0.896  0.00  0.00    +0.089 A 
ATOM     19  N   UNL     1       1.547  -2.619   1.086  0.00  0.00    -0.228 NA
ENDBRANCH   2  10
BRANCH   1  23
ATOM     20  C   UNL     1      -0.028   1.341  -0.379  0.00  0.00    +0.000 A 
ATOM     21  C   UNL     1       0.962   1.815   0.464  0.00  0.00    +0.001 A 
ATOM     22  C   UNL     1       2.172   1.160   0.549  0.00  0.00    +0.010 A 
ATOM     23  C   UNL     1       2.398   0.014  -0.217  0.00  0.00    -0.003 A 
ATOM     24  C   UNL     1       1.395  -0.460  -1.065  0.00  0.00    +0.010 A 
ATOM     25  C   UNL     1       0.189   0.206  -1.141  0.00  0.00    +0.001 A 
ENDBRANCH   1  23
BRANCH   3  26
ATOM     26  C   UNL     1       5.143  -3.434   1.458  0.00  0.00    -0.022 A 
ATOM     27  C   UNL     1       5.441  -2.724   2.606  0.00  0.00    +0.009 A 
ATOM     28  C   UNL     1       5.516  -3.376   3.822  0.00  0.00    +0.046 A 
ATOM     29  C   UNL     1       5.291  -4.744   3.890  0.00  0.00    +0.127 A 
ATOM     30  C   UNL     1       4.992  -5.453   2.736  0.00  0.00    +0.046 A 
ATOM     31  C   UNL     1       4.913  -4.795   1.523  0.00  0.00    +0.009 A 
BRANCH  29  32
ATOM     32  O   UNL     1       5.365  -5.387   5.084  0.00  0.00    -0.434 OA
BRANCH  32  33
ATOM     33  C   UNL     1       5.122  -6.795   5.079  0.00  0.00    +0.541 C 
ATOM     34  F   UNL     1       3.833  -7.044   4.597  0.00  0.00    -0.166 F 
ATOM     35  F   UNL     1       6.058  -7.427   4.253  0.00  0.00    -0.166 F 
ENDBRANCH  32  33
ENDBRANCH  29  32
ENDBRANCH   3  26
TORSDOF 5
