REMARK  Name = ZINC08749710
REMARK  2 active torsions:
REMARK  status: ('A' for Active; 'I' for Inactive)
REMARK    1  A    between atoms: C_3  and  C_6
REMARK    2  A    between atoms: C_16  and  C_18
REMARK                            x       y       z     vdW  Elec       q    Type
REMARK                         _______ _______ _______ _____ _____    ______ ____
ROOT
ATOM      1  C   UNL     1      -2.223   0.614  -1.638  0.00  0.00    +0.144 C 
ATOM      2  C   UNL     1      -2.491   0.406  -0.149  0.00  0.00    -0.012 A 
ATOM      3  C   UNL     1      -3.743   0.595   0.436  0.00  0.00    +0.013 A 
ATOM      4  C   UNL     1      -3.908   0.389   1.762  0.00  0.00    +0.046 A 
ATOM      5  S   UNL     1      -2.263  -0.095   2.267  0.00  0.00    -0.101 S 
ATOM      6  C   UNL     1      -1.483   0.016   0.678  0.00  0.00    -0.003 A 
ATOM      7  C   UNL     1      -0.055  -0.250   0.325  0.00  0.00    +0.062 C 
ATOM      8  C   UNL     1       0.051  -0.413  -1.200  0.00  0.00    +0.114 C 
ATOM      9  N   UNL     1      -0.767   0.631  -1.834  0.00  0.00    -0.284 N 
ATOM     10  C   UNL     1      -0.190   1.590  -2.585  0.00  0.00    +0.267 C 
ATOM     11  O   UNL     1      -0.881   2.372  -3.209  0.00  0.00    -0.268 OA
ENDROOT
BRANCH  10  12
ATOM     12  C   UNL     1       1.284   1.691  -2.650  0.00  0.00    +0.146 A 
ATOM     13  C   UNL     1       1.900   2.331  -3.753  0.00  0.00    +0.040 A 
ATOM     14  C   UNL     1       3.261   2.405  -3.778  0.00  0.00    +0.074 A 
ATOM     15  C   UNL     1       3.974   1.837  -2.700  0.00  0.00    +0.265 A 
ATOM     16  O   UNL     1       5.193   1.879  -2.680  0.00  0.00    -0.266 OA
ATOM     17  N   UNL     1       3.301   1.248  -1.694  0.00  0.00    -0.243 N 
ATOM     18  H   UNL     1       3.797   0.861  -0.957  0.00  0.00    +0.192 HD
ATOM     19  N   UNL     1       2.018   1.191  -1.681  0.00  0.00    -0.166 NA
ENDBRANCH  10  12
BRANCH   1  22
ATOM     20  C   UNL     1      -4.152   3.464  -3.273  0.00  0.00    +0.008 A 
ATOM     21  C   UNL     1      -3.757   2.162  -3.028  0.00  0.00    +0.013 A 
ATOM     22  C   UNL     1      -2.813   1.927  -2.084  0.00  0.00    +0.015 A 
ATOM     23  S   UNL     1      -2.457   3.576  -1.501  0.00  0.00    -0.099 S 
ATOM     24  C   UNL     1      -3.583   4.468  -2.561  0.00  0.00    +0.045 A 
ENDBRANCH   1  22
TORSDOF 2
