REMARK  Name = ZINC12481998
REMARK  12 active torsions:
REMARK  status: ('A' for Active; 'I' for Inactive)
REMARK    1  A    between atoms: C_1  and  C_2
REMARK    2  A    between atoms: C_2  and  C_3
REMARK    3  A    between atoms: C_2  and  C_4
REMARK    4  A    between atoms: C_7  and  C_10
REMARK    5  A    between atoms: C_10  and  C_12
REMARK    6  A    between atoms: C_10  and  N_22
REMARK    7  A    between atoms: N_14  and  C_15
REMARK    8  A    between atoms: C_15  and  C_16
REMARK    9  A    between atoms: N_22  and  C_23
REMARK   10  A    between atoms: C_23  and  C_24
REMARK   11  A    between atoms: C_29  and  C_31
REMARK   12  A    between atoms: C_31  and  N_32
REMARK                            x       y       z     vdW  Elec       q    Type
REMARK                         _______ _______ _______ _____ _____    ______ ____
ROOT
ATOM      1  C   UNL     1       0.373   6.033  -2.366  0.00  0.00    +0.193 C 
ENDROOT
BRANCH   1   5
ATOM      2  C   UNL     1       1.695   8.699   0.699  0.00  0.00    -0.045 A 
ATOM      3  C   UNL     1       2.251   8.768  -0.565  0.00  0.00    +0.004 A 
ATOM      4  C   UNL     1       1.823   7.906  -1.557  0.00  0.00    +0.006 A 
ATOM      5  C   UNL     1       0.839   6.973  -1.285  0.00  0.00    -0.018 A 
ATOM      6  C   UNL     1       0.279   6.908  -0.023  0.00  0.00    +0.006 A 
ATOM      7  C   UNL     1       0.710   7.767   0.970  0.00  0.00    +0.004 A 
BRANCH   2   9
ATOM      8  C   UNL     1       0.981  10.481   2.269  0.00  0.00    +0.012 C 
ATOM      9  C   UNL     1       2.162   9.639   1.780  0.00  0.00    +0.013 C 
ATOM     10  C   UNL     1       2.730   8.830   2.948  0.00  0.00    +0.012 C 
ENDBRANCH   2   9
ENDBRANCH   1   5
BRANCH   1  11
ATOM     11  C   UNL     1      -1.006   6.436  -2.822  0.00  0.00    +0.238 C 
ATOM     12  O   UNL     1      -1.961   6.255  -2.098  0.00  0.00    -0.273 OA
ATOM     13  N   UNL     1      -1.177   6.998  -4.035  0.00  0.00    -0.311 N 
ATOM     14  H   UNL     1      -0.412   7.143  -4.615  0.00  0.00    +0.149 HD
BRANCH  13  15
ATOM     15  C   UNL     1      -2.517   7.390  -4.479  0.00  0.00    +0.135 C 
BRANCH  15  16
ATOM     16  C   UNL     1      -2.433   7.998  -5.880  0.00  0.00    +0.135 C 
ATOM     17  C   UNL     1      -3.838   8.413  -6.356  0.00  0.00    +0.035 C 
ATOM     18  C   UNL     1      -3.711   9.931  -6.635  0.00  0.00    +0.031 C 
ATOM     19  C   UNL     1      -2.181  10.100  -6.818  0.00  0.00    +0.160 C 
ATOM     20  O   UNL     1      -1.623   9.185  -5.851  0.00  0.00    -0.375 OA
ENDBRANCH  15  16
ENDBRANCH  13  15
ENDBRANCH   1  11
BRANCH   1  21
ATOM     21  N   UNL     1       0.333   4.666  -1.841  0.00  0.00    -0.280 N 
ATOM     22  C   UNL     1       1.463   4.083  -1.393  0.00  0.00    +0.238 C 
ATOM     23  O   UNL     1       2.513   4.690  -1.425  0.00  0.00    -0.274 OA
BRANCH  21  24
ATOM     24  C   UNL     1      -0.934   3.933  -1.802  0.00  0.00    +0.151 C 
BRANCH  24  25
ATOM     25  C   UNL     1      -1.552   4.070  -0.434  0.00  0.00    +0.007 A 
ATOM     26  C   UNL     1      -2.832   4.372  -0.102  0.00  0.00    +0.013 A 
ATOM     27  C   UNL     1      -3.179   4.441   1.234  0.00  0.00    +0.008 A 
ATOM     28  C   UNL     1      -2.227   4.216   2.173  0.00  0.00    +0.045 A 
ATOM     29  S   UNL     1      -0.788   3.885   1.169  0.00  0.00    -0.100 S 
ENDBRANCH  24  25
ENDBRANCH  21  24
BRANCH  22  30
ATOM     30  C   UNL     1       1.422   2.677  -0.853  0.00  0.00    +0.241 C 
BRANCH  30  31
ATOM     31  N   UNL     1       2.767   2.276  -0.434  0.00  0.00    -0.235 N 
ATOM     32  C   UNL     1       3.720   1.656  -1.208  0.00  0.00    +0.090 A 
ATOM     33  C   UNL     1       3.760   1.226  -2.530  0.00  0.00    +0.029 A 
ATOM     34  C   UNL     1       4.888   0.627  -3.015  0.00  0.00    +0.002 A 
ATOM     35  C   UNL     1       5.997   0.443  -2.199  0.00  0.00    +0.002 A 
ATOM     36  C   UNL     1       5.983   0.856  -0.899  0.00  0.00    +0.032 A 
ATOM     37  C   UNL     1       4.838   1.473  -0.377  0.00  0.00    +0.113 A 
ATOM     38  N   UNL     1       4.533   1.973   0.837  0.00  0.00    -0.129 NA
ATOM     39  N   UNL     1       3.337   2.447   0.837  0.00  0.00    -0.064 NA
ENDBRANCH  30  31
ENDBRANCH  22  30
ENDBRANCH   1  21
TORSDOF 10
