REMARK  Name = ZINC45529401
REMARK  6 active torsions:
REMARK  status: ('A' for Active; 'I' for Inactive)
REMARK    1  A    between atoms: C_1  and  C_2
REMARK    2  A    between atoms: C_2  and  C_3
REMARK    3  A    between atoms: C_4  and  C_8
REMARK    4  A    between atoms: N_10  and  N_11
REMARK    5  A    between atoms: C_12  and  C_14
REMARK    6  A    between atoms: C_21  and  C_24
REMARK                            x       y       z     vdW  Elec       q    Type
REMARK                         _______ _______ _______ _____ _____    ______ ____
ROOT
ATOM      1  N   UNL     1       5.350  -0.682  -0.601  0.00  0.00    -0.230 N 
ATOM      2  C   UNL     1       6.645  -0.966  -0.361  0.00  0.00    +0.267 C 
ATOM      3  O   UNL     1       6.988  -1.364   0.737  0.00  0.00    -0.268 OA
ATOM      4  H   UNL     1       5.077  -0.365  -1.476  0.00  0.00    +0.173 HD
ENDROOT
BRANCH   2   5
ATOM      5  C   UNL     1       7.642  -0.796  -1.423  0.00  0.00    +0.076 A 
ATOM      6  C   UNL     1       9.003  -1.034  -1.387  0.00  0.00    +0.024 A 
ATOM      7  C   UNL     1       9.713  -0.784  -2.552  0.00  0.00    -0.036 A 
ATOM      8  C   UNL     1       8.997  -0.328  -3.620  0.00  0.00    -0.006 A 
ATOM      9  S   UNL     1       7.413  -0.236  -3.100  0.00  0.00    -0.088 S 
ATOM     10  C   UNL     1       9.533   0.014  -4.979  0.00  0.00    +0.043 C 
ATOM     11  C   UNL     1      11.060   0.135  -4.883  0.00  0.00    +0.009 C 
ATOM     12  C   UNL     1      11.604  -1.085  -4.135  0.00  0.00    -0.009 C 
ATOM     13  C   UNL     1      11.220  -1.002  -2.658  0.00  0.00    +0.039 C 
ATOM     14  C   UNL     1      13.129  -1.121  -4.262  0.00  0.00    +0.008 C 
ENDBRANCH   2   5
BRANCH   1  17
ATOM     15  C   UNL     1       3.102  -0.560   0.174  0.00  0.00    +0.270 C 
ATOM     16  O   UNL     1       2.760  -0.162  -0.923  0.00  0.00    -0.268 OA
ATOM     17  N   UNL     1       4.398  -0.844   0.414  0.00  0.00    -0.230 N 
ATOM     18  H   UNL     1       4.671  -1.161   1.289  0.00  0.00    +0.173 HD
BRANCH  15  20
ATOM     19  C   UNL     1       0.731  -0.503   1.223  0.00  0.00    +0.084 A 
ATOM     20  C   UNL     1       2.102  -0.731   1.240  0.00  0.00    +0.118 A 
ATOM     21  S   UNL     1       2.304  -1.289   2.924  0.00  0.00    +0.042 S 
ATOM     22  N   UNL     1       0.755  -1.185   3.392  0.00  0.00    -0.110 NA
ATOM     23  N   UNL     1       0.126  -0.754   2.358  0.00  0.00    -0.145 NA
BRANCH  19  25
ATOM     24  C   UNL     1      -0.019   1.526   0.010  0.00  0.00    +0.010 C 
ATOM     25  C   UNL     1       0.002  -0.004   0.002  0.00  0.00    +0.055 C 
ENDBRANCH  19  25
ENDBRANCH  15  20
ENDBRANCH   1  17
TORSDOF 4
