REMARK  Name = ZINC31818689
REMARK  4 active torsions:
REMARK  status: ('A' for Active; 'I' for Inactive)
REMARK    1  A    between atoms: C_1  and  C_2
REMARK    2  A    between atoms: C_15  and  O_29
REMARK    3  A    between atoms: C_17  and  C_19
REMARK    4  A    between atoms: C_24  and  C_25
REMARK                            x       y       z     vdW  Elec       q    Type
REMARK                         _______ _______ _______ _____ _____    ______ ____
ROOT
ATOM      1  C   UNL     1       0.430   0.950  -0.192  0.00  0.00    +0.068 C 
ATOM      2  C   UNL     1       0.400  -0.539  -0.426  0.00  0.00    +0.066 A 
ATOM      3  C   UNL     1       0.139  -1.163  -1.631  0.00  0.00    +0.027 A 
ATOM      4  C   UNL     1       0.209  -2.534  -1.427  0.00  0.00    +0.165 A 
ATOM      5  N   UNL     1       0.501  -2.727  -0.119  0.00  0.00    -0.194 N 
ATOM      6  N   UNL     1       0.623  -1.463   0.481  0.00  0.00    -0.168 NA
ATOM      7  C   UNL     1       0.657  -3.962   0.518  0.00  0.00    +0.178 A 
ATOM      8  C   UNL     1       1.431  -4.060   1.674  0.00  0.00    +0.055 A 
ATOM      9  C   UNL     1       1.557  -5.304   2.268  0.00  0.00    +0.077 A 
ATOM     10  C   UNL     1       0.902  -6.381   1.675  0.00  0.00    +0.289 A 
ATOM     11  N   UNL     1       0.188  -6.194   0.577  0.00  0.00    -0.105 NA
ATOM     12  N   UNL     1       0.067  -5.040   0.028  0.00  0.00    -0.126 NA
ATOM     13  O   UNL     1       0.996  -7.620   2.222  0.00  0.00    -0.264 OA
ATOM     14  N   UNL     1       0.010  -3.419  -2.445  0.00  0.00    -0.197 NA
ATOM     15  C   UNL     1       0.033  -2.987  -3.671  0.00  0.00    +0.190 C 
ATOM     16  C   UNL     1       0.330  -1.565  -4.046  0.00  0.00    +0.108 C 
ATOM     17  C   UNL     1      -0.181  -0.582  -2.986  0.00  0.00    +0.064 C 
ENDROOT
BRANCH  17  18
ATOM     18  C   UNL     1      -1.671  -0.407  -3.128  0.00  0.00    -0.028 A 
ATOM     19  C   UNL     1      -2.519  -1.470  -2.880  0.00  0.00    +0.005 A 
ATOM     20  C   UNL     1      -3.885  -1.310  -3.010  0.00  0.00    +0.000 A 
ATOM     21  C   UNL     1      -4.404  -0.085  -3.387  0.00  0.00    +0.001 A 
ATOM     22  C   UNL     1      -3.557   0.979  -3.633  0.00  0.00    +0.012 A 
ATOM     23  C   UNL     1      -2.190   0.819  -3.499  0.00  0.00    +0.059 A 
BRANCH  23  24
ATOM     24  C   UNL     1      -1.266   1.980  -3.763  0.00  0.00    +0.418 C 
ATOM     25  F   UNL     1      -2.008   3.069  -4.231  0.00  0.00    -0.166 F 
ATOM     26  F   UNL     1      -0.613   2.335  -2.578  0.00  0.00    -0.166 F 
ATOM     27  F   UNL     1      -0.319   1.613  -4.725  0.00  0.00    -0.166 F 
ENDBRANCH  23  24
ENDBRANCH  17  18
BRANCH  15  28
ATOM     28  O   UNL     1      -0.225  -3.867  -4.660  0.00  0.00    -0.495 OA
ATOM     29  H   UNL     1      -0.408  -4.765  -4.351  0.00  0.00    +0.293 HD
ENDBRANCH  15  28
TORSDOF 3
