REMARK  Name = ZINC13121757
REMARK  10 active torsions:
REMARK  status: ('A' for Active; 'I' for Inactive)
REMARK    1  A    between atoms: C_1  and  C_2
REMARK    2  A    between atoms: C_2  and  C_3
REMARK    3  A    between atoms: C_3  and  N_4
REMARK    4  A    between atoms: C_5  and  C_24
REMARK    5  A    between atoms: C_8  and  C_15
REMARK    6  A    between atoms: C_18  and  C_22
REMARK    7  A    between atoms: C_20  and  O_21
REMARK    8  A    between atoms: C_27  and  O_32
REMARK    9  A    between atoms: C_28  and  O_30
REMARK   10  A    between atoms: O_30  and  C_31
REMARK                            x       y       z     vdW  Elec       q    Type
REMARK                         _______ _______ _______ _____ _____    ______ ____
ROOT
ATOM      1  N   UNL     1      -0.374  -2.287  -0.024  0.00  0.00    -0.285 N 
ATOM      2  C   UNL     1      -0.757  -2.972  -1.266  0.00  0.00    +0.141 C 
ATOM      3  C   UNL     1      -1.137  -4.372  -0.868  0.00  0.00    +0.035 A 
ATOM      4  C   UNL     1      -1.585  -5.633  -1.276  0.00  0.00    +0.102 A 
ATOM      5  N   UNL     1      -1.671  -6.388  -0.198  0.00  0.00    -0.173 NA
ATOM      6  N   UNL     1      -1.323  -5.729   0.849  0.00  0.00    -0.272 N 
ATOM      7  H   UNL     1      -1.308  -6.084   1.751  0.00  0.00    +0.189 HD
ATOM      8  C   UNL     1      -0.975  -4.454   0.501  0.00  0.00    +0.126 A 
ATOM      9  C   UNL     1      -0.498  -3.157   0.994  0.00  0.00    +0.265 C 
ATOM     10  O   UNL     1      -0.253  -2.903   2.158  0.00  0.00    -0.268 OA
ENDROOT
BRANCH   4  11
ATOM     11  C   UNL     1      -1.904  -6.045  -2.665  0.00  0.00    +0.045 A 
ATOM     12  C   UNL     1      -1.882  -5.108  -3.695  0.00  0.00    +0.034 A 
ATOM     13  C   UNL     1      -2.180  -5.497  -4.987  0.00  0.00    +0.045 A 
ATOM     14  C   UNL     1      -2.501  -6.816  -5.261  0.00  0.00    -0.029 A 
ATOM     15  C   UNL     1      -2.525  -7.753  -4.245  0.00  0.00    +0.050 A 
ATOM     16  C   UNL     1      -2.223  -7.377  -2.946  0.00  0.00    +0.126 A 
ATOM     17  C   UNL     1      -2.825  -7.231  -6.673  0.00  0.00    +0.045 C 
ATOM     18 CL   UNL     1      -2.152  -4.328  -6.270  0.00  0.00    -0.083 Cl
BRANCH  16  19
ATOM     19  O   UNL     1      -2.241  -8.299  -1.948  0.00  0.00    -0.506 OA
ATOM     20  H   UNL     1      -3.100  -8.392  -1.515  0.00  0.00    +0.292 HD
ENDBRANCH  16  19
ENDBRANCH   4  11
BRANCH   2  21
ATOM     21  C   UNL     1       0.406  -3.001  -2.223  0.00  0.00    -0.019 A 
ATOM     22  C   UNL     1       0.220  -2.643  -3.545  0.00  0.00    +0.009 A 
ATOM     23  C   UNL     1       1.285  -2.668  -4.427  0.00  0.00    +0.049 A 
ATOM     24  C   UNL     1       2.541  -3.051  -3.986  0.00  0.00    +0.158 A 
ATOM     25  C   UNL     1       2.728  -3.410  -2.655  0.00  0.00    +0.162 A 
ATOM     26  C   UNL     1       1.658  -3.379  -1.775  0.00  0.00    +0.055 A 
BRANCH  25  27
ATOM     27  O   UNL     1       3.960  -3.787  -2.217  0.00  0.00    -0.491 OA
ATOM     28  C   UNL     1       4.054  -4.256  -0.871  0.00  0.00    +0.277 C 
ENDBRANCH  25  27
BRANCH  24  29
ATOM     29  O   UNL     1       3.589  -3.076  -4.853  0.00  0.00    -0.503 OA
ATOM     30  H   UNL     1       4.078  -2.244  -4.903  0.00  0.00    +0.292 HD
ENDBRANCH  24  29
ENDBRANCH   2  21
BRANCH   1  31
ATOM     31  C   UNL     1       0.073  -0.896   0.085  0.00  0.00    +0.109 C 
BRANCH  31  33
ATOM     32  C   UNL     1       2.060   0.618   0.043  0.00  0.00    +0.005 C 
ATOM     33  C   UNL     1       1.593  -0.835  -0.071  0.00  0.00    +0.016 C 
ENDBRANCH  31  33
ENDBRANCH   1  31
TORSDOF 7
