REMARK  Name = ZINC48462203
REMARK  3 active torsions:
REMARK  status: ('A' for Active; 'I' for Inactive)
REMARK    1  A    between atoms: C_1  and  C_2
REMARK    2  A    between atoms: C_2  and  C_3
REMARK    3  A    between atoms: C_13  and  C_15
REMARK                            x       y       z     vdW  Elec       q    Type
REMARK                         _______ _______ _______ _____ _____    ______ ____
ROOT
ATOM      1  C   UNL     1      -2.167  -1.012  -0.106  0.00  0.00    +0.107 C 
ATOM      2  C   UNL     1      -2.621  -2.470  -0.068  0.00  0.00    -0.017 A 
ATOM      3  C   UNL     1      -2.765  -3.255  -1.211  0.00  0.00    +0.013 A 
ATOM      4  C   UNL     1      -3.168  -4.541  -1.101  0.00  0.00    +0.046 A 
ATOM      5  S   UNL     1      -3.370  -4.714   0.665  0.00  0.00    -0.101 S 
ATOM      6  C   UNL     1      -2.907  -3.064   1.122  0.00  0.00    -0.004 A 
ATOM      7  C   UNL     1      -2.847  -2.462   2.488  0.00  0.00    +0.062 C 
ATOM      8  C   UNL     1      -2.024  -1.166   2.419  0.00  0.00    +0.114 C 
ATOM      9  N   UNL     1      -2.429  -0.424   1.215  0.00  0.00    -0.289 N 
ATOM     10  C   UNL     1      -3.031   0.777   1.321  0.00  0.00    +0.263 C 
ATOM     11  O   UNL     1      -3.318   1.219   2.418  0.00  0.00    -0.268 OA
ENDROOT
BRANCH  10  12
ATOM     12  C   UNL     1      -3.341   1.551   0.115  0.00  0.00    +0.103 A 
ATOM     13  C   UNL     1      -4.206   2.623   0.034  0.00  0.00    +0.052 A 
ATOM     14  C   UNL     1      -4.200   3.057  -1.296  0.00  0.00    +0.059 A 
ATOM     15  C   UNL     1      -3.350   2.260  -1.989  0.00  0.00    +0.103 A 
ATOM     16  N   UNL     1      -2.818   1.345  -1.141  0.00  0.00    -0.356 N 
ATOM     17  H   UNL     1      -2.177   0.657  -1.381  0.00  0.00    +0.166 HD
ATOM     18 CL   UNL     1      -5.118   4.380  -1.943  0.00  0.00    -0.082 Cl
ENDBRANCH  10  12
BRANCH   1  20
ATOM     19  C   UNL     1      -0.245   0.520  -0.557  0.00  0.00    +0.006 C 
ATOM     20  C   UNL     1      -0.671  -0.943  -0.417  0.00  0.00    +0.024 C 
ENDBRANCH   1  20
TORSDOF 2
