REMARK  Name = ZINC39658527
REMARK  8 active torsions:
REMARK  status: ('A' for Active; 'I' for Inactive)
REMARK    1  A    between atoms: C_1  and  C_2
REMARK    2  A    between atoms: C_5  and  C_10
REMARK    3  A    between atoms: C_14  and  C_23
REMARK    4  A    between atoms: N_25  and  C_26
REMARK    5  A    between atoms: C_26  and  C_27
REMARK    6  A    between atoms: C_27  and  S_28
REMARK    7  A    between atoms: S_28  and  C_29
REMARK    8  A    between atoms: C_29  and  C_30
REMARK                            x       y       z     vdW  Elec       q    Type
REMARK                         _______ _______ _______ _____ _____    ______ ____
ROOT
ATOM      1  C   UNL     1       0.131  -4.057  -0.084  0.00  0.00    +0.250 C 
ATOM      2  O   UNL     1       0.169  -4.637   0.983  0.00  0.00    -0.270 OA
ATOM      3  N   UNL     1      -0.019  -4.757  -1.226  0.00  0.00    -0.296 N 
ATOM      4  C   UNL     1       0.020  -4.246  -2.617  0.00  0.00    +0.121 C 
ATOM      5  C   UNL     1       0.779  -5.332  -3.411  0.00  0.00    +0.100 C 
ATOM      6  C   UNL     1       0.591  -6.620  -2.593  0.00  0.00    -0.004 C 
ATOM      7  C   UNL     1      -0.252  -6.213  -1.376  0.00  0.00    +0.115 C 
ATOM      8  C   UNL     1      -0.145  -7.669  -3.421  0.00  0.00    -0.010 C 
ATOM      9  C   UNL     1      -0.269  -8.960  -2.606  0.00  0.00    -0.082 C 
ATOM     10  N   UNL     1       1.070  -9.444  -2.246  0.00  0.00    +0.379 N 
ATOM     11  C   UNL     1       1.736  -8.469  -1.373  0.00  0.00    -0.082 C 
ATOM     12  C   UNL     1       1.944  -7.157  -2.135  0.00  0.00    -0.010 C 
ATOM     13  H   UNL     1       0.988 -10.325  -1.762  0.00  0.00    -0.086 HD
ATOM     14  H   UNL     1       1.617  -9.572  -3.084  0.00  0.00    -0.086 HD
ENDROOT
BRANCH   1  19
ATOM     15  C   UNL     1       0.583   1.679  -0.267  0.00  0.00    +0.047 C 
ATOM     16  C   UNL     1       0.466   0.177  -0.218  0.00  0.00    -0.012 A 
ATOM     17  C   UNL     1      -0.335  -0.482  -1.134  0.00  0.00    +0.007 A 
ATOM     18  C   UNL     1      -0.448  -1.855  -1.096  0.00  0.00    +0.016 A 
ATOM     19  C   UNL     1       0.249  -2.586  -0.130  0.00  0.00    +0.075 A 
ATOM     20  C   UNL     1       1.058  -1.917   0.793  0.00  0.00    +0.171 A 
ATOM     21  C   UNL     1       1.166  -0.537   0.740  0.00  0.00    +0.162 A 
ATOM     22  F   UNL     1       1.951   0.114   1.626  0.00  0.00    -0.202 F 
ATOM     23  F   UNL     1       1.735  -2.614   1.731  0.00  0.00    -0.202 F 
ENDBRANCH   1  19
BRANCH   5  24
ATOM     24  C   UNL     1       0.183  -5.489  -4.786  0.00  0.00    +0.218 C 
ATOM     25  O   UNL     1      -1.000  -5.284  -4.962  0.00  0.00    -0.275 OA
ATOM     26  N   UNL     1       0.963  -5.857  -5.821  0.00  0.00    -0.314 N 
ATOM     27  H   UNL     1       1.909  -6.021  -5.681  0.00  0.00    +0.149 HD
BRANCH  26  28
ATOM     28  C   UNL     1       0.384  -6.011  -7.158  0.00  0.00    +0.115 C 
BRANCH  28  29
ATOM     29  C   UNL     1       1.476  -6.432  -8.143  0.00  0.00    +0.088 C 
BRANCH  29  30
ATOM     30  S   UNL     1       0.758  -6.622  -9.798  0.00  0.00    -0.155 S 
BRANCH  30  31
ATOM     31  C   UNL     1       2.164  -7.117 -10.832  0.00  0.00    +0.104 C 
BRANCH  31  32
ATOM     32  C   UNL     1       1.699  -7.311 -12.252  0.00  0.00    -0.038 A 
ATOM     33  C   UNL     1       1.247  -8.548 -12.669  0.00  0.00    +0.004 A 
ATOM     34  C   UNL     1       0.821  -8.726 -13.972  0.00  0.00    +0.000 A 
ATOM     35  C   UNL     1       0.846  -7.665 -14.858  0.00  0.00    +0.000 A 
ATOM     36  C   UNL     1       1.298  -6.427 -14.441  0.00  0.00    +0.000 A 
ATOM     37  C   UNL     1       1.720  -6.248 -13.137  0.00  0.00    +0.004 A 
ENDBRANCH  31  32
ENDBRANCH  30  31
ENDBRANCH  29  30
ENDBRANCH  28  29
ENDBRANCH  26  28
ENDBRANCH   5  24
TORSDOF 7
