REMARK  Name = ZINC05546465
REMARK  9 active torsions:
REMARK  status: ('A' for Active; 'I' for Inactive)
REMARK    1  A    between atoms: C_1  and  C_2
REMARK    2  A    between atoms: C_5  and  N_8
REMARK    3  A    between atoms: C_9  and  O_30
REMARK    4  A    between atoms: C_10  and  C_14
REMARK    5  A    between atoms: C_11  and  C_13
REMARK    6  A    between atoms: C_16  and  C_29
REMARK    7  A    between atoms: N_18  and  C_21
REMARK    8  A    between atoms: C_24  and  C_28
REMARK    9  A    between atoms: C_26  and  C_27
REMARK                            x       y       z     vdW  Elec       q    Type
REMARK                         _______ _______ _______ _____ _____    ______ ____
ROOT
ATOM      1  C   UNL     1      -4.522  -1.802  -1.150  0.00  0.00    +0.030 C 
ATOM      2  C   UNL     1      -3.287  -1.651  -0.530  0.00  0.00    +0.062 C 
ATOM      3  C   UNL     1      -2.689  -2.516   0.495  0.00  0.00    +0.069 C 
ATOM      4  N   UNL     1      -1.527  -2.021   0.797  0.00  0.00    -0.177 NA
ATOM      5  N   UNL     1      -1.264  -0.862   0.066  0.00  0.00    -0.156 N 
ATOM      6  C   UNL     1      -2.296  -0.592  -0.759  0.00  0.00    +0.272 C 
ATOM      7  O   UNL     1      -2.388   0.344  -1.536  0.00  0.00    -0.268 OA
ATOM      8  C   UNL     1      -3.308  -3.756   1.086  0.00  0.00    +0.068 C 
ENDROOT
BRANCH   5   9
ATOM      9  C   UNL     1      -0.097  -0.096   0.169  0.00  0.00    +0.063 A 
ATOM     10  C   UNL     1      -0.178   1.263   0.445  0.00  0.00    +0.026 A 
ATOM     11  C   UNL     1       0.975   2.016   0.546  0.00  0.00    +0.005 A 
ATOM     12  C   UNL     1       2.210   1.419   0.372  0.00  0.00    -0.050 A 
ATOM     13  C   UNL     1       2.295   0.067   0.096  0.00  0.00    +0.008 A 
ATOM     14  C   UNL     1       1.145  -0.692  -0.006  0.00  0.00    -0.027 A 
ATOM     15  C   UNL     1       1.238  -2.166  -0.306  0.00  0.00    +0.046 C 
ATOM     16  C   UNL     1       3.466   2.244   0.482  0.00  0.00    +0.044 C 
ENDBRANCH   5   9
BRANCH   1  19
ATOM     17  N   UNL     1      -4.900   0.140  -4.137  0.00  0.00    -0.200 N 
ATOM     18  C   UNL     1      -4.202  -0.759  -3.416  0.00  0.00    +0.223 A 
ATOM     19  C   UNL     1      -4.889  -0.947  -2.211  0.00  0.00    +0.060 A 
ATOM     20  C   UNL     1      -6.068  -0.082  -2.276  0.00  0.00    +0.071 A 
ATOM     21  N   UNL     1      -6.030   0.541  -3.420  0.00  0.00    -0.168 NA
ATOM     22  C   UNL     1      -7.128   0.065  -1.215  0.00  0.00    +0.068 C 
BRANCH  17  27
ATOM     23  C   UNL     1      -3.466   2.017  -9.297  0.00  0.00    +0.044 C 
ATOM     24  C   UNL     1      -3.846   1.518  -7.927  0.00  0.00    -0.050 A 
ATOM     25  C   UNL     1      -5.179   1.354  -7.599  0.00  0.00    +0.005 A 
ATOM     26  C   UNL     1      -5.532   0.897  -6.344  0.00  0.00    +0.028 A 
ATOM     27  C   UNL     1      -4.545   0.604  -5.411  0.00  0.00    +0.069 A 
ATOM     28  C   UNL     1      -3.208   0.776  -5.742  0.00  0.00    +0.028 A 
ATOM     29  C   UNL     1      -2.862   1.227  -7.001  0.00  0.00    +0.005 A 
ENDBRANCH  17  27
BRANCH  18  30
ATOM     30  O   UNL     1      -3.053  -1.367  -3.788  0.00  0.00    -0.492 OA
ATOM     31  H   UNL     1      -3.184  -2.177  -4.300  0.00  0.00    +0.294 HD
ENDBRANCH  18  30
ENDBRANCH   1  19
TORSDOF 4
