REMARK  Name = ZINC01581992
REMARK  6 active torsions:
REMARK  status: ('A' for Active; 'I' for Inactive)
REMARK    1  A    between atoms: C_1  and  C_2
REMARK    2  A    between atoms: C_5  and  S_8
REMARK    3  A    between atoms: S_8  and  N_11
REMARK    4  A    between atoms: N_11  and  N_12
REMARK    5  A    between atoms: C_13  and  C_14
REMARK    6  A    between atoms: C_18  and  N_20
REMARK                            x       y       z     vdW  Elec       q    Type
REMARK                         _______ _______ _______ _____ _____    ______ ____
ROOT
ATOM      1  N   UNL     1       2.260  -2.532  -2.463  0.00  0.00    -0.174 NA
ATOM      2  C   UNL     1       2.253  -2.910  -3.704  0.00  0.00    +0.143 C 
ENDROOT
BRANCH   2   3
ATOM      3  C   UNL     1       3.345  -2.499  -4.606  0.00  0.00    +0.045 A 
ATOM      4  C   UNL     1       3.341  -2.903  -5.943  0.00  0.00    +0.027 A 
ATOM      5  C   UNL     1       4.365  -2.515  -6.782  0.00  0.00    +0.016 A 
ATOM      6  C   UNL     1       5.397  -1.725  -6.303  0.00  0.00    +0.051 A 
ATOM      7  C   UNL     1       5.412  -1.319  -4.982  0.00  0.00    +0.174 A 
ATOM      8  C   UNL     1       4.388  -1.695  -4.128  0.00  0.00    +0.218 A 
ATOM      9  I   UNL     1       4.358  -3.122  -8.787  0.00  0.00    -0.044 I 
ATOM     10  O   UNL     1       4.399  -1.292  -2.831  0.00  0.00    -0.285 OA
BRANCH   7  11
ATOM     11  N   UNL     1       6.519  -0.475  -4.481  0.00  0.00    +0.060 N 
ATOM     12  O   UNL     1       7.417  -0.139  -5.232  0.00  0.00    -0.126 OA
ATOM     13  O   UNL     1       6.533  -0.116  -3.317  0.00  0.00    -0.126 OA
ENDBRANCH   7  11
ENDBRANCH   2   3
BRANCH   1  14
ATOM     14  N   UNL     1       1.223  -2.923  -1.606  0.00  0.00    -0.137 N 
ATOM     15  H   UNL     1       0.500  -3.476  -1.940  0.00  0.00    +0.197 HD
BRANCH  14  16
ATOM     16  S   UNL     1       1.232  -2.441  -0.022  0.00  0.00    +0.086 S 
ATOM     17  O   UNL     1       2.489  -2.832   0.515  0.00  0.00    -0.149 OA
ATOM     18  O   UNL     1      -0.002  -2.866   0.539  0.00  0.00    -0.149 OA
BRANCH  16  23
ATOM     19  C   UNL     1       1.151   3.592   0.010  0.00  0.00    +0.044 C 
ATOM     20  C   UNL     1       1.171   2.086   0.002  0.00  0.00    -0.050 A 
ATOM     21  C   UNL     1      -0.017   1.378   0.010  0.00  0.00    +0.005 A 
ATOM     22  C   UNL     1       0.002  -0.004   0.002  0.00  0.00    +0.029 A 
ATOM     23  C   UNL     1       1.208  -0.679  -0.013  0.00  0.00    +0.110 A 
ATOM     24  C   UNL     1       2.396   0.029  -0.021  0.00  0.00    +0.029 A 
ATOM     25  C   UNL     1       2.377   1.411  -0.015  0.00  0.00    +0.005 A 
ENDBRANCH  16  23
ENDBRANCH  14  16
ENDBRANCH   1  14
TORSDOF 5
