REMARK  Name = ZINC20075950
REMARK  12 active torsions:
REMARK  status: ('A' for Active; 'I' for Inactive)
REMARK    1  A    between atoms: C_1  and  C_2
REMARK    2  A    between atoms: C_2  and  N_3
REMARK    3  A    between atoms: N_3  and  C_4
REMARK    4  A    between atoms: N_3  and  C_37
REMARK    5  A    between atoms: C_4  and  C_5
REMARK    6  A    between atoms: C_9  and  C_10
REMARK    7  A    between atoms: N_12  and  N_13
REMARK    8  A    between atoms: C_14  and  C_15
REMARK    9  A    between atoms: C_14  and  C_23
REMARK   10  A    between atoms: C_16  and  C_17
REMARK   11  A    between atoms: C_24  and  C_25
REMARK   12  A    between atoms: C_37  and  C_38
REMARK                            x       y       z     vdW  Elec       q    Type
REMARK                         _______ _______ _______ _____ _____    ______ ____
ROOT
ATOM      1  C   UNL     1      -0.365  -3.220  -3.646  0.00  0.00    +0.285 C 
ATOM      2  O   UNL     1      -1.248  -2.617  -3.064  0.00  0.00    -0.267 OA
ATOM      3  N   UNL     1      -0.651  -3.924  -4.759  0.00  0.00    -0.201 N 
ATOM      4  H   UNL     1       0.052  -4.404  -5.223  0.00  0.00    +0.178 HD
ENDROOT
BRANCH   1   9
ATOM      5  C   UNL     1       1.437  -2.506  -2.022  0.00  0.00    +0.063 A 
ATOM      6  N   UNL     1       2.764  -2.734  -1.905  0.00  0.00    -0.194 N 
ATOM      7  N   UNL     1       3.128  -3.557  -2.980  0.00  0.00    -0.058 NA
ATOM      8  N   UNL     1       2.077  -3.796  -3.684  0.00  0.00    -0.124 NA
ATOM      9  C   UNL     1       1.017  -3.179  -3.134  0.00  0.00    +0.170 A 
ATOM     10  C   UNL     1       3.611  -2.244  -0.905  0.00  0.00    +0.240 A 
ATOM     11  N   UNL     1       3.253  -1.483   0.091  0.00  0.00    -0.027 NA
ATOM     12  O   UNL     1       4.407  -1.214   0.869  0.00  0.00    -0.239 OA
ATOM     13  N   UNL     1       5.499  -1.878   0.258  0.00  0.00    -0.032 NA
ATOM     14  C   UNL     1       5.049  -2.503  -0.795  0.00  0.00    +0.206 A 
ATOM     15  N   UNL     1       5.805  -3.278  -1.667  0.00  0.00    -0.337 N 
ATOM     16  H   UNL     1       5.382  -3.703  -2.429  0.00  0.00    +0.144 HD
ATOM     17  H   UNL     1       6.756  -3.393  -1.514  0.00  0.00    +0.144 HD
BRANCH   5  18
ATOM     18  C   UNL     1       0.583  -1.674  -1.099  0.00  0.00    -0.020 C 
BRANCH  18  19
ATOM     19  N   UNL     1       0.561  -0.284  -1.573  0.00  0.00    +0.383 N 
ATOM     20  H   UNL     1       1.507   0.056  -1.662  0.00  0.00    -0.081 HD
BRANCH  19  22
ATOM     21  C   UNL     1       0.599   0.598   0.711  0.00  0.00    -0.017 C 
ATOM     22  C   UNL     1      -0.170   0.550  -0.610  0.00  0.00    -0.082 C 
ENDBRANCH  19  22
BRANCH  19  23
ATOM     23  C   UNL     1      -0.106  -0.223  -2.880  0.00  0.00    -0.082 C 
ATOM     24  C   UNL     1       0.009   1.194  -3.446  0.00  0.00    -0.017 C 
ENDBRANCH  19  23
ENDBRANCH  18  19
ENDBRANCH   5  18
ENDBRANCH   1   9
BRANCH   3  25
ATOM     25  N   UNL     1      -1.964  -3.963  -5.246  0.00  0.00    -0.180 NA
ATOM     26  C   UNL     1      -2.226  -4.567  -6.383  0.00  0.00    +0.082 C 
BRANCH  26  27
ATOM     27  C   UNL     1      -3.580  -4.506  -6.953  0.00  0.00    +0.030 C 
ATOM     28  C   UNL     1      -4.551  -3.832  -6.311  0.00  0.00    +0.010 C 
BRANCH  28  29
ATOM     29  C   UNL     1      -5.907  -3.772  -6.882  0.00  0.00    -0.025 A 
ATOM     30  C   UNL     1      -6.191  -4.418  -8.089  0.00  0.00    +0.008 A 
ATOM     31  C   UNL     1      -7.463  -4.357  -8.617  0.00  0.00    +0.001 A 
ATOM     32  C   UNL     1      -8.458  -3.657  -7.957  0.00  0.00    +0.000 A 
ATOM     33  C   UNL     1      -8.184  -3.014  -6.762  0.00  0.00    +0.001 A 
ATOM     34  C   UNL     1      -6.919  -3.072  -6.218  0.00  0.00    +0.008 A 
ENDBRANCH  28  29
ENDBRANCH  26  27
BRANCH  26  35
ATOM     35  C   UNL     1      -1.165  -5.304  -7.085  0.00  0.00    +0.030 C 
ATOM     36  C   UNL     1      -1.402  -5.829  -8.301  0.00  0.00    +0.010 C 
BRANCH  36  37
ATOM     37  C   UNL     1      -0.380  -6.666  -8.953  0.00  0.00    -0.025 A 
ATOM     38  C   UNL     1       0.834  -6.921  -8.310  0.00  0.00    +0.008 A 
ATOM     39  C   UNL     1       1.786  -7.706  -8.928  0.00  0.00    +0.001 A 
ATOM     40  C   UNL     1       1.540  -8.239 -10.181  0.00  0.00    +0.000 A 
ATOM     41  C   UNL     1       0.341  -7.990 -10.824  0.00  0.00    +0.001 A 
ATOM     42  C   UNL     1      -0.623  -7.213 -10.216  0.00  0.00    +0.008 A 
ENDBRANCH  36  37
ENDBRANCH  26  35
ENDBRANCH   3  25
TORSDOF 10
