REMARK  Name = ZINC21221619
REMARK  7 active torsions:
REMARK  status: ('A' for Active; 'I' for Inactive)
REMARK    1  A    between atoms: C_1  and  C_2
REMARK    2  A    between atoms: C_2  and  O_3
REMARK    3  A    between atoms: O_3  and  C_4
REMARK    4  A    between atoms: C_5  and  C_12
REMARK    5  A    between atoms: C_9  and  O_10
REMARK    6  A    between atoms: O_10  and  C_11
REMARK    7  A    between atoms: C_17  and  C_22
REMARK                            x       y       z     vdW  Elec       q    Type
REMARK                         _______ _______ _______ _____ _____    ______ ____
ROOT
ATOM      1  C   UNL     1      -3.361   8.766  -0.002  0.00  0.00    +0.140 C 
ATOM      2  C   UNL     1      -2.715   7.399  -0.028  0.00  0.00    +0.037 C 
ATOM      3  C   UNL     1      -2.372   6.670   1.045  0.00  0.00    +0.017 C 
ATOM      4  C   UNL     1      -1.772   5.284   0.870  0.00  0.00    +0.060 C 
ATOM      5  C   UNL     1      -0.919   5.245  -0.397  0.00  0.00    +0.039 C 
ATOM      6  C   UNL     1      -1.829   5.579  -1.585  0.00  0.00    +0.088 C 
ATOM      7  C   UNL     1      -2.479   6.905  -1.333  0.00  0.00    +0.163 C 
ATOM      8  O   UNL     1      -2.817   7.582  -2.284  0.00  0.00    -0.292 OA
ATOM      9  N   UNL     1      -2.524   7.057   2.338  0.00  0.00    -0.316 N 
ATOM     10  C   UNL     1      -3.684   7.615   2.866  0.00  0.00    +0.052 A 
ATOM     11  C   UNL     1      -4.421   6.991   3.857  0.00  0.00    +0.025 A 
ATOM     12  C   UNL     1      -5.540   7.625   4.371  0.00  0.00    +0.002 A 
ATOM     13  C   UNL     1      -5.913   8.870   3.899  0.00  0.00    +0.002 A 
ATOM     14  C   UNL     1      -5.186   9.487   2.896  0.00  0.00    +0.025 A 
ATOM     15  C   UNL     1      -4.079   8.845   2.363  0.00  0.00    +0.049 A 
ATOM     16  N   UNL     1      -3.365   9.396   1.301  0.00  0.00    -0.331 N 
ATOM     17  H   UNL     1      -1.694   6.937   3.049  0.00  0.00    +0.152 HD
ATOM     18  H   UNL     1      -2.799  10.324   1.465  0.00  0.00    +0.147 HD
ENDROOT
BRANCH   1  20
ATOM     19  C   UNL     1      -5.491   9.755  -0.875  0.00  0.00    +0.167 A 
ATOM     20  C   UNL     1      -4.785   8.632  -0.475  0.00  0.00    +0.023 A 
ATOM     21  C   UNL     1      -5.389   7.389  -0.504  0.00  0.00    +0.009 A 
ATOM     22  C   UNL     1      -6.696   7.262  -0.937  0.00  0.00    +0.004 A 
ATOM     23  C   UNL     1      -7.404   8.378  -1.343  0.00  0.00    +0.049 A 
ATOM     24  C   UNL     1      -6.804   9.626  -1.317  0.00  0.00    +0.162 A 
BRANCH  24  25
ATOM     25  O   UNL     1      -7.500  10.725  -1.715  0.00  0.00    -0.491 OA
ATOM     26  C   UNL     1      -8.845  10.519  -2.150  0.00  0.00    +0.277 C 
ENDBRANCH  24  25
BRANCH  19  27
ATOM     27  O   UNL     1      -4.900  10.979  -0.842  0.00  0.00    -0.488 OA
BRANCH  27  29
ATOM     28  C   UNL     1      -3.584  12.770  -1.793  0.00  0.00    +0.048 C 
ATOM     29  C   UNL     1      -4.301  11.443  -2.054  0.00  0.00    +0.226 C 
ENDBRANCH  27  29
ENDBRANCH  19  27
ENDBRANCH   1  20
BRANCH   5  30
ATOM     30  C   UNL     1      -0.331   3.869  -0.575  0.00  0.00    -0.006 A 
ATOM     31  C   UNL     1       0.971   3.500  -0.647  0.00  0.00    +0.011 A 
ATOM     32  C   UNL     1       1.281   2.163  -0.814  0.00  0.00    +0.008 A 
ATOM     33  C   UNL     1       0.273   1.261  -0.901  0.00  0.00    +0.045 A 
ATOM     34  S   UNL     1      -1.169   2.303  -0.751  0.00  0.00    -0.101 S 
ENDBRANCH   5  30
TORSDOF 5
