REMARK  Name = ZINC55260458
REMARK  7 active torsions:
REMARK  status: ('A' for Active; 'I' for Inactive)
REMARK    1  A    between atoms: C_1  and  C_2
REMARK    2  A    between atoms: C_10  and  C_11
REMARK    3  A    between atoms: C_11  and  C_13
REMARK    4  A    between atoms: C_11  and  N_14
REMARK    5  A    between atoms: N_14  and  S_15
REMARK    6  A    between atoms: S_15  and  C_18
REMARK    7  A    between atoms: N_27  and  C_28
REMARK                            x       y       z     vdW  Elec       q    Type
REMARK                         _______ _______ _______ _____ _____    ______ ____
ROOT
ATOM      1  N   UNL     1      -0.928  -1.145   3.277  0.00  0.00    -0.180 NA
ATOM      2  H   UNL     1      -1.062  -2.083   3.068  0.00  0.00    +0.149 HD
ENDROOT
BRANCH   1   3
ATOM      3  S   UNL     1      -1.783  -0.441   4.508  0.00  0.00    +0.059 S 
ATOM      4  O   UNL     1      -2.635  -1.447   5.038  0.00  0.00    -0.153 OA
ATOM      5  O   UNL     1      -0.840   0.259   5.309  0.00  0.00    -0.153 OA
BRANCH   3   6
ATOM      6  C   UNL     1      -2.831   0.777   3.784  0.00  0.00    +0.109 A 
ATOM      7  C   UNL     1      -2.373   2.074   3.626  0.00  0.00    +0.031 A 
ATOM      8  C   UNL     1      -3.189   3.034   3.060  0.00  0.00    +0.031 A 
ATOM      9  C   UNL     1      -4.468   2.696   2.648  0.00  0.00    +0.090 A 
ATOM     10  C   UNL     1      -4.930   1.390   2.807  0.00  0.00    +0.159 A 
ATOM     11  C   UNL     1      -4.103   0.432   3.372  0.00  0.00    +0.077 A 
ATOM     12  O   UNL     1      -6.197   1.349   2.324  0.00  0.00    -0.407 OA
ATOM     13  C   UNL     1      -6.537   2.568   1.876  0.00  0.00    +0.421 A 
ATOM     14  O   UNL     1      -7.609   2.861   1.383  0.00  0.00    -0.223 OA
ATOM     15  N   UNL     1      -5.506   3.417   2.058  0.00  0.00    -0.277 N 
ATOM     16  C   UNL     1      -5.480   4.837   1.700  0.00  0.00    +0.156 C 
ENDBRANCH   3   6
ENDBRANCH   1   3
BRANCH   1  17
ATOM     17  C   UNL     1       0.030  -0.352   2.503  0.00  0.00    +0.139 C 
ATOM     18  C   UNL     1       1.432  -0.532   3.090  0.00  0.00    +0.034 C 
BRANCH  17  28
ATOM     19  C   UNL     1      -0.018   1.503   0.010  0.00  0.00    +0.048 C 
ATOM     20  C   UNL     1       0.002  -0.004   0.002  0.00  0.00    -0.000 A 
ATOM     21  C   UNL     1       0.009  -0.879  -1.177  0.00  0.00    +0.023 A 
ATOM     22  C   UNL     1       0.000  -0.660  -2.553  0.00  0.00    +0.012 A 
ATOM     23  C   UNL     1       0.011  -1.726  -3.409  0.00  0.00    +0.001 A 
ATOM     24  C   UNL     1       0.031  -3.023  -2.916  0.00  0.00    +0.004 A 
ATOM     25  C   UNL     1       0.040  -3.259  -1.558  0.00  0.00    +0.047 A 
ATOM     26  C   UNL     1       0.029  -2.190  -0.671  0.00  0.00    +0.136 A 
ATOM     27  O   UNL     1       0.033  -2.100   0.674  0.00  0.00    -0.458 OA
ATOM     28  C   UNL     1       0.023  -0.814   1.069  0.00  0.00    +0.127 A 
ENDBRANCH  17  28
ENDBRANCH   1  17
TORSDOF 4
