REMARK  Name = ZINC36614338
REMARK  7 active torsions:
REMARK  status: ('A' for Active; 'I' for Inactive)
REMARK    1  A    between atoms: C_1  and  C_2
REMARK    2  A    between atoms: C_2  and  C_3
REMARK    3  A    between atoms: C_3  and  C_4
REMARK    4  A    between atoms: C_4  and  N_5
REMARK    5  A    between atoms: C_8  and  C_19
REMARK    6  A    between atoms: C_10  and  C_12
REMARK    7  A    between atoms: C_15  and  O_18
REMARK                            x       y       z     vdW  Elec       q    Type
REMARK                         _______ _______ _______ _____ _____    ______ ____
ROOT
ATOM      1  N   UNL     1       1.471  -2.526   2.420  0.00  0.00    -0.305 N 
ATOM      2  C   UNL     1       0.766  -2.770   3.585  0.00  0.00    +0.149 A 
ATOM      3  C   UNL     1       1.471  -3.236   4.712  0.00  0.00    +0.093 A 
ATOM      4  C   UNL     1       0.785  -3.491   5.901  0.00  0.00    +0.073 A 
ATOM      5  C   UNL     1      -0.579  -3.272   5.923  0.00  0.00    +0.041 A 
ATOM      6  C   UNL     1      -1.217  -2.809   4.770  0.00  0.00    +0.074 A 
ATOM      7  N   UNL     1      -0.538  -2.575   3.653  0.00  0.00    -0.229 NA
ATOM      8  C   UNL     1       2.923  -3.441   4.596  0.00  0.00    +0.262 A 
ATOM      9  O   UNL     1       3.575  -3.842   5.541  0.00  0.00    -0.267 OA
ATOM     10  N   UNL     1       3.513  -3.172   3.410  0.00  0.00    -0.302 N 
ATOM     11  C   UNL     1       2.797  -2.734   2.363  0.00  0.00    +0.162 A 
ATOM     12  S   UNL     1       3.611  -2.421   0.889  0.00  0.00    -0.013 S 
ATOM     13  H   UNL     1       4.470  -3.300   3.314  0.00  0.00    +0.171 HD
ENDROOT
BRANCH   6  14
ATOM     14  C   UNL     1      -2.679  -2.574   4.794  0.00  0.00    +0.001 A 
ATOM     15  C   UNL     1      -3.406  -2.809   5.961  0.00  0.00    +0.013 A 
ATOM     16  C   UNL     1      -4.766  -2.589   5.980  0.00  0.00    +0.046 A 
ATOM     17  C   UNL     1      -5.414  -2.134   4.839  0.00  0.00    +0.117 A 
ATOM     18  C   UNL     1      -4.693  -1.899   3.675  0.00  0.00    +0.046 A 
ATOM     19  C   UNL     1      -3.332  -2.111   3.651  0.00  0.00    +0.013 A 
BRANCH  17  20
ATOM     20  O   UNL     1      -6.755  -1.918   4.861  0.00  0.00    -0.507 OA
ATOM     21  H   UNL     1      -7.005  -1.021   5.122  0.00  0.00    +0.292 HD
ENDBRANCH  17  20
ENDBRANCH   6  14
BRANCH   4  22
ATOM     22  C   UNL     1       1.510  -3.991   7.124  0.00  0.00    +0.418 C 
ATOM     23  F   UNL     1       0.597  -4.163   8.169  0.00  0.00    -0.166 F 
ATOM     24  F   UNL     1       2.124  -5.214   6.834  0.00  0.00    -0.166 F 
ATOM     25  F   UNL     1       2.482  -3.059   7.503  0.00  0.00    -0.166 F 
ENDBRANCH   4  22
BRANCH   1  26
ATOM     26  C   UNL     1       0.763  -2.041   1.233  0.00  0.00    +0.126 C 
BRANCH  26  27
ATOM     27  C   UNL     1       0.742  -0.511   1.242  0.00  0.00    +0.021 C 
BRANCH  27  29
ATOM     28  C   UNL     1      -0.019   1.526   0.010  0.00  0.00    +0.004 C 
ATOM     29  C   UNL     1       0.002  -0.004   0.002  0.00  0.00    -0.002 C 
ENDBRANCH  27  29
ENDBRANCH  26  27
ENDBRANCH   1  26
TORSDOF 6
