REMARK  Name = ZINC65408095
REMARK  8 active torsions:
REMARK  status: ('A' for Active; 'I' for Inactive)
REMARK    1  A    between atoms: C_1  and  C_2
REMARK    2  A    between atoms: C_3  and  C_24
REMARK    3  A    between atoms: C_7  and  N_8
REMARK    4  A    between atoms: N_8  and  C_9
REMARK    5  A    between atoms: C_9  and  C_10
REMARK    6  A    between atoms: C_13  and  C_15
REMARK    7  A    between atoms: N_21  and  C_22
REMARK    8  A    between atoms: N_21  and  C_23
REMARK                            x       y       z     vdW  Elec       q    Type
REMARK                         _______ _______ _______ _____ _____    ______ ____
ROOT
ATOM      1  N   UNL     1       0.025  -0.065   2.416  0.00  0.00    -0.323 N 
ATOM      2  H   UNL     1       0.012   0.905   2.442  0.00  0.00    +0.148 HD
ENDROOT
BRANCH   1   9
ATOM      3  C   UNL     1      -0.018   1.503   0.010  0.00  0.00    +0.049 C 
ATOM      4  C   UNL     1       0.002  -0.004   0.002  0.00  0.00    +0.008 A 
ATOM      5  C   UNL     1       0.006  -0.704  -1.189  0.00  0.00    +0.022 A 
ATOM      6  N   UNL     1       0.025  -2.028  -1.162  0.00  0.00    -0.331 N 
ATOM      7  C   UNL     1       0.039  -2.686  -0.012  0.00  0.00    +0.197 A 
ATOM      8  N   UNL     1       0.035  -2.053   1.151  0.00  0.00    -0.201 NA
ATOM      9  C   UNL     1       0.023  -0.725   1.198  0.00  0.00    +0.127 A 
ATOM     10  N   UNL     1       0.058  -4.070  -0.027  0.00  0.00    -0.307 N 
ATOM     11  C   UNL     1       0.062  -4.789  -1.303  0.00  0.00    +0.132 C 
ATOM     12  C   UNL     1       0.074  -4.816   1.234  0.00  0.00    +0.132 C 
ATOM     13  C   UNL     1      -0.011   0.031  -2.504  0.00  0.00    +0.064 C 
ATOM     14  H   UNL     1       0.028  -2.523  -1.996  0.00  0.00    +0.168 HD
ENDBRANCH   1   9
BRANCH   1  15
ATOM     15  C   UNL     1       0.048  -0.831   3.664  0.00  0.00    +0.159 C 
BRANCH  15  16
ATOM     16  C   UNL     1       0.045   0.117   4.836  0.00  0.00    +0.066 A 
ATOM     17  C   UNL     1      -1.127   0.446   5.445  0.00  0.00    +0.072 A 
ATOM     18  S   UNL     1      -0.538   1.557   6.716  0.00  0.00    -0.074 S 
ATOM     19  C   UNL     1       1.199   1.463   6.299  0.00  0.00    +0.128 A 
ATOM     20  N   UNL     1       1.173   0.622   5.274  0.00  0.00    -0.241 NA
BRANCH  19  21
ATOM     21  C   UNL     1       2.353   2.136   6.931  0.00  0.00    +0.114 A 
ATOM     22  C   UNL     1       2.158   2.986   8.023  0.00  0.00    +0.141 A 
ATOM     23  N   UNL     1       3.192   3.584   8.582  0.00  0.00    -0.260 NA
ATOM     24  C   UNL     1       4.411   3.380   8.111  0.00  0.00    +0.130 A 
ATOM     25  C   UNL     1       4.609   2.540   7.029  0.00  0.00    +0.131 A 
ATOM     26  N   UNL     1       3.583   1.932   6.465  0.00  0.00    -0.250 NA
ENDBRANCH  19  21
ENDBRANCH  15  16
ENDBRANCH   1  15
TORSDOF 4
