REMARK  Name = ZINC36328226
REMARK  6 active torsions:
REMARK  status: ('A' for Active; 'I' for Inactive)
REMARK    1  A    between atoms: C_1  and  N_2
REMARK    2  A    between atoms: N_2  and  C_3
REMARK    3  A    between atoms: N_2  and  C_10
REMARK    4  A    between atoms: C_10  and  C_12
REMARK    5  A    between atoms: C_10  and  C_14
REMARK    6  A    between atoms: C_12  and  N_13
REMARK                            x       y       z     vdW  Elec       q    Type
REMARK                         _______ _______ _______ _____ _____    ______ ____
ROOT
ATOM      1  C   UNL     1      -0.592  -1.105  -0.623  0.00  0.00    +0.072 C 
ENDROOT
BRANCH   1   2
ATOM      2  C   UNL     1      -1.115  -2.058   0.421  0.00  0.00    +0.004 A 
ATOM      3  C   UNL     1      -1.441  -1.591   1.681  0.00  0.00    +0.023 A 
ATOM      4  C   UNL     1      -1.921  -2.466   2.639  0.00  0.00    +0.018 A 
ATOM      5  C   UNL     1      -2.074  -3.807   2.338  0.00  0.00    +0.018 A 
ATOM      6  C   UNL     1      -1.749  -4.275   1.079  0.00  0.00    +0.040 A 
ATOM      7  C   UNL     1      -1.274  -3.399   0.117  0.00  0.00    +0.128 A 
ATOM      8  F   UNL     1      -0.960  -3.854  -1.115  0.00  0.00    -0.205 F 
ATOM      9 BR   UNL     1      -2.366  -1.827   4.362  0.00  0.00    -0.050 Br
ENDBRANCH   1   2
BRANCH   1  11
ATOM     10  C   UNL     1      -1.303   0.950   0.442  0.00  0.00    +0.105 C 
ATOM     11  N   UNL     1      -0.152   0.138   0.025  0.00  0.00    -0.297 NA
BRANCH  11  12
ATOM     12  C   UNL     1       0.733  -0.145   1.162  0.00  0.00    +0.057 C 
ATOM     13  C   UNL     1       1.690  -1.247   0.796  0.00  0.00    +0.019 C 
ATOM     14  C   UNL     1       2.035  -2.151   1.995  0.00  0.00    +0.002 C 
ATOM     15  C   UNL     1       2.267  -1.356   3.294  0.00  0.00    +0.000 C 
ATOM     16  C   UNL     1       3.066  -0.102   3.067  0.00  0.00    +0.000 C 
ATOM     17  C   UNL     1       2.087   1.072   2.862  0.00  0.00    +0.002 C 
ATOM     18  C   UNL     1       1.548   1.116   1.511  0.00  0.00    +0.019 C 
ENDBRANCH  11  12
ENDBRANCH   1  11
BRANCH   1  19
ATOM     19  C   UNL     1      -1.702  -0.791  -1.628  0.00  0.00    -0.062 C 
BRANCH  19  20
ATOM     20  N   UNL     1      -1.275   0.310  -2.502  0.00  0.00    +0.379 N 
ATOM     21  H   UNL     1      -2.011   0.525  -3.157  0.00  0.00    -0.090 HD
ATOM     22  H   UNL     1      -1.073   1.125  -1.942  0.00  0.00    -0.090 HD
ATOM     23  H   UNL     1      -0.445   0.036  -3.007  0.00  0.00    -0.090 HD
ENDBRANCH  19  20
ENDBRANCH   1  19
TORSDOF 5
