REMARK  Name = ZINC18350626
REMARK  8 active torsions:
REMARK  status: ('A' for Active; 'I' for Inactive)
REMARK    1  A    between atoms: C_1  and  C_2
REMARK    2  A    between atoms: N_11  and  C_15
REMARK    3  A    between atoms: C_15  and  C_16
REMARK    4  A    between atoms: N_18  and  C_19
REMARK    5  A    between atoms: C_19  and  C_21
REMARK    6  A    between atoms: C_19  and  C_32
REMARK    7  A    between atoms: C_32  and  C_33
REMARK    8  A    between atoms: C_32  and  C_34
REMARK                            x       y       z     vdW  Elec       q    Type
REMARK                         _______ _______ _______ _____ _____    ______ ____
ROOT
ATOM      1  C   UNL     1       5.686  -0.707   1.390  0.00  0.00    +0.231 C 
ATOM      2  O   UNL     1       5.821  -1.888   1.151  0.00  0.00    -0.274 OA
ATOM      3  N   UNL     1       4.662  -0.021   0.845  0.00  0.00    -0.307 N 
ATOM      4  H   UNL     1       4.554   0.924   1.036  0.00  0.00    +0.149 HD
ENDROOT
BRANCH   1   5
ATOM      5  C   UNL     1       6.663  -0.005   2.298  0.00  0.00    +0.213 C 
BRANCH   5  15
ATOM      6  C   UNL     1       9.894  -0.696   5.255  0.00  0.00    +0.010 C 
ATOM      7  C   UNL     1       9.610  -2.199   5.209  0.00  0.00    +0.018 C 
ATOM      8  C   UNL     1       8.792  -2.601   6.439  0.00  0.00    +0.006 C 
ATOM      9  C   UNL     1       8.491  -4.100   6.382  0.00  0.00    +0.000 C 
ATOM     10  C   UNL     1       7.683  -4.411   5.120  0.00  0.00    +0.003 C 
ATOM     11  C   UNL     1       8.497  -4.017   3.885  0.00  0.00    +0.035 C 
ATOM     12  C   UNL     1       8.826  -2.529   3.944  0.00  0.00    +0.115 C 
ATOM     13  C   UNL     1       7.563  -1.702   3.879  0.00  0.00    +0.247 C 
ATOM     14  O   UNL     1       6.642  -1.706   4.668  0.00  0.00    -0.273 OA
ATOM     15  N   UNL     1       7.675  -0.960   2.758  0.00  0.00    -0.215 N 
ATOM     16  C   UNL     1       8.827  -1.201   2.120  0.00  0.00    +0.310 C 
ATOM     17  O   UNL     1       9.156  -0.651   1.088  0.00  0.00    -0.252 OA
ATOM     18  N   UNL     1       9.580  -2.122   2.751  0.00  0.00    -0.285 N 
ATOM     19  H   UNL     1      10.449  -2.451   2.473  0.00  0.00    +0.151 HD
ENDBRANCH   5  15
ENDBRANCH   1   5
BRANCH   3  20
ATOM     20  C   UNL     1       3.712  -0.703  -0.038  0.00  0.00    +0.106 C 
BRANCH  20  21
ATOM     21  C   UNL     1       2.395   0.030  -0.021  0.00  0.00    -0.023 A 
ATOM     22  C   UNL     1       2.377   1.413  -0.014  0.00  0.00    +0.009 A 
ATOM     23  C   UNL     1       1.172   2.093   0.002  0.00  0.00    +0.050 A 
ATOM     24  C   UNL     1      -0.017   1.383   0.010  0.00  0.00    +0.162 A 
ATOM     25  C   UNL     1       0.002  -0.004   0.002  0.00  0.00    +0.162 A 
ATOM     26  C   UNL     1       1.209  -0.682  -0.013  0.00  0.00    +0.055 A 
ATOM     27  O   UNL     1      -1.175  -0.695   0.010  0.00  0.00    -0.488 OA
ATOM     28  C   UNL     1      -1.966  -0.594  -1.176  0.00  0.00    +0.232 C 
ATOM     29  C   UNL     1      -2.829   0.658  -1.143  0.00  0.00    +0.082 C 
ATOM     30  C   UNL     1      -2.001   1.933  -1.161  0.00  0.00    +0.232 C 
ATOM     31  O   UNL     1      -1.212   2.041   0.030  0.00  0.00    -0.488 OA
ENDBRANCH  20  21
BRANCH  20  32
ATOM     32  C   UNL     1       4.265  -0.724  -1.464  0.00  0.00    +0.008 C 
ATOM     33  C   UNL     1       3.273  -1.436  -2.386  0.00  0.00    +0.009 C 
ATOM     34  C   UNL     1       4.475   0.711  -1.952  0.00  0.00    +0.009 C 
ENDBRANCH  20  32
ENDBRANCH   3  20
TORSDOF 5
