REMARK  Name = ZINC21263578
REMARK  12 active torsions:
REMARK  status: ('A' for Active; 'I' for Inactive)
REMARK    1  A    between atoms: C_1  and  C_2
REMARK    2  A    between atoms: C_2  and  C_4
REMARK    3  A    between atoms: C_2  and  N_10
REMARK    4  A    between atoms: N_10  and  C_11
REMARK    5  A    between atoms: N_10  and  C_19
REMARK    6  A    between atoms: C_11  and  C_12
REMARK    7  A    between atoms: C_19  and  N_21
REMARK    8  A    between atoms: N_21  and  C_22
REMARK    9  A    between atoms: C_24  and  C_30
REMARK   10  A    between atoms: C_24  and  C_31
REMARK   11  A    between atoms: C_26  and  C_28
REMARK   12  A    between atoms: C_26  and  C_29
REMARK                            x       y       z     vdW  Elec       q    Type
REMARK                         _______ _______ _______ _____ _____    ______ ____
ROOT
ATOM      1  N   UNL     1      -0.976   1.383  -1.300  0.00  0.00    -0.302 N 
ENDROOT
BRANCH   1   3
ATOM      2  C   UNL     1       0.905   0.886   0.182  0.00  0.00    +0.033 C 
ATOM      3  C   UNL     1      -0.334   0.324  -0.517  0.00  0.00    +0.103 C 
BRANCH   3   4
ATOM      4  C   UNL     1      -1.301  -0.195   0.515  0.00  0.00    -0.027 A 
ATOM      5  C   UNL     1      -2.180   0.672   1.136  0.00  0.00    +0.005 A 
ATOM      6  C   UNL     1      -3.071   0.196   2.080  0.00  0.00    +0.000 A 
ATOM      7  C   UNL     1      -3.076  -1.147   2.409  0.00  0.00    +0.000 A 
ATOM      8  C   UNL     1      -2.194  -2.014   1.791  0.00  0.00    +0.000 A 
ATOM      9  C   UNL     1      -1.306  -1.538   0.844  0.00  0.00    +0.005 A 
ENDBRANCH   3   4
ENDBRANCH   1   3
BRANCH   1  10
ATOM     10  C   UNL     1      -2.046   1.099  -2.068  0.00  0.00    +0.134 C 
ATOM     11  S   UNL     1      -2.561  -0.523  -2.252  0.00  0.00    -0.019 S 
BRANCH  10  12
ATOM     12  N   UNL     1      -2.711   2.093  -2.691  0.00  0.00    -0.324 N 
ATOM     13  H   UNL     1      -2.325   3.122  -2.652  0.00  0.00    +0.148 HD
BRANCH  12  14
ATOM     14  C   UNL     1      -3.950   1.801  -3.422  0.00  0.00    +0.069 C 
ATOM     15  C   UNL     1      -3.605   1.374  -4.848  0.00  0.00    +0.009 C 
ATOM     16  C   UNL     1      -4.878   1.085  -5.640  0.00  0.00    -0.072 C 
ATOM     17  N   UNL     1      -5.863   2.141  -5.532  0.00  0.00    +0.386 N 
ATOM     18  C   UNL     1      -6.094   2.796  -4.261  0.00  0.00    -0.072 C 
ATOM     19  C   UNL     1      -4.806   3.066  -3.487  0.00  0.00    +0.009 C 
ATOM     20  C   UNL     1      -7.057   1.985  -3.386  0.00  0.00    -0.010 C 
ATOM     21  C   UNL     1      -6.765   4.160  -4.537  0.00  0.00    -0.010 C 
ATOM     22  C   UNL     1      -5.461  -0.263  -5.200  0.00  0.00    -0.010 C 
ATOM     23  C   UNL     1      -4.480   0.948  -7.126  0.00  0.00    -0.010 C 
ATOM     24  H   UNL     1      -5.592   2.966  -6.207  0.00  0.00    -0.084 HD
ATOM     25  H   UNL     1      -6.853   1.749  -5.809  0.00  0.00    -0.084 HD
ENDBRANCH  12  14
ENDBRANCH  10  12
ENDBRANCH   1  10
BRANCH   1  26
ATOM     26  C   UNL     1      -0.454   2.751  -1.246  0.00  0.00    +0.144 C 
BRANCH  26  27
ATOM     27  C   UNL     1       0.765   2.859  -2.127  0.00  0.00    -0.012 A 
ATOM     28  C   UNL     1       2.020   2.967  -1.558  0.00  0.00    +0.006 A 
ATOM     29  C   UNL     1       3.138   3.062  -2.365  0.00  0.00    +0.000 A 
ATOM     30  C   UNL     1       3.001   3.057  -3.741  0.00  0.00    +0.001 A 
ATOM     31  C   UNL     1       1.746   2.954  -4.310  0.00  0.00    +0.020 A 
ATOM     32  C   UNL     1       0.626   2.855  -3.503  0.00  0.00    +0.046 A 
ATOM     33 CL   UNL     1      -0.951   2.726  -4.217  0.00  0.00    -0.083 Cl
ENDBRANCH  26  27
ENDBRANCH   1  26
TORSDOF 7
