REMARK  Name = ZINC04693581
REMARK  3 active torsions:
REMARK  status: ('A' for Active; 'I' for Inactive)
REMARK    1  A    between atoms: C_1  and  C_2
REMARK    2  A    between atoms: N_10  and  N_11
REMARK    3  A    between atoms: C_12  and  C_13
REMARK                            x       y       z     vdW  Elec       q    Type
REMARK                         _______ _______ _______ _____ _____    ______ ____
ROOT
ATOM      1  N   UNL     1      -0.099   0.046  -0.506  0.00  0.00    -0.188 NA
ATOM      2  C   UNL     1      -0.056   1.260  -0.043  0.00  0.00    +0.139 C 
ENDROOT
BRANCH   1  12
ATOM      3  C   UNL     1       1.006  -4.578  -1.832  0.00  0.00    +0.066 C 
ATOM      4  C   UNL     1      -0.289  -3.816  -1.711  0.00  0.00    +0.047 A 
ATOM      5  C   UNL     1      -1.474  -4.441  -1.969  0.00  0.00    +0.093 A 
ATOM      6  C   UNL     1      -2.669  -3.709  -1.848  0.00  0.00    +0.253 A 
ATOM      7  O   UNL     1      -3.746  -4.237  -2.071  0.00  0.00    -0.268 OA
ATOM      8  N   UNL     1      -2.602  -2.414  -1.475  0.00  0.00    -0.294 N 
ATOM      9  H   UNL     1      -3.413  -1.891  -1.381  0.00  0.00    +0.172 HD
ATOM     10  C   UNL     1      -1.389  -1.842  -1.235  0.00  0.00    +0.216 A 
ATOM     11  N   UNL     1      -0.274  -2.535  -1.351  0.00  0.00    -0.220 NA
ATOM     12  N   UNL     1      -1.328  -0.525  -0.863  0.00  0.00    -0.207 N 
ATOM     13  H   UNL     1      -2.135   0.013  -0.845  0.00  0.00    +0.177 HD
ENDBRANCH   1  12
BRANCH   2  14
ATOM     14  C   UNL     1      -1.303   1.960   0.301  0.00  0.00    +0.002 A 
ATOM     15  C   UNL     1      -2.426   1.250   0.709  0.00  0.00    +0.010 A 
ATOM     16  C   UNL     1      -3.601   1.914   1.034  0.00  0.00    +0.001 A 
ATOM     17  C   UNL     1      -3.702   3.270   0.966  0.00  0.00    +0.008 A 
ATOM     18  C   UNL     1      -2.607   4.051   0.561  0.00  0.00    -0.017 A 
ATOM     19  C   UNL     1      -1.385   3.417   0.227  0.00  0.00    -0.009 A 
ATOM     20  C   UNL     1      -0.294   4.192  -0.184  0.00  0.00    +0.009 A 
ATOM     21  C   UNL     1      -0.415   5.548  -0.245  0.00  0.00    +0.001 A 
ATOM     22  C   UNL     1      -1.613   6.175   0.089  0.00  0.00    +0.001 A 
ATOM     23  C   UNL     1      -2.696   5.452   0.486  0.00  0.00    +0.008 A 
ENDBRANCH   2  14
TORSDOF 2
