REMARK  Name = ZINC55162012
REMARK  7 active torsions:
REMARK  status: ('A' for Active; 'I' for Inactive)
REMARK    1  A    between atoms: C_4  and  C_7
REMARK    2  A    between atoms: C_10  and  O_13
REMARK    3  A    between atoms: C_10  and  O_21
REMARK    4  A    between atoms: O_13  and  C_14
REMARK    5  A    between atoms: C_18  and  N_20
REMARK    6  A    between atoms: O_21  and  C_22
REMARK    7  A    between atoms: C_26  and  N_28
REMARK                            x       y       z     vdW  Elec       q    Type
REMARK                         _______ _______ _______ _____ _____    ______ ____
ROOT
ATOM      1  C   UNL     1       3.142  -1.222  -0.226  0.00  0.00    -0.022 C 
ATOM      2  C   UNL     1       3.325  -2.125   0.749  0.00  0.00    -0.011 C 
ATOM      3  C   UNL     1       4.701  -2.678   1.013  0.00  0.00    +0.125 C 
ATOM      4  C   UNL     1       5.470  -2.810  -0.300  0.00  0.00    +0.277 C 
ATOM      5  C   UNL     1       5.395  -1.521  -1.074  0.00  0.00    +0.065 C 
ATOM      6  C   UNL     1       4.295  -0.784  -1.040  0.00  0.00    +0.011 C 
ENDROOT
BRANCH   1  10
ATOM      7  C   UNL     1      -0.734   0.356  -0.983  0.00  0.00    +0.000 A 
ATOM      8  C   UNL     1       0.273   1.189  -0.531  0.00  0.00    +0.001 A 
ATOM      9  C   UNL     1       1.533   0.683  -0.284  0.00  0.00    +0.008 A 
ATOM     10  C   UNL     1       1.789  -0.672  -0.490  0.00  0.00    -0.018 A 
ATOM     11  C   UNL     1       0.771  -1.507  -0.945  0.00  0.00    +0.008 A 
ATOM     12  C   UNL     1      -0.485  -0.989  -1.189  0.00  0.00    +0.001 A 
ENDBRANCH   1  10
BRANCH   4  13
ATOM     13  O   UNL     1       4.900  -3.864  -1.079  0.00  0.00    -0.447 OA
BRANCH  13  14
ATOM     14  C   UNL     1       4.961  -5.118  -0.559  0.00  0.00    +0.127 A 
ATOM     15  C   UNL     1       5.648  -5.346   0.625  0.00  0.00    +0.046 A 
ATOM     16  C   UNL     1       5.712  -6.620   1.156  0.00  0.00    +0.005 A 
ATOM     17  C   UNL     1       5.092  -7.672   0.509  0.00  0.00    +0.023 A 
ATOM     18  C   UNL     1       4.403  -7.450  -0.677  0.00  0.00    +0.028 A 
ATOM     19  C   UNL     1       4.334  -6.170  -1.208  0.00  0.00    +0.068 A 
BRANCH  18  20
ATOM     20  N   UNL     1       3.777  -8.514  -1.332  0.00  0.00    -0.358 N 
ATOM     21  H   UNL     1       3.823  -9.408  -0.958  0.00  0.00    +0.142 HD
ATOM     22  H   UNL     1       3.296  -8.358  -2.160  0.00  0.00    +0.142 HD
ENDBRANCH  18  20
ENDBRANCH  13  14
ENDBRANCH   4  13
BRANCH   4  23
ATOM     23  O   UNL     1       6.837  -3.117  -0.021  0.00  0.00    -0.447 OA
BRANCH  23  24
ATOM     24  C   UNL     1       7.642  -3.373  -1.085  0.00  0.00    +0.127 A 
ATOM     25  C   UNL     1       7.133  -3.302  -2.374  0.00  0.00    +0.046 A 
ATOM     26  C   UNL     1       7.950  -3.562  -3.458  0.00  0.00    +0.005 A 
ATOM     27  C   UNL     1       9.277  -3.892  -3.261  0.00  0.00    +0.023 A 
ATOM     28  C   UNL     1       9.793  -3.964  -1.974  0.00  0.00    +0.028 A 
ATOM     29  C   UNL     1       8.974  -3.698  -0.884  0.00  0.00    +0.068 A 
BRANCH  28  30
ATOM     30  N   UNL     1      11.134  -4.298  -1.775  0.00  0.00    -0.358 N 
ATOM     31  H   UNL     1      11.707  -4.480  -2.537  0.00  0.00    +0.142 HD
ATOM     32  H   UNL     1      11.494  -4.348  -0.875  0.00  0.00    +0.142 HD
ENDBRANCH  28  30
ENDBRANCH  23  24
ENDBRANCH   4  23
TORSDOF 7
