REMARK  Name = ZINC24466222
REMARK  7 active torsions:
REMARK  status: ('A' for Active; 'I' for Inactive)
REMARK    1  A    between atoms: C_1  and  C_2
REMARK    2  A    between atoms: C_5  and  N_8
REMARK    3  A    between atoms: C_9  and  C_30
REMARK    4  A    between atoms: C_10  and  N_14
REMARK    5  A    between atoms: C_11  and  C_13
REMARK    6  A    between atoms: C_15  and  C_17
REMARK    7  A    between atoms: C_17  and  N_18
REMARK                            x       y       z     vdW  Elec       q    Type
REMARK                         _______ _______ _______ _____ _____    ______ ____
ROOT
ATOM      1  N   UNL     1      -2.982   2.992   1.632  0.00  0.00    -0.281 N 
ATOM      2  C   UNL     1      -1.822   2.373   1.335  0.00  0.00    +0.237 C 
ATOM      3  O   UNL     1      -1.046   2.080   2.220  0.00  0.00    -0.274 OA
ATOM      4  H   UNL     1      -3.639   3.347   0.825  0.00  0.00    +0.155 HD
ENDROOT
BRANCH   1   7
ATOM      5  N   UNL     1      -4.225   4.024   4.804  0.00  0.00    -0.235 N 
ATOM      6  C   UNL     1      -4.096   4.210   3.462  0.00  0.00    +0.063 A 
ATOM      7  C   UNL     1      -3.352   3.183   2.976  0.00  0.00    +0.078 A 
ATOM      8  C   UNL     1      -3.024   2.344   4.052  0.00  0.00    +0.082 A 
ATOM      9  N   UNL     1      -3.540   2.850   5.143  0.00  0.00    -0.170 NA
ATOM     10  C   UNL     1      -2.211   1.078   3.966  0.00  0.00    +0.069 C 
ATOM     11  C   UNL     1      -4.673   5.349   2.661  0.00  0.00    +0.068 C 
BRANCH   5  16
ATOM     12  C   UNL     1      -7.039   7.405   8.389  0.00  0.00    +0.044 C 
ATOM     13  C   UNL     1      -6.292   6.507   7.437  0.00  0.00    -0.050 A 
ATOM     14  C   UNL     1      -6.837   6.205   6.203  0.00  0.00    +0.005 A 
ATOM     15  C   UNL     1      -6.154   5.382   5.328  0.00  0.00    +0.028 A 
ATOM     16  C   UNL     1      -4.920   4.859   5.689  0.00  0.00    +0.066 A 
ATOM     17  C   UNL     1      -4.378   5.160   6.932  0.00  0.00    +0.028 A 
ATOM     18  C   UNL     1      -5.063   5.987   7.800  0.00  0.00    +0.005 A 
ENDBRANCH   5  16
ENDBRANCH   1   7
BRANCH   2  19
ATOM     19  C   UNL     1      -1.488   2.046  -0.098  0.00  0.00    +0.230 C 
BRANCH  19  20
ATOM     20  N   UNL     1      -0.184   1.381  -0.156  0.00  0.00    -0.159 N 
ATOM     21  C   UNL     1       0.069   0.074   0.009  0.00  0.00    +0.268 C 
ATOM     22  O   UNL     1      -0.830  -0.712   0.239  0.00  0.00    -0.268 OA
ATOM     23  C   UNL     1       1.462  -0.382  -0.098  0.00  0.00    +0.065 A 
ATOM     24  C   UNL     1       2.002  -1.673   0.028  0.00  0.00    +0.015 A 
ATOM     25  C   UNL     1       3.356  -1.877  -0.112  0.00  0.00    +0.001 A 
ATOM     26  C   UNL     1       4.210  -0.822  -0.377  0.00  0.00    +0.002 A 
ATOM     27  C   UNL     1       3.695   0.460  -0.504  0.00  0.00    +0.029 A 
ATOM     28  C   UNL     1       2.352   0.666  -0.366  0.00  0.00    +0.121 A 
ATOM     29  S   UNL     1       1.302   2.091  -0.449  0.00  0.00    +0.078 S 
ATOM     30  O   UNL     1       1.304   2.551  -1.794  0.00  0.00    -0.150 OA
ATOM     31  O   UNL     1       1.612   2.920   0.663  0.00  0.00    -0.150 OA
ENDBRANCH  19  20
ENDBRANCH   2  19
TORSDOF 4
