REMARK  Name = ZINC11904142
REMARK  7 active torsions:
REMARK  status: ('A' for Active; 'I' for Inactive)
REMARK    1  A    between atoms: C_1  and  C_2
REMARK    2  A    between atoms: N_8  and  C_11
REMARK    3  A    between atoms: C_14  and  S_17
REMARK    4  A    between atoms: S_17  and  N_20
REMARK    5  A    between atoms: N_20  and  C_21
REMARK    6  A    between atoms: C_21  and  C_22
REMARK    7  A    between atoms: C_22  and  C_23
REMARK                            x       y       z     vdW  Elec       q    Type
REMARK                         _______ _______ _______ _____ _____    ______ ____
ROOT
ATOM      1  S   UNL     1       2.796   8.219  -2.768  0.00  0.00    +0.058 S 
ATOM      2  O   UNL     1       3.568   9.374  -2.470  0.00  0.00    -0.153 OA
ATOM      3  O   UNL     1       3.387   6.994  -3.180  0.00  0.00    -0.153 OA
ENDROOT
BRANCH   1   7
ATOM      4  C   UNL     1      -0.116   9.413  -6.024  0.00  0.00    +0.059 A 
ATOM      5  C   UNL     1       0.419  10.378  -5.180  0.00  0.00    +0.027 A 
ATOM      6  C   UNL     1       1.307  10.011  -4.188  0.00  0.00    +0.030 A 
ATOM      7  C   UNL     1       1.663   8.684  -4.035  0.00  0.00    +0.105 A 
ATOM      8  C   UNL     1       1.137   7.721  -4.876  0.00  0.00    +0.030 A 
ATOM      9  C   UNL     1       0.244   8.081  -5.867  0.00  0.00    +0.027 A 
BRANCH   4  16
ATOM     10  C   UNL     1      -4.150  10.651  -7.781  0.00  0.00    +0.019 C 
ATOM     11  C   UNL     1      -2.736  11.081  -8.178  0.00  0.00    +0.097 C 
ATOM     12  C   UNL     1      -2.248  10.224  -9.376  0.00  0.00    +0.201 C 
ATOM     13  S   UNL     1      -1.303   8.945  -8.451  0.00  0.00    +0.053 S 
ATOM     14  O   UNL     1      -0.026   8.734  -9.037  0.00  0.00    -0.155 OA
ATOM     15  O   UNL     1      -2.141   7.855  -8.092  0.00  0.00    -0.155 OA
ATOM     16  N   UNL     1      -1.016   9.782  -7.029  0.00  0.00    -0.144 N 
ATOM     17  C   UNL     1      -1.807  10.866  -7.022  0.00  0.00    +0.243 C 
ATOM     18  O   UNL     1      -1.767  11.657  -6.104  0.00  0.00    -0.273 OA
ENDBRANCH   4  16
ENDBRANCH   1   7
BRANCH   1  19
ATOM     19  N   UNL     1       1.905   7.882  -1.413  0.00  0.00    -0.190 NA
ATOM     20  H   UNL     1       1.998   8.435  -0.622  0.00  0.00    +0.148 HD
BRANCH  19  21
ATOM     21  C   UNL     1       0.977   6.749  -1.410  0.00  0.00    +0.110 C 
BRANCH  21  22
ATOM     22  C   UNL     1       0.571   6.426   0.030  0.00  0.00    +0.054 C 
BRANCH  22  23
ATOM     23  C   UNL     1      -0.384   5.261   0.033  0.00  0.00    -0.021 A 
ATOM     24  C   UNL     1      -1.724   5.326   0.046  0.00  0.00    +0.087 A 
ATOM     25  N   UNL     1      -2.254   4.064   0.045  0.00  0.00    -0.360 N 
ATOM     26  H   UNL     1      -3.201   3.858   0.053  0.00  0.00    +0.165 HD
ATOM     27  C   UNL     1      -1.240   3.132   0.031  0.00  0.00    +0.047 A 
ATOM     28  C   UNL     1      -0.025   3.840   0.022  0.00  0.00    +0.003 A 
ATOM     29  C   UNL     1       1.186   3.146   0.007  0.00  0.00    +0.010 A 
ATOM     30  C   UNL     1       1.184   1.779   0.000  0.00  0.00    +0.001 A 
ATOM     31  C   UNL     1      -0.013   1.076   0.008  0.00  0.00    +0.002 A 
ATOM     32  C   UNL     1      -1.219   1.742   0.017  0.00  0.00    +0.026 A 
ENDBRANCH  22  23
ENDBRANCH  21  22
ENDBRANCH  19  21
ENDBRANCH   1  19
TORSDOF 6
