REMARK  Name = ZINC61592034
REMARK  6 active torsions:
REMARK  status: ('A' for Active; 'I' for Inactive)
REMARK    1  A    between atoms: C_1  and  C_2
REMARK    2  A    between atoms: C_2  and  C_4
REMARK    3  A    between atoms: C_2  and  N_11
REMARK    4  A    between atoms: C_17  and  S_18
REMARK    5  A    between atoms: S_18  and  C_19
REMARK    6  A    between atoms: C_19  and  C_20
REMARK                            x       y       z     vdW  Elec       q    Type
REMARK                         _______ _______ _______ _____ _____    ______ ____
ROOT
ATOM      1  N   UNL     1       0.500  -0.923  -1.024  0.00  0.00    -0.263 N 
ATOM      2  C   UNL     1       0.973  -0.571  -2.236  0.00  0.00    +0.345 A 
ATOM      3  O   UNL     1       1.064   0.563  -2.672  0.00  0.00    -0.245 OA
ATOM      4  N   UNL     1       1.329  -1.703  -2.879  0.00  0.00    -0.226 N 
ATOM      5  H   UNL     1       1.703  -1.762  -3.772  0.00  0.00    +0.194 HD
ATOM      6  N   UNL     1       1.058  -2.776  -2.020  0.00  0.00    -0.145 NA
ATOM      7  C   UNL     1       0.569  -2.294  -0.914  0.00  0.00    +0.193 A 
ENDROOT
BRANCH   1   9
ATOM      8  C   UNL     1       1.013   1.126   0.208  0.00  0.00    +0.036 C 
ATOM      9  C   UNL     1       0.002  -0.004   0.002  0.00  0.00    +0.121 C 
BRANCH   9  10
ATOM     10  C   UNL     1      -1.317   0.576  -0.440  0.00  0.00    -0.025 A 
ATOM     11  C   UNL     1      -1.370   1.411  -1.541  0.00  0.00    +0.007 A 
ATOM     12  C   UNL     1      -2.579   1.943  -1.947  0.00  0.00    +0.015 A 
ATOM     13  C   UNL     1      -3.736   1.641  -1.252  0.00  0.00    +0.018 A 
ATOM     14  C   UNL     1      -3.682   0.805  -0.150  0.00  0.00    +0.015 A 
ATOM     15  C   UNL     1      -2.473   0.270   0.252  0.00  0.00    +0.007 A 
ATOM     16 BR   UNL     1      -5.391   2.369  -1.806  0.00  0.00    -0.050 Br
ENDBRANCH   9  10
ENDBRANCH   1   9
BRANCH   7  17
ATOM     17  S   UNL     1       0.074  -3.238   0.489  0.00  0.00    -0.075 S 
BRANCH  17  18
ATOM     18  C   UNL     1       0.415  -4.953   0.006  0.00  0.00    +0.202 C 
BRANCH  18  19
ATOM     19  C   UNL     1       0.031  -5.877   1.133  0.00  0.00    +0.366 C 
ATOM     20  O   UNL     1      -0.430  -5.422   2.165  0.00  0.00    -0.245 OA
ATOM     21  O   UNL     1       0.181  -7.081   1.012  0.00  0.00    -0.245 OA
ENDBRANCH  18  19
ENDBRANCH  17  18
ENDBRANCH   7  17
TORSDOF 5
