REMARK  Name = ZINC39671931
REMARK  4 active torsions:
REMARK  status: ('A' for Active; 'I' for Inactive)
REMARK    1  A    between atoms: C_6  and  C_10
REMARK    2  A    between atoms: C_10  and  N_11
REMARK    3  A    between atoms: C_12  and  C_14
REMARK    4  A    between atoms: C_25  and  C_27
REMARK                            x       y       z     vdW  Elec       q    Type
REMARK                         _______ _______ _______ _____ _____    ______ ____
ROOT
ATOM      1  C   UNL     1       4.569  -5.541   3.650  0.00  0.00    +0.100 C 
ATOM      2  C   UNL     1       3.070  -5.728   3.974  0.00  0.00    +0.121 C 
ATOM      3  N   UNL     1       2.801  -7.158   3.691  0.00  0.00    -0.296 N 
ATOM      4  C   UNL     1       4.008  -7.865   4.182  0.00  0.00    +0.115 C 
ATOM      5  C   UNL     1       5.181  -6.945   3.791  0.00  0.00    -0.004 C 
ATOM      6  C   UNL     1       5.782  -7.395   2.463  0.00  0.00    -0.010 C 
ATOM      7  C   UNL     1       6.435  -8.769   2.642  0.00  0.00    -0.082 C 
ATOM      8  N   UNL     1       7.478  -8.686   3.672  0.00  0.00    +0.379 N 
ATOM      9  C   UNL     1       6.878  -8.342   4.967  0.00  0.00    -0.082 C 
ATOM     10  C   UNL     1       6.245  -6.951   4.885  0.00  0.00    -0.010 C 
ATOM     11  C   UNL     1       1.706  -7.694   3.116  0.00  0.00    +0.247 C 
ATOM     12  O   UNL     1       0.848  -6.970   2.649  0.00  0.00    -0.270 OA
ATOM     13  H   UNL     1       7.948  -9.576   3.745  0.00  0.00    -0.086 HD
ATOM     14  H   UNL     1       8.148  -7.976   3.414  0.00  0.00    -0.086 HD
ENDROOT
BRANCH  11  15
ATOM     15  C   UNL     1       1.548  -9.162   3.054  0.00  0.00    +0.037 A 
ATOM     16  C   UNL     1       2.260  -9.981   3.932  0.00  0.00    +0.014 A 
ATOM     17  C   UNL     1       2.108 -11.350   3.869  0.00  0.00    +0.021 A 
ATOM     18  C   UNL     1       1.252 -11.913   2.937  0.00  0.00    +0.041 A 
ATOM     19  C   UNL     1       0.543 -11.105   2.063  0.00  0.00    +0.021 A 
ATOM     20  C   UNL     1       0.682  -9.735   2.120  0.00  0.00    +0.014 A 
ATOM     21 CL   UNL     1       1.067 -13.638   2.864  0.00  0.00    -0.084 Cl
ENDBRANCH  11  15
BRANCH   1  23
ATOM     22  N   UNL     1       5.859  -4.361   1.901  0.00  0.00    -0.309 N 
ATOM     23  C   UNL     1       4.742  -5.032   2.242  0.00  0.00    +0.219 C 
ATOM     24  O   UNL     1       3.875  -5.227   1.416  0.00  0.00    -0.275 OA
ATOM     25  H   UNL     1       6.552  -4.205   2.561  0.00  0.00    +0.149 HD
BRANCH  22  26
ATOM     26  C   UNL     1       6.027  -3.866   0.532  0.00  0.00    +0.161 C 
BRANCH  26  32
ATOM     27  C   UNL     1      10.928  -0.418   0.323  0.00  0.00    +0.005 A 
ATOM     28  C   UNL     1      11.522  -1.597  -0.156  0.00  0.00    +0.018 A 
ATOM     29  C   UNL     1      10.789  -2.721  -0.296  0.00  0.00    +0.092 A 
ATOM     30  N   UNL     1       9.462  -2.730   0.023  0.00  0.00    -0.306 N 
ATOM     31  C   UNL     1       8.505  -3.707  -0.022  0.00  0.00    +0.117 A 
ATOM     32  C   UNL     1       7.351  -3.155   0.414  0.00  0.00    +0.077 A 
ATOM     33  N   UNL     1       7.579  -1.876   0.721  0.00  0.00    -0.231 NA
ATOM     34  C   UNL     1       8.853  -1.594   0.492  0.00  0.00    +0.138 A 
ATOM     35  C   UNL     1       9.606  -0.412   0.645  0.00  0.00    +0.047 A 
ENDBRANCH  26  32
ENDBRANCH  22  26
ENDBRANCH   1  23
TORSDOF 4
