REMARK  Name = ZINC33907018
REMARK  15 active torsions:
REMARK  status: ('A' for Active; 'I' for Inactive)
REMARK    1  A    between atoms: C_1  and  C_2
REMARK    2  A    between atoms: C_2  and  C_3
REMARK    3  A    between atoms: C_3  and  C_4
REMARK    4  A    between atoms: C_4  and  N_5
REMARK    5  A    between atoms: C_10  and  C_28
REMARK    6  A    between atoms: C_13  and  C_18
REMARK    7  A    between atoms: C_13  and  C_25
REMARK    8  A    between atoms: C_18  and  C_19
REMARK    9  A    between atoms: C_30  and  O_40
REMARK   10  A    between atoms: C_32  and  O_38
REMARK   11  A    between atoms: C_33  and  C_34
REMARK   12  A    between atoms: C_34  and  O_36
REMARK   13  A    between atoms: O_36  and  C_37
REMARK   14  A    between atoms: O_38  and  C_39
REMARK   15  A    between atoms: O_40  and  C_41
REMARK                            x       y       z     vdW  Elec       q    Type
REMARK                         _______ _______ _______ _____ _____    ______ ____
ROOT
ATOM      1  N   UNL     1       1.691  -2.327  -1.856  0.00  0.00    -0.242 N 
ATOM      2  C   UNL     1       0.921  -2.431  -2.989  0.00  0.00    +0.224 C 
ATOM      3  O   UNL     1      -0.203  -2.012  -3.162  0.00  0.00    -0.275 OA
ATOM      4  C   UNL     1       1.750  -3.151  -3.927  0.00  0.00    +0.077 C 
ATOM      5  C   UNL     1       1.857  -3.409  -5.370  0.00  0.00    -0.026 C 
ATOM      6  N   UNL     1       3.269  -3.879  -5.559  0.00  0.00    +0.395 N 
ATOM      7  C   UNL     1       3.966  -3.757  -4.237  0.00  0.00    +0.048 C 
ATOM      8  C   UNL     1       3.189  -2.603  -3.568  0.00  0.00    +0.086 C 
ATOM      9  C   UNL     1       3.001  -2.642  -2.077  0.00  0.00    +0.225 C 
ATOM     10  O   UNL     1       3.841  -2.902  -1.242  0.00  0.00    -0.275 OA
ATOM     11  H   UNL     1       3.272  -4.841  -5.860  0.00  0.00    -0.083 HD
ATOM     12  H   UNL     1       3.733  -3.302  -6.245  0.00  0.00    -0.083 HD
ENDROOT
BRANCH   5  13
ATOM     13  C   UNL     1       1.611  -2.143  -6.151  0.00  0.00    -0.040 A 
ATOM     14  C   UNL     1       1.670  -0.923  -5.520  0.00  0.00    +0.048 A 
ATOM     15  C   UNL     1       1.444   0.249  -6.237  0.00  0.00    +0.124 A 
ATOM     16  C   UNL     1       1.157   0.195  -7.593  0.00  0.00    +0.092 A 
ATOM     17  C   UNL     1       1.095  -1.028  -8.240  0.00  0.00    +0.138 A 
ATOM     18  C   UNL     1       1.329  -2.210  -7.520  0.00  0.00    +0.102 A 
BRANCH  18  19
ATOM     19  C   UNL     1       1.270  -3.513  -8.200  0.00  0.00    +0.343 C 
ATOM     20  O   UNL     1       0.241  -4.159  -8.188  0.00  0.00    -0.245 OA
BRANCH  19  21
ATOM     21  O   UNL     1       2.358  -3.991  -8.836  0.00  0.00    -0.464 OA
ATOM     22  C   UNL     1       2.230  -5.263  -9.475  0.00  0.00    +0.280 C 
ENDBRANCH  19  21
ENDBRANCH  18  19
BRANCH  17  23
ATOM     23  O   UNL     1       0.814  -1.083  -9.566  0.00  0.00    -0.494 OA
ATOM     24  C   UNL     1       0.593   0.161 -10.235  0.00  0.00    +0.277 C 
ENDBRANCH  17  23
BRANCH  15  25
ATOM     25  O   UNL     1       1.504   1.449  -5.607  0.00  0.00    -0.495 OA
ATOM     26  C   UNL     1       1.261   2.612  -6.401  0.00  0.00    +0.277 C 
ENDBRANCH  15  25
ENDBRANCH   5  13
BRANCH   7  27
ATOM     27  C   UNL     1       5.412  -3.377  -4.428  0.00  0.00    +0.346 C 
ATOM     28  O   UNL     1       5.863  -3.240  -5.552  0.00  0.00    -0.248 OA
ATOM     29  O   UNL     1       6.130  -3.207  -3.458  0.00  0.00    -0.248 OA
ENDBRANCH   7  27
BRANCH   1  30
ATOM     30  C   UNL     1       1.163  -1.916  -0.552  0.00  0.00    +0.116 C 
BRANCH  30  31
ATOM     31  C   UNL     1       1.257  -0.395  -0.421  0.00  0.00    +0.019 C 
BRANCH  31  33
ATOM     32  C   UNL     1       0.800   1.555   1.073  0.00  0.00    +0.004 C 
ATOM     33  C   UNL     1       0.706   0.034   0.941  0.00  0.00    -0.002 C 
ENDBRANCH  31  33
ENDBRANCH  30  31
ENDBRANCH   1  30
BRANCH   7  34
ATOM     34  C   UNL     1       3.846  -5.057  -3.439  0.00  0.00    +0.003 C 
BRANCH  34  35
ATOM     35  C   UNL     1       4.872  -6.068  -3.955  0.00  0.00    -0.012 C 
ATOM     36  C   UNL     1       4.569  -6.403  -5.417  0.00  0.00    +0.003 C 
ATOM     37  C   UNL     1       5.595  -7.414  -5.932  0.00  0.00    +0.000 C 
ATOM     38  C   UNL     1       5.521  -8.690  -5.090  0.00  0.00    +0.000 C 
ATOM     39  C   UNL     1       5.824  -8.355  -3.629  0.00  0.00    +0.000 C 
ATOM     40  C   UNL     1       4.798  -7.344  -3.113  0.00  0.00    +0.003 C 
ENDBRANCH  34  35
ENDBRANCH   7  34
TORSDOF 11
