REMARK  Name = ZINC13810545
REMARK  13 active torsions:
REMARK  status: ('A' for Active; 'I' for Inactive)
REMARK    1  A    between atoms: C_1  and  C_2
REMARK    2  A    between atoms: C_2  and  C_3
REMARK    3  A    between atoms: C_3  and  C_4
REMARK    4  A    between atoms: C_4  and  S_5
REMARK    5  A    between atoms: S_5  and  C_6
REMARK    6  A    between atoms: C_6  and  S_29
REMARK    7  A    between atoms: C_7  and  C_27
REMARK    8  A    between atoms: C_14  and  C_21
REMARK    9  A    between atoms: C_16  and  C_19
REMARK   10  A    between atoms: S_29  and  C_30
REMARK   11  A    between atoms: C_30  and  C_31
REMARK   12  A    between atoms: C_31  and  C_32
REMARK   13  A    between atoms: C_32  and  C_33
REMARK                            x       y       z     vdW  Elec       q    Type
REMARK                         _______ _______ _______ _____ _____    ______ ____
ROOT
ATOM      1  C   UNL     1      -1.833   1.384  -4.137  0.00  0.00    +0.157 C 
ATOM      2  C   UNL     1      -1.258   0.865  -5.458  0.00  0.00    +0.148 C 
ATOM      3  C   UNL     1      -0.128   1.614  -6.084  0.00  0.00    -0.029 C 
ATOM      4  C   UNL     1      -0.069   1.637  -7.405  0.00  0.00    -0.011 C 
ATOM      5  C   UNL     1       1.049   2.328  -8.148  0.00  0.00    +0.049 C 
ATOM      6  C   UNL     1       1.764   3.336  -7.255  0.00  0.00    +0.006 C 
ATOM      7  C   UNL     1       2.153   2.627  -5.951  0.00  0.00    +0.005 C 
ATOM      8  C   UNL     1       0.868   2.305  -5.193  0.00  0.00    +0.034 C 
ATOM      9  C   UNL     1      -2.254   0.401  -7.636  0.00  0.00    +0.113 C 
ATOM     10  C   UNL     1      -2.512   1.143  -6.344  0.00  0.00    +0.156 C 
ATOM     11  C   UNL     1      -3.622   0.727  -5.442  0.00  0.00    +0.092 C 
ATOM     12  N   UNL     1      -4.844   0.256  -5.843  0.00  0.00    -0.347 N 
ATOM     13  H   UNL     1      -5.044   0.170  -6.789  0.00  0.00    +0.143 HD
ATOM     14  H   UNL     1      -5.509   0.007  -5.182  0.00  0.00    +0.143 HD
ATOM     15  N   UNL     1      -1.041   1.044  -8.297  0.00  0.00    -0.401 NA
ATOM     16  H   UNL     1      -0.560   0.321  -8.846  0.00  0.00    +0.124 HD
ATOM     17  H   UNL     1      -1.378   1.783  -8.925  0.00  0.00    +0.124 HD
ATOM     18  N   UNL     1      -3.241   0.885  -4.192  0.00  0.00    -0.351 N 
ATOM     19  H   UNL     1      -3.827   0.693  -3.372  0.00  0.00    +0.163 HD
ENDROOT
BRANCH   9  20
ATOM     20  C   UNL     1      -1.989  -1.056  -7.360  0.00  0.00    -0.027 A 
ATOM     21  C   UNL     1      -0.811  -1.638  -7.789  0.00  0.00    +0.005 A 
ATOM     22  C   UNL     1      -0.566  -2.974  -7.530  0.00  0.00    +0.000 A 
ATOM     23  C   UNL     1      -1.504  -3.731  -6.853  0.00  0.00    +0.000 A 
ATOM     24  C   UNL     1      -2.684  -3.150  -6.429  0.00  0.00    +0.000 A 
ATOM     25  C   UNL     1      -2.927  -1.813  -6.683  0.00  0.00    +0.005 A 
ENDBRANCH   9  20
BRANCH  10  26
ATOM     26  C   UNL     1      -2.617   2.587  -6.614  0.00  0.00    +0.081 C 
ATOM     27  N   UNL     1      -2.698   3.700  -6.823  0.00  0.00    -0.195 NA
ENDBRANCH  10  26
BRANCH   2  28
ATOM     28  C   UNL     1      -0.953  -0.572  -5.371  0.00  0.00    +0.080 C 
ATOM     29  N   UNL     1      -0.717  -1.681  -5.305  0.00  0.00    -0.195 NA
ENDBRANCH   2  28
BRANCH   1  30
ATOM     30  S   UNL     1      -0.954   0.670  -2.720  0.00  0.00    -0.120 S 
BRANCH  30  31
ATOM     31  C   UNL     1      -2.269   0.313  -1.523  0.00  0.00    +0.072 C 
BRANCH  31  32
ATOM     32  C   UNL     1      -1.667  -0.372  -0.294  0.00  0.00    +0.010 C 
BRANCH  32  34
ATOM     33  C   UNL     1      -2.174  -1.358   1.945  0.00  0.00    +0.004 C 
ATOM     34  C   UNL     1      -2.776  -0.673   0.716  0.00  0.00    -0.003 C 
ENDBRANCH  32  34
ENDBRANCH  31  32
ENDBRANCH  30  31
ENDBRANCH   1  30
BRANCH   1  35
ATOM     35  S   UNL     1      -1.789   3.197  -4.078  0.00  0.00    -0.120 S 
BRANCH  35  36
ATOM     36  C   UNL     1      -2.647   3.606  -2.533  0.00  0.00    +0.072 C 
BRANCH  36  37
ATOM     37  C   UNL     1      -2.715   5.127  -2.375  0.00  0.00    +0.010 C 
BRANCH  37  38
ATOM     38  C   UNL     1      -3.438   5.472  -1.072  0.00  0.00    -0.003 C 
ATOM     39  C   UNL     1      -3.506   6.992  -0.913  0.00  0.00    +0.004 C 
ENDBRANCH  37  38
ENDBRANCH  36  37
ENDBRANCH  35  36
ENDBRANCH   1  35
TORSDOF 11
