REMARK  Name = ZINC35716488
REMARK  12 active torsions:
REMARK  status: ('A' for Active; 'I' for Inactive)
REMARK    1  A    between atoms: C_1  and  C_2
REMARK    2  A    between atoms: C_2  and  N_3
REMARK    3  A    between atoms: N_3  and  C_4
REMARK    4  A    between atoms: N_3  and  C_6
REMARK    5  A    between atoms: C_4  and  C_5
REMARK    6  A    between atoms: C_6  and  C_7
REMARK    7  A    between atoms: C_7  and  N_8
REMARK    8  A    between atoms: N_8  and  C_9
REMARK    9  A    between atoms: C_9  and  C_10
REMARK   10  A    between atoms: C_21  and  C_24
REMARK   11  A    between atoms: C_27  and  C_30
REMARK   12  A    between atoms: C_36  and  C_38
REMARK                            x       y       z     vdW  Elec       q    Type
REMARK                         _______ _______ _______ _____ _____    ______ ____
ROOT
ATOM      1  C   UNL     1       0.632  -4.876  -5.082  0.00  0.00    +0.233 C 
ATOM      2  O   UNL     1       1.782  -4.577  -5.323  0.00  0.00    -0.274 OA
ATOM      3  N   UNL     1      -0.119  -5.479  -6.024  0.00  0.00    -0.297 N 
ATOM      4  C   UNL     1      -1.516  -5.842  -5.749  0.00  0.00    +0.126 C 
ATOM      5  C   UNL     1      -2.409  -5.206  -6.821  0.00  0.00    +0.125 C 
ATOM      6  N   UNL     1      -1.845  -5.512  -8.143  0.00  0.00    -0.311 N 
ATOM      7  C   UNL     1      -0.448  -5.149  -8.419  0.00  0.00    +0.125 C 
ATOM      8  C   UNL     1       0.443  -5.781  -7.349  0.00  0.00    +0.126 C 
ATOM      9  C   UNL     1      -2.619  -6.134  -9.115  0.00  0.00    +0.144 A 
ATOM     10  C   UNL     1      -3.995  -6.279  -8.926  0.00  0.00    +0.047 A 
ATOM     11  C   UNL     1      -4.725  -6.905  -9.921  0.00  0.00    +0.033 A 
ATOM     12  C   UNL     1      -4.039  -7.353 -11.055  0.00  0.00    +0.093 A 
ATOM     13  N   UNL     1      -2.728  -7.171 -11.148  0.00  0.00    -0.147 NA
ATOM     14  N   UNL     1      -2.054  -6.586 -10.226  0.00  0.00    -0.134 NA
ENDROOT
BRANCH  12  15
ATOM     15  C   UNL     1      -4.775  -8.030 -12.149  0.00  0.00    +0.002 A 
ATOM     16  C   UNL     1      -6.154  -8.216 -12.052  0.00  0.00    +0.010 A 
ATOM     17  C   UNL     1      -6.837  -8.845 -13.069  0.00  0.00    +0.009 A 
ATOM     18  C   UNL     1      -6.151  -9.296 -14.196  0.00  0.00    -0.018 A 
ATOM     19  C   UNL     1      -4.772  -9.111 -14.293  0.00  0.00    +0.009 A 
ATOM     20  C   UNL     1      -4.089  -8.476 -13.279  0.00  0.00    +0.010 A 
BRANCH  18  21
ATOM     21  C   UNL     1      -6.887  -9.973 -15.291  0.00  0.00    -0.018 A 
ATOM     22  C   UNL     1      -8.265 -10.155 -15.199  0.00  0.00    +0.008 A 
ATOM     23  C   UNL     1      -8.945 -10.786 -16.221  0.00  0.00    +0.001 A 
ATOM     24  C   UNL     1      -8.261 -11.238 -17.335  0.00  0.00    +0.000 A 
ATOM     25  C   UNL     1      -6.892 -11.060 -17.432  0.00  0.00    +0.001 A 
ATOM     26  C   UNL     1      -6.203 -10.425 -16.419  0.00  0.00    +0.008 A 
ENDBRANCH  18  21
ENDBRANCH  12  15
BRANCH   1  27
ATOM     27  C   UNL     1       0.043  -4.573  -3.729  0.00  0.00    +0.203 C 
BRANCH  27  28
ATOM     28  N   UNL     1       1.052  -3.921  -2.891  0.00  0.00    -0.295 N 
ATOM     29  C   UNL     1       1.934  -4.666  -2.195  0.00  0.00    +0.213 C 
ATOM     30  O   UNL     1       2.715  -4.131  -1.437  0.00  0.00    -0.276 OA
ATOM     31  C   UNL     1       1.949  -6.164  -2.359  0.00  0.00    +0.109 C 
BRANCH  28  32
ATOM     32  C   UNL     1       1.103  -2.459  -2.809  0.00  0.00    +0.090 C 
BRANCH  32  33
ATOM     33  C   UNL     1       0.308  -1.988  -1.589  0.00  0.00    -0.060 C 
BRANCH  33  34
ATOM     34  N   UNL     1       0.467  -0.536  -1.432  0.00  0.00    +0.380 N 
ATOM     35  H   UNL     1       1.448  -0.309  -1.380  0.00  0.00    -0.082 HD
BRANCH  34  37
ATOM     36  C   UNL     1       0.139   1.651  -2.483  0.00  0.00    -0.017 C 
ATOM     37  C   UNL     1      -0.135   0.149  -2.584  0.00  0.00    -0.082 C 
ENDBRANCH  34  37
BRANCH  34  38
ATOM     38  C   UNL     1      -0.203  -0.102  -0.199  0.00  0.00    -0.082 C 
ATOM     39  C   UNL     1       0.515  -0.704   1.010  0.00  0.00    -0.017 C 
ENDBRANCH  34  38
ENDBRANCH  33  34
ENDBRANCH  32  33
ENDBRANCH  28  32
ENDBRANCH  27  28
ENDBRANCH   1  27
TORSDOF 9
