REMARK  Name = ZINC10121480
REMARK  6 active torsions:
REMARK  status: ('A' for Active; 'I' for Inactive)
REMARK    1  A    between atoms: C_1  and  C_2
REMARK    2  A    between atoms: C_2  and  C_26
REMARK    3  A    between atoms: C_7  and  N_8
REMARK    4  A    between atoms: N_8  and  C_9
REMARK    5  A    between atoms: C_12  and  S_15
REMARK    6  A    between atoms: S_15  and  N_18
REMARK                            x       y       z     vdW  Elec       q    Type
REMARK                         _______ _______ _______ _____ _____    ______ ____
ROOT
ATOM      1  C   UNL     1       4.125   4.377   2.052  0.00  0.00    +0.031 A 
ATOM      2  C   UNL     1       5.022   3.788   2.935  0.00  0.00    +0.025 A 
ATOM      3  C   UNL     1       5.963   4.565   3.582  0.00  0.00    +0.030 A 
ATOM      4  C   UNL     1       6.005   5.929   3.361  0.00  0.00    +0.106 A 
ATOM      5  C   UNL     1       5.109   6.519   2.487  0.00  0.00    +0.030 A 
ATOM      6  C   UNL     1       4.170   5.747   1.833  0.00  0.00    +0.025 A 
ENDROOT
BRANCH   4   7
ATOM      7  S   UNL     1       7.202   6.918   4.193  0.00  0.00    +0.061 S 
ATOM      8  O   UNL     1       8.275   6.052   4.538  0.00  0.00    -0.153 OA
ATOM      9  O   UNL     1       7.388   8.083   3.401  0.00  0.00    -0.153 OA
BRANCH   7  10
ATOM     10  N   UNL     1       6.520   7.418   5.617  0.00  0.00    -0.177 NA
ATOM     11  C   UNL     1       5.747   8.653   5.810  0.00  0.00    +0.109 C 
ATOM     12  C   UNL     1       5.335   8.709   7.296  0.00  0.00    +0.018 C 
ATOM     13  C   UNL     1       6.385   7.794   7.980  0.00  0.00    +0.018 C 
ATOM     14  C   UNL     1       6.592   6.700   6.903  0.00  0.00    +0.109 C 
ENDBRANCH   7  10
ENDBRANCH   4   7
BRANCH   1  15
ATOM     15  N   UNL     1       3.176   3.592   1.391  0.00  0.00    -0.320 N 
ATOM     16  H   UNL     1       2.547   4.005   0.778  0.00  0.00    +0.152 HD
BRANCH  15  23
ATOM     17  C   UNL     1      -1.424  -0.533   0.167  0.00  0.00    +0.104 C 
ATOM     18  C   UNL     1       0.002  -0.004   0.002  0.00  0.00    +0.255 C 
ATOM     19  O   UNL     1      -0.018   1.452   0.010  0.00  0.00    -0.419 OA
ATOM     20  C   UNL     1       1.205   2.052   0.002  0.00  0.00    +0.350 C 
ATOM     21  O   UNL     1       1.468   2.985  -0.733  0.00  0.00    -0.245 OA
ATOM     22  C   UNL     1       2.195   1.485   0.952  0.00  0.00    +0.157 C 
ATOM     23  C   UNL     1       3.133   2.260   1.606  0.00  0.00    +0.094 C 
ATOM     24  C   UNL     1       2.093   0.016   1.143  0.00  0.00    +0.350 C 
ATOM     25  O   UNL     1       3.069  -0.687   1.326  0.00  0.00    -0.245 OA
ATOM     26  O   UNL     1       0.829  -0.489   1.098  0.00  0.00    -0.419 OA
ATOM     27  C   UNL     1       0.577  -0.498  -1.327  0.00  0.00    +0.104 C 
ENDBRANCH  15  23
ENDBRANCH   1  15
TORSDOF 4
