REMARK  Name = ZINC39960785
REMARK  13 active torsions:
REMARK  status: ('A' for Active; 'I' for Inactive)
REMARK    1  A    between atoms: C_1  and  C_2
REMARK    2  A    between atoms: C_2  and  C_3
REMARK    3  A    between atoms: C_3  and  C_4
REMARK    4  A    between atoms: C_3  and  C_6
REMARK    5  A    between atoms: C_4  and  C_5
REMARK    6  A    between atoms: C_8  and  C_18
REMARK    7  A    between atoms: C_10  and  C_12
REMARK    8  A    between atoms: C_27  and  C_29
REMARK    9  A    between atoms: C_29  and  N_30
REMARK   10  A    between atoms: N_30  and  C_31
REMARK   11  A    between atoms: C_31  and  C_32
REMARK   12  A    between atoms: C_35  and  C_37
REMARK   13  A    between atoms: C_37  and  O_38
REMARK                            x       y       z     vdW  Elec       q    Type
REMARK                         _______ _______ _______ _____ _____    ______ ____
ROOT
ATOM      1  C   UNL     1       1.442  -4.380   0.891  0.00  0.00    +0.024 C 
ATOM      2  C   UNL     1       2.755  -3.596   0.849  0.00  0.00    -0.069 C 
ATOM      3  N   UNL     1       3.002  -2.961   2.146  0.00  0.00    +0.381 N 
ATOM      4  C   UNL     1       3.127  -3.971   3.199  0.00  0.00    -0.078 C 
ATOM      5  C   UNL     1       1.826  -4.767   3.319  0.00  0.00    -0.015 C 
ATOM      6  C   UNL     1       0.821  -4.237   2.287  0.00  0.00    -0.007 C 
ATOM      7  C   UNL     1       0.589  -2.746   2.564  0.00  0.00    -0.013 C 
ATOM      8  C   UNL     1       1.934  -2.011   2.466  0.00  0.00    -0.086 C 
ATOM      9  H   UNL     1       3.874  -2.456   2.093  0.00  0.00    -0.082 HD
ENDROOT
BRANCH   1  12
ATOM     10  C   UNL     1      -1.716  -3.456  -0.960  0.00  0.00    +0.048 A 
ATOM     11  C   UNL     1      -0.878  -3.978   0.014  0.00  0.00    +0.047 A 
ATOM     12  C   UNL     1       0.492  -3.829  -0.142  0.00  0.00    +0.047 A 
ATOM     13  N   UNL     1       0.955  -3.199  -1.207  0.00  0.00    -0.232 NA
ATOM     14  C   UNL     1       0.126  -2.712  -2.120  0.00  0.00    +0.160 A 
ATOM     15  N   UNL     1      -1.188  -2.841  -2.004  0.00  0.00    -0.232 NA
BRANCH  14  16
ATOM     16  C   UNL     1       0.683  -2.009  -3.303  0.00  0.00    +0.022 A 
ATOM     17  C   UNL     1       2.063  -1.862  -3.466  0.00  0.00    +0.031 A 
ATOM     18  C   UNL     1       2.538  -1.202  -4.582  0.00  0.00    +0.111 A 
ATOM     19  N   UNL     1       1.710  -0.715  -5.484  0.00  0.00    -0.263 NA
ATOM     20  C   UNL     1       0.401  -0.832  -5.368  0.00  0.00    +0.111 A 
ATOM     21  C   UNL     1      -0.158  -1.482  -4.286  0.00  0.00    +0.031 A 
ENDBRANCH  14  16
BRANCH  10  22
ATOM     22  C   UNL     1      -3.212  -3.594  -0.833  0.00  0.00    +0.037 C 
BRANCH  22  24
ATOM     23  C   UNL     1      -5.173  -5.044  -1.374  0.00  0.00    +0.004 C 
ATOM     24  C   UNL     1      -3.645  -4.961  -1.366  0.00  0.00    +0.006 C 
ENDBRANCH  22  24
BRANCH  22  25
ATOM     25  C   UNL     1      -3.612  -3.470   0.639  0.00  0.00    +0.006 C 
ATOM     26  C   UNL     1      -3.300  -2.057   1.135  0.00  0.00    +0.004 C 
ENDBRANCH  22  25
ENDBRANCH  10  22
ENDBRANCH   1  12
BRANCH   8  27
ATOM     27  C   UNL     1       1.855  -0.947   1.369  0.00  0.00    -0.098 C 
BRANCH  27  28
ATOM     28  N   UNL     1       3.170  -0.313   1.206  0.00  0.00    +0.383 N 
ATOM     29  H   UNL     1       3.483   0.044   2.097  0.00  0.00    -0.085 HD
ATOM     30  H   UNL     1       3.832  -0.994   0.865  0.00  0.00    -0.085 HD
BRANCH  28  31
ATOM     31  C   UNL     1       3.064   0.793   0.245  0.00  0.00    -0.007 C 
BRANCH  31  32
ATOM     32  C   UNL     1       4.434   1.366  -0.013  0.00  0.00    +0.089 A 
ATOM     33  C   UNL     1       5.285   0.967  -0.975  0.00  0.00    +0.043 A 
ATOM     34  C   UNL     1       6.443   1.769  -0.856  0.00  0.00    +0.047 A 
ATOM     35  C   UNL     1       6.230   2.612   0.171  0.00  0.00    +0.130 A 
ATOM     36  O   UNL     1       5.009   2.367   0.674  0.00  0.00    -0.464 OA
BRANCH  35  37
ATOM     37  C   UNL     1       7.195   3.656   0.669  0.00  0.00    +0.230 C 
BRANCH  37  38
ATOM     38  O   UNL     1       6.964   4.886  -0.022  0.00  0.00    -0.387 OA
ATOM     39  H   UNL     1       7.551   5.605   0.248  0.00  0.00    +0.210 HD
ENDBRANCH  37  38
ENDBRANCH  35  37
ENDBRANCH  31  32
ENDBRANCH  28  31
ENDBRANCH  27  28
ENDBRANCH   8  27
TORSDOF 11
