REMARK  Name = ZINC38915385
REMARK  8 active torsions:
REMARK  status: ('A' for Active; 'I' for Inactive)
REMARK    1  A    between atoms: C_5  and  C_7
REMARK    2  A    between atoms: C_7  and  S_8
REMARK    3  A    between atoms: S_8  and  C_9
REMARK    4  A    between atoms: C_12  and  S_15
REMARK    5  A    between atoms: S_15  and  C_16
REMARK    6  A    between atoms: C_16  and  C_17
REMARK    7  A    between atoms: N_19  and  N_20
REMARK    8  A    between atoms: C_21  and  C_22
REMARK                            x       y       z     vdW  Elec       q    Type
REMARK                         _______ _______ _______ _____ _____    ______ ____
ROOT
ATOM      1  C   UNL     1      -1.539  -7.112   1.825  0.00  0.00    +0.169 C 
ENDROOT
BRANCH   1   2
ATOM      2  C   UNL     1      -2.847  -7.836   2.016  0.00  0.00    +0.242 C 
ATOM      3  O   UNL     1      -2.854  -9.031   2.225  0.00  0.00    -0.273 OA
ATOM      4  N   UNL     1      -4.009  -7.156   1.955  0.00  0.00    -0.206 N 
ATOM      5  H   UNL     1      -4.003  -6.200   1.788  0.00  0.00    +0.177 HD
BRANCH   4   6
ATOM      6  N   UNL     1      -5.225  -7.829   2.133  0.00  0.00    -0.188 NA
ATOM      7  C   UNL     1      -6.353  -7.168   2.074  0.00  0.00    +0.136 C 
BRANCH   7   8
ATOM      8  C   UNL     1      -7.570  -7.841   2.252  0.00  0.00    +0.000 C 
ATOM      9  C   UNL     1      -8.850  -7.293   2.215  0.00  0.00    +0.004 A 
ATOM     10  C   UNL     1      -9.318  -5.977   2.002  0.00  0.00    +0.010 A 
ATOM     11  C   UNL     1     -10.651  -5.726   2.020  0.00  0.00    +0.001 A 
ATOM     12  C   UNL     1     -11.585  -6.742   2.246  0.00  0.00    +0.002 A 
ATOM     13  C   UNL     1     -11.208  -8.026   2.458  0.00  0.00    +0.026 A 
ATOM     14  C   UNL     1      -9.829  -8.367   2.453  0.00  0.00    +0.043 A 
ATOM     15  N   UNL     1      -9.216  -9.518   2.631  0.00  0.00    -0.380 N 
ATOM     16  C   UNL     1      -7.768  -9.317   2.519  0.00  0.00    +0.150 C 
ATOM     17  H   UNL     1      -9.654 -10.366   2.804  0.00  0.00    +0.160 HD
ENDBRANCH   7   8
ENDBRANCH   4   6
ENDBRANCH   1   2
BRANCH   1  18
ATOM     18  S   UNL     1      -0.169  -8.293   1.962  0.00  0.00    -0.117 S 
BRANCH  18  22
ATOM     19  C   UNL     1       1.276  -4.553   1.507  0.00  0.00    +0.151 C 
ATOM     20  N   UNL     1       1.280  -5.245   0.409  0.00  0.00    -0.172 NA
ATOM     21  N   UNL     1       1.298  -6.622   0.384  0.00  0.00    -0.244 N 
ATOM     22  C   UNL     1       1.313  -7.277   1.711  0.00  0.00    +0.211 C 
ATOM     23  S   UNL     1       1.306  -5.790   2.795  0.00  0.00    -0.063 S 
ATOM     24  H   UNL     1       1.301  -7.126  -0.445  0.00  0.00    +0.170 HD
BRANCH  19  25
ATOM     25  S   UNL     1       1.254  -2.800   1.685  0.00  0.00    -0.093 S 
BRANCH  25  26
ATOM     26  C   UNL     1       1.229  -2.186  -0.022  0.00  0.00    +0.113 C 
BRANCH  26  31
ATOM     27  C   UNL     1      -0.017   1.378   0.010  0.00  0.00    +0.000 A 
ATOM     28  C   UNL     1       1.171   2.086   0.002  0.00  0.00    +0.001 A 
ATOM     29  C   UNL     1       2.377   1.412  -0.013  0.00  0.00    +0.020 A 
ATOM     30  C   UNL     1       2.397   0.029  -0.021  0.00  0.00    +0.045 A 
ATOM     31  C   UNL     1       1.208  -0.679  -0.013  0.00  0.00    -0.019 A 
ATOM     32  C   UNL     1       0.002  -0.004   0.002  0.00  0.00    +0.006 A 
ATOM     33 CL   UNL     1       3.912  -0.818  -0.041  0.00  0.00    -0.083 Cl
ENDBRANCH  26  31
ENDBRANCH  25  26
ENDBRANCH  19  25
ENDBRANCH  18  22
ENDBRANCH   1  18
TORSDOF 8
