REMARK  Name = ZINC12453150
REMARK  9 active torsions:
REMARK  status: ('A' for Active; 'I' for Inactive)
REMARK    1  A    between atoms: C_3  and  C_19
REMARK    2  A    between atoms: C_5  and  O_7
REMARK    3  A    between atoms: O_7  and  C_8
REMARK    4  A    between atoms: C_8  and  C_9
REMARK    5  A    between atoms: C_9  and  C_11
REMARK    6  A    between atoms: C_9  and  O_18
REMARK    7  A    between atoms: C_11  and  N_57
REMARK    8  A    between atoms: C_14  and  O_17
REMARK    9  A    between atoms: C_19  and  N_59
REMARK                            x       y       z     vdW  Elec       q    Type
REMARK                         _______ _______ _______ _____ _____    ______ ____
ROOT
ATOM      1  C   UNL     1       1.174   1.782   0.013  0.00  0.00    +0.004 A 
ATOM      2  C   UNL     1      -0.016   1.077   0.002  0.00  0.00    +0.002 A 
ATOM      3  C   UNL     1      -1.222   1.752  -0.015  0.00  0.00    -0.060 A 
ATOM      4  C   UNL     1      -1.243   3.133  -0.009  0.00  0.00    +0.047 A 
ATOM      5  C   UNL     1      -0.051   3.843   0.001  0.00  0.00    +0.121 A 
ATOM      6  C   UNL     1       1.159   3.164   0.012  0.00  0.00    +0.045 A 
ENDROOT
BRANCH   5   7
ATOM      7  O   UNL     1      -0.068   5.202   0.000  0.00  0.00    -0.489 OA
BRANCH   7   8
ATOM      8  C   UNL     1       1.196   5.867   0.011  0.00  0.00    +0.258 C 
BRANCH   8   9
ATOM      9  C   UNL     1       0.977   7.381   0.008  0.00  0.00    +0.135 C 
BRANCH   9  10
ATOM     10  O   UNL     1       0.355   7.770  -1.219  0.00  0.00    -0.390 OA
ATOM     11  H   UNL     1       0.873   7.555  -2.007  0.00  0.00    +0.210 HD
ENDBRANCH   9  10
BRANCH   9  12
ATOM     12  C   UNL     1       2.324   8.092   0.145  0.00  0.00    -0.044 C 
BRANCH  12  18
ATOM     13  C   UNL     1       3.348  10.260  -0.192  0.00  0.00    -0.076 C 
ATOM     14  C   UNL     1       3.055  11.758  -0.315  0.00  0.00    +0.013 C 
ATOM     15  C   UNL     1       2.499  12.275   1.014  0.00  0.00    +0.111 C 
ATOM     16  C   UNL     1       1.240  11.482   1.375  0.00  0.00    +0.013 C 
ATOM     17  C   UNL     1       1.585   9.993   1.450  0.00  0.00    -0.076 C 
ATOM     18  N   UNL     1       2.091   9.552   0.133  0.00  0.00    +0.382 N 
ATOM     19  H   UNL     1       1.390   9.771  -0.585  0.00  0.00    -0.082 HD
BRANCH  15  20
ATOM     20  O   UNL     1       2.171  13.660   0.888  0.00  0.00    -0.392 OA
ATOM     21  H   UNL     1       2.924  14.223   0.660  0.00  0.00    +0.210 HD
ENDBRANCH  15  20
ENDBRANCH  12  18
ENDBRANCH   9  12
ENDBRANCH   8   9
ENDBRANCH   7   8
ENDBRANCH   5   7
BRANCH   3  22
ATOM     22  C   UNL     1      -2.516   0.980  -0.033  0.00  0.00    -0.042 C 
BRANCH  22  31
ATOM     23  C   UNL     1      -4.058  -0.244   1.378  0.00  0.00    -0.073 C 
ATOM     24  C   UNL     1      -4.204  -0.781   2.812  0.00  0.00    +0.024 C 
ATOM     25  C   UNL     1      -4.171   0.389   3.741  0.00  0.00    -0.011 A 
ATOM     26  C   UNL     1      -3.778   1.658   3.438  0.00  0.00    -0.054 A 
ATOM     27  C   UNL     1      -3.834   2.591   4.471  0.00  0.00    +0.009 A 
ATOM     28  C   UNL     1      -4.264   2.215   5.698  0.00  0.00    +0.045 A 
ATOM     29  S   UNL     1      -4.618   0.481   5.451  0.00  0.00    -0.101 S 
ATOM     30  C   UNL     1      -3.308   1.983   2.023  0.00  0.00    -0.042 C 
ATOM     31  N   UNL     1      -2.926   0.714   1.359  0.00  0.00    +0.385 N 
ATOM     32  H   UNL     1      -2.135   0.300   1.867  0.00  0.00    -0.081 HD
ENDBRANCH  22  31
ENDBRANCH   3  22
TORSDOF 9
