REMARK  Name = ZINC23130764
REMARK  7 active torsions:
REMARK  status: ('A' for Active; 'I' for Inactive)
REMARK    1  A    between atoms: C_1  and  N_2
REMARK    2  A    between atoms: N_2  and  C_3
REMARK    3  A    between atoms: N_2  and  C_25
REMARK    4  A    between atoms: C_3  and  C_4
REMARK    5  A    between atoms: C_7  and  C_10
REMARK    6  A    between atoms: C_16  and  C_18
REMARK    7  A    between atoms: C_25  and  C_26
REMARK                            x       y       z     vdW  Elec       q    Type
REMARK                         _______ _______ _______ _____ _____    ______ ____
ROOT
ATOM      1  C   UNL     1      -0.259   8.021   0.048  0.00  0.00    -0.064 A 
ATOM      2  C   UNL     1       0.969   7.382   0.033  0.00  0.00    +0.002 A 
ATOM      3  C   UNL     1       1.032   6.004   0.025  0.00  0.00    +0.012 A 
ATOM      4  C   UNL     1      -0.145   5.254   0.032  0.00  0.00    +0.017 A 
ATOM      5  C   UNL     1      -1.380   5.905   0.041  0.00  0.00    +0.012 A 
ATOM      6  C   UNL     1      -1.429   7.284   0.055  0.00  0.00    +0.002 A 
ENDROOT
BRANCH   4   7
ATOM      7  C   UNL     1      -0.085   3.778   0.023  0.00  0.00    +0.141 A 
ATOM      8  N   UNL     1       1.128   3.158   0.008  0.00  0.00    -0.307 N 
ATOM      9  H   UNL     1       2.052   3.755   0.003  0.00  0.00    +0.170 HD
ATOM     10  C   UNL     1       1.191   1.809   0.000  0.00  0.00    +0.252 A 
ATOM     11  O   UNL     1       2.268   1.236  -0.013  0.00  0.00    -0.268 OA
ATOM     12  C   UNL     1      -0.013   1.076   0.008  0.00  0.00    +0.093 A 
ATOM     13  C   UNL     1      -1.196   1.753   0.017  0.00  0.00    +0.050 A 
ATOM     14  N   UNL     1      -1.204   3.085   0.031  0.00  0.00    -0.234 NA
BRANCH  13  15
ATOM     15  C   UNL     1      -2.498   0.993   0.019  0.00  0.00    +0.021 C 
ATOM     16  C   UNL     1      -3.298   1.353   1.273  0.00  0.00    +0.006 C 
ATOM     17  C   UNL     1      -4.644   0.623   1.237  0.00  0.00    -0.018 C 
ATOM     18  C   UNL     1      -5.393   1.008  -0.041  0.00  0.00    -0.083 C 
ATOM     19  N   UNL     1      -4.586   0.642  -1.212  0.00  0.00    +0.379 N 
ATOM     20  C   UNL     1      -3.309   1.367  -1.224  0.00  0.00    -0.073 C 
ATOM     21  H   UNL     1      -4.377  -0.437  -1.191  0.00  0.00    -0.086 HD
ATOM     22  H   UNL     1      -5.139   0.891  -2.131  0.00  0.00    -0.086 HD
ENDBRANCH  13  15
ENDBRANCH   4   7
BRANCH   1  23
ATOM     23  C   UNL     1      -0.320   9.527   0.055  0.00  0.00    -0.043 C 
BRANCH  23  25
ATOM     24  C   UNL     1      -1.598   9.625  -1.999  0.00  0.00    -0.095 C 
ATOM     25  N   UNL     1      -0.353  10.023  -1.327  0.00  0.00    +0.385 N 
ATOM     26  H   UNL     1       0.486   9.564  -1.871  0.00  0.00    -0.081 HD
BRANCH  25  27
ATOM     27  C   UNL     1      -0.175  11.480  -1.368  0.00  0.00    -0.003 C 
BRANCH  27  28
ATOM     28  C   UNL     1       0.031  11.921  -2.794  0.00  0.00    +0.089 A 
ATOM     29  C   UNL     1      -0.939  12.280  -3.655  0.00  0.00    +0.042 A 
ATOM     30  C   UNL     1      -0.302  12.617  -4.871  0.00  0.00    +0.041 A 
ATOM     31  C   UNL     1       1.018  12.444  -4.682  0.00  0.00    +0.195 A 
ATOM     32  O   UNL     1       1.215  12.028  -3.420  0.00  0.00    -0.470 OA
ENDBRANCH  27  28
ENDBRANCH  25  27
ENDBRANCH  23  25
ENDBRANCH   1  23
TORSDOF 6
