REMARK  Name = ZINC06193580
REMARK  11 active torsions:
REMARK  status: ('A' for Active; 'I' for Inactive)
REMARK    1  A    between atoms: C_1  and  C_2
REMARK    2  A    between atoms: C_2  and  N_66
REMARK    3  A    between atoms: C_3  and  C_4
REMARK    4  A    between atoms: C_3  and  N_66
REMARK    5  A    between atoms: C_10  and  C_12
REMARK    6  A    between atoms: C_10  and  C_26
REMARK    7  A    between atoms: C_10  and  N_66
REMARK    8  A    between atoms: C_15  and  C_25
REMARK    9  A    between atoms: C_18  and  C_24
REMARK   10  A    between atoms: N_30  and  C_31
REMARK   11  A    between atoms: C_31  and  C_32
REMARK                            x       y       z     vdW  Elec       q    Type
REMARK                         _______ _______ _______ _____ _____    ______ ____
ROOT
ATOM      1  C   UNL     1       4.051   1.054   3.236  0.00  0.00    +0.039 C 
ENDROOT
BRANCH   1   2
ATOM      2  C   UNL     1       2.652   1.600   3.108  0.00  0.00    +0.011 A 
ATOM      3  C   UNL     1       2.435   2.934   3.223  0.00  0.00    +0.018 A 
ATOM      4  C   UNL     1       1.064   3.432   3.094  0.00  0.00    +0.002 A 
ATOM      5  C   UNL     1       0.777   4.797   3.202  0.00  0.00    -0.041 A 
ATOM      6  C   UNL     1      -0.513   5.229   3.083  0.00  0.00    +0.004 A 
ATOM      7  C   UNL     1      -1.541   4.327   2.845  0.00  0.00    +0.005 A 
ATOM      8  C   UNL     1      -1.282   2.978   2.735  0.00  0.00    -0.026 A 
ATOM      9  C   UNL     1       0.024   2.514   2.858  0.00  0.00    +0.052 A 
ATOM     10  N   UNL     1       0.312   1.170   2.752  0.00  0.00    -0.322 N 
ATOM     11  H   UNL     1      -0.429   0.519   2.585  0.00  0.00    +0.169 HD
ATOM     12  C   UNL     1       1.574   0.722   2.872  0.00  0.00    +0.251 A 
ATOM     13  O   UNL     1       1.791  -0.474   2.772  0.00  0.00    -0.268 OA
ATOM     14  C   UNL     1      -2.408   2.010   2.482  0.00  0.00    +0.046 C 
ATOM     15  C   UNL     1       1.886   5.785   3.456  0.00  0.00    +0.044 C 
ENDBRANCH   1   2
BRANCH   1  16
ATOM     16  C   UNL     1       5.033   2.196   3.288  0.00  0.00    +0.143 A 
ATOM     17  N   UNL     1       5.276   2.973   4.316  0.00  0.00    -0.115 NA
ATOM     18  N   UNL     1       6.176   3.825   3.966  0.00  0.00    -0.023 NA
ATOM     19  N   UNL     1       6.515   3.612   2.742  0.00  0.00    -0.044 NA
ATOM     20  N   UNL     1       5.836   2.612   2.291  0.00  0.00    -0.226 N 
BRANCH  20  21
ATOM     21  C   UNL     1       5.920   2.040   0.945  0.00  0.00    +0.182 C 
BRANCH  21  22
ATOM     22  C   UNL     1       5.046   2.831   0.007  0.00  0.00    -0.026 A 
ATOM     23  C   UNL     1       3.707   2.512  -0.123  0.00  0.00    +0.005 A 
ATOM     24  C   UNL     1       2.903   3.241  -0.980  0.00  0.00    +0.000 A 
ATOM     25  C   UNL     1       3.441   4.281  -1.715  0.00  0.00    +0.000 A 
ATOM     26  C   UNL     1       4.781   4.596  -1.588  0.00  0.00    +0.000 A 
ATOM     27  C   UNL     1       5.583   3.871  -0.728  0.00  0.00    +0.005 A 
ENDBRANCH  21  22
ENDBRANCH  20  21
ENDBRANCH   1  16
BRANCH   1  28
ATOM     28  N   UNL     1       4.185   0.254   4.471  0.00  0.00    +0.392 N 
ATOM     29  H   UNL     1       5.175   0.021   4.612  0.00  0.00    -0.080 HD
BRANCH  28  31
ATOM     30  C   UNL     1       2.175   1.080   5.649  0.00  0.00    -0.017 C 
ATOM     31  C   UNL     1       3.705   1.032   5.632  0.00  0.00    -0.080 C 
ENDBRANCH  28  31
BRANCH  28  32
ATOM     32  C   UNL     1       3.410  -0.999   4.347  0.00  0.00    -0.042 C 
BRANCH  32  33
ATOM     33  C   UNL     1       3.814  -1.931   5.461  0.00  0.00    -0.064 A 
ATOM     34  C   UNL     1       4.938  -2.723   5.325  0.00  0.00    +0.002 A 
ATOM     35  C   UNL     1       5.312  -3.574   6.348  0.00  0.00    +0.000 A 
ATOM     36  C   UNL     1       4.555  -3.640   7.503  0.00  0.00    +0.000 A 
ATOM     37  C   UNL     1       3.427  -2.852   7.637  0.00  0.00    +0.000 A 
ATOM     38  C   UNL     1       3.057  -1.997   6.615  0.00  0.00    +0.002 A 
ENDBRANCH  32  33
ENDBRANCH  28  32
ENDBRANCH   1  28
TORSDOF 8
