REMARK  Name = ZINC65321886
REMARK  8 active torsions:
REMARK  status: ('A' for Active; 'I' for Inactive)
REMARK    1  A    between atoms: C_7  and  C_24
REMARK    2  A    between atoms: C_9  and  C_21
REMARK    3  A    between atoms: N_11  and  C_12
REMARK    4  A    between atoms: C_12  and  C_13
REMARK    5  A    between atoms: C_24  and  N_25
REMARK    6  A    between atoms: N_25  and  C_26
REMARK    7  A    between atoms: C_26  and  C_27
REMARK    8  A    between atoms: C_27  and  C_28
REMARK                            x       y       z     vdW  Elec       q    Type
REMARK                         _______ _______ _______ _____ _____    ______ ____
ROOT
ATOM      1  C   UNL     1      -0.098   1.097  -1.089  0.00  0.00    +0.000 A 
ATOM      2  C   UNL     1       1.049   1.869  -1.065  0.00  0.00    +0.002 A 
ATOM      3  C   UNL     1       2.255   1.310  -0.699  0.00  0.00    +0.023 A 
ATOM      4  C   UNL     1       2.328  -0.040  -0.350  0.00  0.00    +0.034 A 
ATOM      5  C   UNL     1       1.173  -0.805  -0.376  0.00  0.00    -0.023 A 
ATOM      6  C   UNL     1      -0.033  -0.240  -0.744  0.00  0.00    +0.006 A 
ATOM      7  C   UNL     1       1.521  -2.216   0.041  0.00  0.00    +0.035 C 
ATOM      8  C   UNL     1       3.033  -2.175   0.316  0.00  0.00    +0.193 C 
ATOM      9  N   UNL     1       3.435  -0.792   0.046  0.00  0.00    -0.312 N 
ENDROOT
BRANCH   8  10
ATOM     10  C   UNL     1       3.314  -2.533   1.752  0.00  0.00    +0.376 C 
ATOM     11  O   UNL     1       3.312  -3.701   2.101  0.00  0.00    -0.244 OA
ATOM     12  O   UNL     1       3.542  -1.654   2.566  0.00  0.00    -0.244 OA
ENDBRANCH   8  10
BRANCH   9  13
ATOM     13  C   UNL     1       4.800  -0.275   0.173  0.00  0.00    +0.142 C 
BRANCH  13  14
ATOM     14  C   UNL     1       5.593  -0.643  -1.054  0.00  0.00    -0.012 A 
ATOM     15  C   UNL     1       6.368  -1.788  -1.057  0.00  0.00    +0.009 A 
ATOM     16  C   UNL     1       7.096  -2.127  -2.182  0.00  0.00    +0.039 A 
ATOM     17  C   UNL     1       7.049  -1.319  -3.306  0.00  0.00    +0.125 A 
ATOM     18  C   UNL     1       6.273  -0.173  -3.303  0.00  0.00    +0.058 A 
ATOM     19  C   UNL     1       5.541   0.162  -2.178  0.00  0.00    +0.048 A 
ATOM     20 CL   UNL     1       4.562   1.595  -2.175  0.00  0.00    -0.083 Cl
ATOM     21  F   UNL     1       7.762  -1.650  -4.406  0.00  0.00    -0.205 F 
ENDBRANCH  13  14
ENDBRANCH   9  13
BRANCH   7  22
ATOM     22  C   UNL     1       0.756  -2.602   1.308  0.00  0.00    -0.072 C 
BRANCH  22  23
ATOM     23  N   UNL     1      -0.681  -2.672   1.011  0.00  0.00    +0.380 N 
ATOM     24  H   UNL     1      -1.001  -1.772   0.686  0.00  0.00    -0.086 HD
ATOM     25  H   UNL     1      -0.843  -3.366   0.296  0.00  0.00    -0.086 HD
BRANCH  23  26
ATOM     26  C   UNL     1      -1.415  -3.043   2.228  0.00  0.00    -0.078 C 
BRANCH  26  27
ATOM     27  C   UNL     1      -2.912  -3.116   1.918  0.00  0.00    +0.014 C 
BRANCH  27  28
ATOM     28  C   UNL     1      -3.666  -3.496   3.166  0.00  0.00    -0.043 C 
ATOM     29  C   UNL     1      -4.261  -2.657   4.044  0.00  0.00    -0.001 A 
ATOM     30  C   UNL     1      -4.381  -1.195   4.097  0.00  0.00    +0.010 A 
ATOM     31  C   UNL     1      -5.053  -0.629   5.125  0.00  0.00    +0.001 A 
ATOM     32  C   UNL     1      -5.637  -1.401   6.138  0.00  0.00    +0.002 A 
ATOM     33  C   UNL     1      -5.570  -2.749   6.158  0.00  0.00    +0.026 A 
ATOM     34  C   UNL     1      -4.887  -3.450   5.126  0.00  0.00    +0.043 A 
ATOM     35  N   UNL     1      -4.686  -4.730   4.925  0.00  0.00    -0.380 N 
ATOM     36  C   UNL     1      -3.914  -4.894   3.688  0.00  0.00    +0.144 C 
ATOM     37  H   UNL     1      -4.999  -5.449   5.496  0.00  0.00    +0.160 HD
ENDBRANCH  27  28
ENDBRANCH  26  27
ENDBRANCH  23  26
ENDBRANCH  22  23
ENDBRANCH   7  22
TORSDOF 8
