REMARK  Name = ZINC09453175
REMARK  11 active torsions:
REMARK  status: ('A' for Active; 'I' for Inactive)
REMARK    1  A    between atoms: C_1  and  C_2
REMARK    2  A    between atoms: C_3  and  C_32
REMARK    3  A    between atoms: C_11  and  O_13
REMARK    4  A    between atoms: O_13  and  C_14
REMARK    5  A    between atoms: C_14  and  C_16
REMARK    6  A    between atoms: C_14  and  C_17
REMARK    7  A    between atoms: N_19  and  C_20
REMARK    8  A    between atoms: C_20  and  C_21
REMARK    9  A    between atoms: C_21  and  C_22
REMARK   10  A    between atoms: C_25  and  S_28
REMARK   11  A    between atoms: S_28  and  N_31
REMARK                            x       y       z     vdW  Elec       q    Type
REMARK                         _______ _______ _______ _____ _____    ______ ____
ROOT
ATOM      1  C   UNL     1      -2.773   4.752   8.963  0.00  0.00    +0.254 C 
ATOM      2  O   UNL     1      -3.831   5.243   8.627  0.00  0.00    -0.272 OA
ATOM      3  N   UNL     1      -2.200   5.118  10.127  0.00  0.00    -0.312 N 
ATOM      4  H   UNL     1      -1.355   4.725  10.395  0.00  0.00    +0.149 HD
ENDROOT
BRANCH   1   5
ATOM      5  C   UNL     1      -2.101   3.734   8.079  0.00  0.00    +0.255 C 
ATOM      6  C   UNL     1      -2.058   2.384   8.797  0.00  0.00    +0.062 C 
BRANCH   5   7
ATOM      7  O   UNL     1      -2.836   3.602   6.860  0.00  0.00    -0.480 OA
BRANCH   7  18
ATOM      8  C   UNL     1      -0.674   1.733   1.019  0.00  0.00    +0.045 C 
ATOM      9  C   UNL     1      -0.029   1.794   2.380  0.00  0.00    -0.030 A 
ATOM     10  C   UNL     1       1.261   1.408   2.558  0.00  0.00    +0.037 A 
ATOM     11  C   UNL     1       1.840   1.468   3.843  0.00  0.00    +0.340 A 
ATOM     12  O   UNL     1       2.996   1.115   3.990  0.00  0.00    -0.245 OA
ATOM     13  O   UNL     1       1.151   1.910   4.906  0.00  0.00    -0.422 OA
ATOM     14  C   UNL     1      -0.135   2.309   4.797  0.00  0.00    +0.143 A 
ATOM     15  C   UNL     1      -0.777   2.270   3.545  0.00  0.00    +0.021 A 
ATOM     16  C   UNL     1      -2.109   2.681   3.428  0.00  0.00    +0.015 A 
ATOM     17  C   UNL     1      -2.783   3.121   4.531  0.00  0.00    +0.046 A 
ATOM     18  C   UNL     1      -2.153   3.162   5.773  0.00  0.00    +0.125 A 
ATOM     19  C   UNL     1      -0.834   2.758   5.907  0.00  0.00    +0.092 A 
ATOM     20  C   UNL     1       2.070   0.910   1.388  0.00  0.00    +0.051 C 
ENDBRANCH   7  18
ENDBRANCH   5   7
ENDBRANCH   1   5
BRANCH   3  21
ATOM     21  C   UNL     1      -2.854   6.108  10.986  0.00  0.00    +0.109 C 
BRANCH  21  22
ATOM     22  C   UNL     1      -2.001   6.341  12.235  0.00  0.00    +0.054 C 
BRANCH  22  23
ATOM     23  C   UNL     1      -2.674   7.360  13.119  0.00  0.00    -0.046 A 
ATOM     24  C   UNL     1      -2.391   8.704  12.964  0.00  0.00    +0.005 A 
ATOM     25  C   UNL     1      -3.012   9.638  13.772  0.00  0.00    +0.029 A 
ATOM     26  C   UNL     1      -3.907   9.228  14.742  0.00  0.00    +0.105 A 
ATOM     27  C   UNL     1      -4.186   7.883  14.900  0.00  0.00    +0.029 A 
ATOM     28  C   UNL     1      -3.569   6.949  14.089  0.00  0.00    +0.005 A 
BRANCH  26  29
ATOM     29  S   UNL     1      -4.694  10.418  15.775  0.00  0.00    +0.056 S 
ATOM     30  O   UNL     1      -4.677  11.648  15.063  0.00  0.00    -0.153 OA
ATOM     31  O   UNL     1      -5.899   9.822  16.236  0.00  0.00    -0.153 OA
BRANCH  29  32
ATOM     32  N   UNL     1      -3.730  10.627  17.104  0.00  0.00    -0.204 NA
ATOM     33  H   UNL     1      -3.712  11.482  17.561  0.00  0.00    +0.144 HD
ATOM     34  H   UNL     1      -3.182   9.894  17.426  0.00  0.00    +0.144 HD
ENDBRANCH  29  32
ENDBRANCH  26  29
ENDBRANCH  22  23
ENDBRANCH  21  22
ENDBRANCH   3  21
TORSDOF 8
