REMARK  Name = ZINC04430282
REMARK  3 active torsions:
REMARK  status: ('A' for Active; 'I' for Inactive)
REMARK    1  A    between atoms: C_1  and  C_2
REMARK    2  A    between atoms: C_2  and  O_3
REMARK    3  A    between atoms: O_3  and  C_4
REMARK                            x       y       z     vdW  Elec       q    Type
REMARK                         _______ _______ _______ _____ _____    ______ ____
ROOT
ATOM      1  C   UNL     1       0.776  -1.806  -1.336  0.00  0.00    +0.247 A 
ATOM      2  C   UNL     1       1.423  -2.344  -2.458  0.00  0.00    +0.172 A 
ATOM      3  C   UNL     1       1.502  -3.743  -2.573  0.00  0.00    +0.189 A 
ATOM      4  N   UNL     1       2.174  -3.990  -3.744  0.00  0.00    -0.196 NA
ATOM      5  C   UNL     1       2.480  -2.783  -4.303  0.00  0.00    +0.225 A 
ATOM      6  N   UNL     1       2.038  -1.819  -3.546  0.00  0.00    -0.209 NA
ATOM      7 CL   UNL     1       3.332  -2.566  -5.800  0.00  0.00    -0.041 Cl
ATOM      8  N   UNL     1       0.967  -4.500  -1.621  0.00  0.00    -0.196 NA
ATOM      9  C   UNL     1       0.369  -3.950  -0.584  0.00  0.00    +0.228 A 
ATOM     10  N   UNL     1       0.275  -2.640  -0.433  0.00  0.00    -0.181 NA
ATOM     11 CL   UNL     1      -0.315  -4.983   0.631  0.00  0.00    -0.041 Cl
ENDROOT
BRANCH   1  12
ATOM     12  O   UNL     1       0.671  -0.465  -1.174  0.00  0.00    -0.475 OA
BRANCH  12  14
ATOM     13  C   UNL     1      -0.019   1.526   0.010  0.00  0.00    +0.048 C 
ATOM     14  C   UNL     1       0.002  -0.004   0.002  0.00  0.00    +0.227 C 
ENDBRANCH  12  14
ENDBRANCH   1  12
TORSDOF 2
