REMARK  Name = ZINC41393996
REMARK  4 active torsions:
REMARK  status: ('A' for Active; 'I' for Inactive)
REMARK    1  A    between atoms: C_1  and  C_2
REMARK    2  A    between atoms: C_2  and  N_3
REMARK    3  A    between atoms: N_13  and  C_14
REMARK    4  A    between atoms: C_14  and  C_15
REMARK                            x       y       z     vdW  Elec       q    Type
REMARK                         _______ _______ _______ _____ _____    ______ ____
ROOT
ATOM      1  N   UNL     1      -1.372  -0.511   0.012  0.00  0.00    -0.281 N 
ATOM      2  C   UNL     1      -1.982  -0.741   1.190  0.00  0.00    +0.264 A 
ATOM      3  O   UNL     1      -1.399  -0.529   2.240  0.00  0.00    -0.267 OA
ATOM      4  C   UNL     1      -3.325  -1.236   1.193  0.00  0.00    +0.076 A 
ATOM      5  C   UNL     1      -4.172  -1.554   2.344  0.00  0.00    -0.023 A 
ATOM      6  C   UNL     1      -5.413  -2.011   2.082  0.00  0.00    -0.004 A 
ATOM      7  S   UNL     1      -5.528  -2.044   0.313  0.00  0.00    -0.073 S 
ATOM      8  C   UNL     1      -3.902  -1.444  -0.071  0.00  0.00    +0.117 A 
ATOM      9  N   UNL     1      -3.244  -1.197  -1.198  0.00  0.00    -0.208 NA
ATOM     10  C   UNL     1      -2.011  -0.736  -1.171  0.00  0.00    +0.200 A 
ATOM     11  N   UNL     1      -1.357  -0.484  -2.352  0.00  0.00    -0.311 N 
ATOM     12  C   UNL     1      -6.464  -2.405   3.075  0.00  0.00    +0.043 C 
ATOM     13  C   UNL     1      -5.797  -2.567   4.447  0.00  0.00    +0.005 C 
ATOM     14  C   UNL     1      -4.907  -1.348   4.708  0.00  0.00    +0.005 C 
ATOM     15  C   UNL     1      -3.691  -1.385   3.782  0.00  0.00    +0.037 C 
ATOM     16  H   UNL     1      -0.447  -0.148  -2.340  0.00  0.00    +0.149 HD
ENDROOT
BRANCH   1  18
ATOM     17  C   UNL     1      -0.019   1.526   0.010  0.00  0.00    +0.027 C 
ATOM     18  C   UNL     1       0.002  -0.004   0.002  0.00  0.00    +0.125 C 
ENDBRANCH   1  18
BRANCH  11  19
ATOM     19  C   UNL     1      -2.034  -0.723  -3.629  0.00  0.00    +0.139 C 
BRANCH  19  20
ATOM     20  C   UNL     1      -1.105  -0.370  -4.763  0.00  0.00    -0.027 A 
ATOM     21  C   UNL     1      -1.091   0.917  -5.268  0.00  0.00    +0.009 A 
ATOM     22  C   UNL     1      -0.241   1.246  -6.307  0.00  0.00    +0.050 A 
ATOM     23  C   UNL     1       0.599   0.285  -6.846  0.00  0.00    +0.166 A 
ATOM     24  C   UNL     1       0.585  -1.011  -6.337  0.00  0.00    +0.167 A 
ATOM     25  C   UNL     1      -0.266  -1.332  -5.292  0.00  0.00    +0.054 A 
ATOM     26  O   UNL     1       1.492  -1.761  -7.029  0.00  0.00    -0.453 OA
ATOM     27  C   UNL     1       1.766  -1.019  -8.232  0.00  0.00    +0.466 C 
ATOM     28  O   UNL     1       1.515   0.347  -7.856  0.00  0.00    -0.453 OA
ENDBRANCH  19  20
ENDBRANCH  11  19
TORSDOF 3
