REMARK  Name = ZINC64591954
REMARK  7 active torsions:
REMARK  status: ('A' for Active; 'I' for Inactive)
REMARK    1  A    between atoms: C_1  and  C_2
REMARK    2  A    between atoms: C_5  and  C_25
REMARK    3  A    between atoms: C_6  and  S_8
REMARK    4  A    between atoms: S_8  and  N_11
REMARK    5  A    between atoms: N_11  and  C_12
REMARK    6  A    between atoms: N_19  and  C_24
REMARK    7  A    between atoms: N_22  and  C_23
REMARK                            x       y       z     vdW  Elec       q    Type
REMARK                         _______ _______ _______ _____ _____    ______ ____
ROOT
ATOM      1  N   UNL     1      -1.016  -3.264   2.854  0.00  0.00    -0.215 N 
ATOM      2  H   UNL     1      -1.659  -3.019   3.539  0.00  0.00    +0.174 HD
ENDROOT
BRANCH   1   3
ATOM      3  C   UNL     1      -1.328  -4.266   1.928  0.00  0.00    +0.068 A 
ATOM      4  C   UNL     1      -0.336  -5.123   1.474  0.00  0.00    +0.054 A 
ATOM      5  C   UNL     1      -0.648  -6.114   0.557  0.00  0.00    +0.071 A 
ATOM      6  C   UNL     1      -1.958  -6.247   0.093  0.00  0.00    +0.071 A 
ATOM      7  C   UNL     1      -2.946  -5.388   0.549  0.00  0.00    +0.050 A 
ATOM      8  C   UNL     1      -2.633  -4.404   1.467  0.00  0.00    +0.065 A 
ATOM      9 CL   UNL     1      -3.872  -3.333   2.043  0.00  0.00    -0.082 Cl
ATOM     10  N   UNL     1      -1.960  -7.315  -0.805  0.00  0.00    -0.295 N 
ATOM     11  C   UNL     1      -0.709  -7.806  -0.882  0.00  0.00    +0.330 A 
ATOM     12  O   UNL     1      -0.366  -8.744  -1.578  0.00  0.00    -0.246 OA
ATOM     13  N   UNL     1       0.105  -7.104  -0.072  0.00  0.00    -0.295 N 
ATOM     14  C   UNL     1       1.538  -7.339   0.116  0.00  0.00    +0.154 C 
ATOM     15  C   UNL     1      -3.125  -7.815  -1.540  0.00  0.00    +0.154 C 
ENDBRANCH   1   3
BRANCH   1  16
ATOM     16  S   UNL     1       0.450  -2.497   2.782  0.00  0.00    +0.073 S 
ATOM     17  O   UNL     1       0.448  -1.521   3.815  0.00  0.00    -0.150 OA
ATOM     18  O   UNL     1       0.667  -2.163   1.418  0.00  0.00    -0.150 OA
BRANCH  16  24
ATOM     19  C   UNL     1       4.637  -5.398   1.609  0.00  0.00    +0.044 C 
ATOM     20  C   UNL     1       3.598  -4.989   2.621  0.00  0.00    -0.049 A 
ATOM     21  C   UNL     1       3.610  -5.544   3.887  0.00  0.00    +0.004 A 
ATOM     22  C   UNL     1       2.656  -5.170   4.815  0.00  0.00    +0.005 A 
ATOM     23  C   UNL     1       1.691  -4.239   4.478  0.00  0.00    -0.024 A 
ATOM     24  C   UNL     1       1.680  -3.683   3.213  0.00  0.00    +0.112 A 
ATOM     25  C   UNL     1       2.636  -4.055   2.286  0.00  0.00    +0.032 A 
ATOM     26  C   UNL     1       0.651  -3.831   5.490  0.00  0.00    +0.046 C 
ENDBRANCH  16  24
ENDBRANCH   1  16
TORSDOF 3
