REMARK  Name = ZINC09257938
REMARK  6 active torsions:
REMARK  status: ('A' for Active; 'I' for Inactive)
REMARK    1  A    between atoms: C_1  and  C_2
REMARK    2  A    between atoms: C_2  and  C_3
REMARK    3  A    between atoms: C_3  and  C_31
REMARK    4  A    between atoms: N_6  and  N_10
REMARK    5  A    between atoms: C_11  and  C_13
REMARK    6  A    between atoms: C_20  and  C_25
REMARK                            x       y       z     vdW  Elec       q    Type
REMARK                         _______ _______ _______ _____ _____    ______ ____
ROOT
ATOM      1  N   UNL     1      -6.102   3.517   0.250  0.00  0.00    -0.220 N 
ATOM      2  C   UNL     1      -4.932   4.156   0.053  0.00  0.00    +0.261 C 
ATOM      3  O   UNL     1      -4.919   5.360  -0.117  0.00  0.00    -0.269 OA
ATOM      4  H   UNL     1      -6.112   2.556   0.385  0.00  0.00    +0.174 HD
ENDROOT
BRANCH   2   5
ATOM      5  C   UNL     1      -3.663   3.393   0.044  0.00  0.00    +0.038 A 
ATOM      6  C   UNL     1      -3.680   2.012   0.239  0.00  0.00    +0.014 A 
ATOM      7  C   UNL     1      -2.499   1.302   0.230  0.00  0.00    +0.016 A 
ATOM      8  C   UNL     1      -1.291   1.967   0.019  0.00  0.00    +0.062 A 
ATOM      9  C   UNL     1      -1.270   3.349  -0.168  0.00  0.00    -0.029 A 
ATOM     10  C   UNL     1      -2.453   4.058  -0.159  0.00  0.00    +0.017 A 
ATOM     11  C   UNL     1       0.034   4.072  -0.386  0.00  0.00    +0.085 C 
ATOM     12  C   UNL     1       1.107   3.099  -0.874  0.00  0.00    +0.211 C 
ATOM     13  O   UNL     1       1.134   1.934   0.002  0.00  0.00    -0.453 OA
ATOM     14  C   UNL     1      -0.014   1.210   0.009  0.00  0.00    +0.340 C 
ATOM     15  O   UNL     1       0.002  -0.004   0.002  0.00  0.00    -0.245 OA
BRANCH  12  16
ATOM     16  C   UNL     1       2.451   3.778  -0.849  0.00  0.00    -0.007 A 
ATOM     17  C   UNL     1       3.188   3.810   0.320  0.00  0.00    +0.007 A 
ATOM     18  C   UNL     1       4.424   4.429   0.342  0.00  0.00    +0.000 A 
ATOM     19  C   UNL     1       4.918   5.026  -0.803  0.00  0.00    +0.000 A 
ATOM     20  C   UNL     1       4.179   4.998  -1.971  0.00  0.00    +0.000 A 
ATOM     21  C   UNL     1       2.946   4.374  -1.994  0.00  0.00    +0.007 A 
ENDBRANCH  12  16
ENDBRANCH   2   5
BRANCH   1  25
ATOM     22  C   UNL     1      -9.322   5.145  -0.306  0.00  0.00    +0.139 C 
ATOM     23  C   UNL     1      -8.194   4.236  -0.752  0.00  0.00    +0.268 C 
ATOM     24  O   UNL     1      -8.112   3.632  -1.800  0.00  0.00    -0.271 OA
ATOM     25  N   UNL     1      -7.302   4.238   0.258  0.00  0.00    -0.137 N 
ATOM     26  C   UNL     1      -7.708   5.011   1.272  0.00  0.00    +0.327 C 
ATOM     27  O   UNL     1      -7.073   5.169   2.297  0.00  0.00    -0.251 OA
ATOM     28  N   UNL     1      -8.894   5.597   1.029  0.00  0.00    -0.280 N 
ATOM     29  H   UNL     1      -9.375   6.198   1.620  0.00  0.00    +0.152 HD
BRANCH  22  30
ATOM     30  C   UNL     1      -9.461   6.317  -1.243  0.00  0.00    -0.015 A 
ATOM     31  C   UNL     1     -10.301   6.231  -2.337  0.00  0.00    +0.006 A 
ATOM     32  C   UNL     1     -10.432   7.308  -3.195  0.00  0.00    +0.000 A 
ATOM     33  C   UNL     1      -9.714   8.466  -2.963  0.00  0.00    +0.000 A 
ATOM     34  C   UNL     1      -8.870   8.550  -1.872  0.00  0.00    +0.000 A 
ATOM     35  C   UNL     1      -8.743   7.476  -1.012  0.00  0.00    +0.006 A 
ENDBRANCH  22  30
BRANCH  22  37
ATOM     36  C   UNL     1     -10.523   3.298   0.873  0.00  0.00    +0.007 C 
ATOM     37  C   UNL     1     -10.637   4.368  -0.215  0.00  0.00    +0.037 C 
ENDBRANCH  22  37
ENDBRANCH   1  25
TORSDOF 5
