REMARK  Name = ZINC63794303
REMARK  2 active torsions:
REMARK  status: ('A' for Active; 'I' for Inactive)
REMARK    1  A    between atoms: C_1  and  C_2
REMARK    2  A    between atoms: C_22  and  C_26
REMARK                            x       y       z     vdW  Elec       q    Type
REMARK                         _______ _______ _______ _____ _____    ______ ____
ROOT
ATOM      1  C   UNL     1      -0.018   1.503   0.010  0.00  0.00    +0.045 C 
ATOM      2  C   UNL     1       0.002  -0.004   0.002  0.00  0.00    -0.029 A 
ATOM      3  C   UNL     1       0.006  -0.720  -1.186  0.00  0.00    +0.005 A 
ATOM      4  C   UNL     1       0.027  -2.099  -1.207  0.00  0.00    +0.001 A 
ATOM      5  C   UNL     1       0.043  -2.842  -0.031  0.00  0.00    +0.008 A 
ATOM      6  C   UNL     1       0.037  -2.138   1.154  0.00  0.00    +0.005 A 
ATOM      7  C   UNL     1       0.023  -0.737   1.189  0.00  0.00    +0.042 A 
ATOM      8  N   UNL     1       0.030  -0.289   2.498  0.00  0.00    -0.283 N 
ATOM      9  C   UNL     1       0.051  -1.308   3.382  0.00  0.00    +0.244 C 
ATOM     10  O   UNL     1       0.061  -1.214   4.591  0.00  0.00    -0.273 OA
ATOM     11  C   UNL     1       0.047  -2.591   2.579  0.00  0.00    +0.148 C 
ATOM     12  C   UNL     1       1.300  -3.399   2.895  0.00  0.00    +0.140 C 
ATOM     13  C   UNL     1       1.142  -3.893   4.330  0.00  0.00    -0.027 C 
ATOM     14  C   UNL     1       2.236  -3.519   4.978  0.00  0.00    -0.000 A 
ATOM     15  C   UNL     1       2.703  -3.782   6.349  0.00  0.00    +0.010 A 
ATOM     16  C   UNL     1       3.891  -3.220   6.695  0.00  0.00    +0.001 A 
ATOM     17  C   UNL     1       4.652  -2.432   5.827  0.00  0.00    +0.002 A 
ATOM     18  C   UNL     1       4.304  -2.146   4.547  0.00  0.00    +0.026 A 
ATOM     19  C   UNL     1       3.077  -2.687   4.064  0.00  0.00    +0.043 A 
ATOM     20  N   UNL     1       2.521  -2.594   2.874  0.00  0.00    -0.375 N 
ATOM     21  C   UNL     1      -0.124  -4.569   4.797  0.00  0.00    +0.068 C 
ATOM     22  C   UNL     1      -1.290  -3.687   4.316  0.00  0.00    +0.095 C 
ATOM     23  N   UNL     1      -1.143  -3.391   2.887  0.00  0.00    -0.297 NA
ATOM     24  H   UNL     1       0.021   0.648   2.751  0.00  0.00    +0.155 HD
ATOM     25  H   UNL     1      -1.977  -2.955   2.521  0.00  0.00    +0.123 HD
ATOM     26  H   UNL     1       2.851  -2.084   2.119  0.00  0.00    +0.160 HD
ENDROOT
BRANCH  21  27
ATOM     27  C   UNL     1      -0.229  -5.945   4.192  0.00  0.00    -0.002 A 
ATOM     28  C   UNL     1      -0.301  -7.148   4.813  0.00  0.00    +0.012 A 
ATOM     29  C   UNL     1      -0.394  -8.294   4.046  0.00  0.00    +0.008 A 
ATOM     30  C   UNL     1      -0.410  -8.182   2.696  0.00  0.00    +0.045 A 
ATOM     31  S   UNL     1      -0.299  -6.414   2.471  0.00  0.00    -0.101 S 
ENDBRANCH  21  27
TORSDOF 1
