REMARK  Name = ZINC54136106
REMARK  8 active torsions:
REMARK  status: ('A' for Active; 'I' for Inactive)
REMARK    1  A    between atoms: C_1  and  C_2
REMARK    2  A    between atoms: C_2  and  C_3
REMARK    3  A    between atoms: C_2  and  N_4
REMARK    4  A    between atoms: C_8  and  S_9
REMARK    5  A    between atoms: S_9  and  C_10
REMARK    6  A    between atoms: C_10  and  C_11
REMARK    7  A    between atoms: N_13  and  C_14
REMARK    8  A    between atoms: C_17  and  C_20
REMARK                            x       y       z     vdW  Elec       q    Type
REMARK                         _______ _______ _______ _____ _____    ______ ____
ROOT
ATOM      1  C   UNL     1      -4.277  -4.819   5.379  0.00  0.00    +0.033 A 
ATOM      2  C   UNL     1      -5.317  -4.646   4.473  0.00  0.00    +0.024 A 
ATOM      3  C   UNL     1      -6.565  -5.164   4.748  0.00  0.00    +0.012 A 
ATOM      4  C   UNL     1      -6.784  -5.861   5.936  0.00  0.00    -0.000 A 
ATOM      5  C   UNL     1      -5.739  -6.033   6.842  0.00  0.00    +0.012 A 
ATOM      6  C   UNL     1      -4.491  -5.519   6.560  0.00  0.00    +0.024 A 
ENDROOT
BRANCH   4   7
ATOM      7  C   UNL     1      -8.126  -6.418   6.234  0.00  0.00    +0.064 A 
ATOM      8  C   UNL     1      -9.226  -6.328   5.440  0.00  0.00    +0.113 A 
ATOM      9  N   UNL     1     -10.232  -6.973   6.094  0.00  0.00    -0.335 N 
ATOM     10  C   UNL     1      -9.728  -7.437   7.263  0.00  0.00    +0.087 A 
ATOM     11  N   UNL     1      -8.472  -7.110   7.340  0.00  0.00    -0.343 N 
ATOM     12  C   UNL     1     -10.534  -8.210   8.281  0.00  0.00    +0.072 C 
ATOM     13  C   UNL     1     -12.022  -8.017   7.962  0.00  0.00    +0.009 C 
ATOM     14  C   UNL     1     -12.256  -8.278   6.471  0.00  0.00    +0.022 C 
ATOM     15  C   UNL     1     -11.616  -7.154   5.649  0.00  0.00    +0.123 C 
ATOM     16  H   UNL     1      -7.879  -7.327   8.076  0.00  0.00    +0.167 HD
ENDBRANCH   4   7
BRANCH   1  19
ATOM     17  C   UNL     1      -2.899  -3.120   4.443  0.00  0.00    +0.227 C 
ATOM     18  O   UNL     1      -3.892  -2.562   4.025  0.00  0.00    -0.275 OA
ATOM     19  N   UNL     1      -3.011  -4.293   5.097  0.00  0.00    -0.285 N 
ATOM     20  H   UNL     1      -2.215  -4.773   5.373  0.00  0.00    +0.155 HD
BRANCH  17  21
ATOM     21  C   UNL     1      -1.541  -2.502   4.232  0.00  0.00    +0.173 C 
BRANCH  21  22
ATOM     22  S   UNL     1      -1.722  -0.941   3.327  0.00  0.00    -0.077 S 
BRANCH  22  27
ATOM     23  N   UNL     1       0.322   0.804   2.547  0.00  0.00    -0.306 N 
ATOM     24  C   UNL     1       1.683   0.845   2.670  0.00  0.00    +0.226 A 
ATOM     25  N   UNL     1       2.047  -0.227   3.314  0.00  0.00    -0.137 NA
ATOM     26  N   UNL     1       1.017  -0.939   3.604  0.00  0.00    -0.123 NA
ATOM     27  C   UNL     1      -0.070  -0.350   3.162  0.00  0.00    +0.192 A 
BRANCH  23  29
ATOM     28  C   UNL     1      -0.368   3.150   2.587  0.00  0.00    +0.030 C 
ATOM     29  C   UNL     1      -0.538   1.796   1.896  0.00  0.00    +0.084 C 
ATOM     30  C   UNL     1      -0.146   1.922   0.423  0.00  0.00    +0.030 C 
ENDBRANCH  23  29
ENDBRANCH  22  27
ENDBRANCH  21  22
ENDBRANCH  17  21
ENDBRANCH   1  19
TORSDOF 6
