REMARK  Name = ZINC12196796
REMARK  9 active torsions:
REMARK  status: ('A' for Active; 'I' for Inactive)
REMARK    1  A    between atoms: C_1  and  N_45
REMARK    2  A    between atoms: C_2  and  N_45
REMARK    3  A    between atoms: C_3  and  C_5
REMARK    4  A    between atoms: C_3  and  C_18
REMARK    5  A    between atoms: C_3  and  N_45
REMARK    6  A    between atoms: C_5  and  N_6
REMARK    7  A    between atoms: N_6  and  S_7
REMARK    8  A    between atoms: S_7  and  C_10
REMARK    9  A    between atoms: C_13  and  C_16
REMARK                            x       y       z     vdW  Elec       q    Type
REMARK                         _______ _______ _______ _____ _____    ______ ____
ROOT
ATOM      1  C   UNL     1       1.578   3.771   2.555  0.00  0.00    +0.095 C 
ENDROOT
BRANCH   1   2
ATOM      2  N   UNL     1       0.504   4.357   1.749  0.00  0.00    -0.191 NA
ATOM      3  H   UNL     1       0.054   5.161   2.053  0.00  0.00    +0.148 HD
BRANCH   2   4
ATOM      4  S   UNL     1       0.060   3.648   0.320  0.00  0.00    +0.058 S 
ATOM      5  O   UNL     1       1.259   3.413  -0.406  0.00  0.00    -0.153 OA
ATOM      6  O   UNL     1      -1.008   4.425  -0.204  0.00  0.00    -0.153 OA
BRANCH   4   7
ATOM      7  C   UNL     1      -0.611   2.066   0.710  0.00  0.00    +0.105 A 
ATOM      8  C   UNL     1      -1.965   1.935   0.960  0.00  0.00    +0.029 A 
ATOM      9  C   UNL     1      -2.497   0.700   1.265  0.00  0.00    +0.017 A 
ATOM     10  C   UNL     1      -1.665  -0.420   1.322  0.00  0.00    +0.063 A 
ATOM     11  C   UNL     1      -0.299  -0.281   1.069  0.00  0.00    +0.017 A 
ATOM     12  C   UNL     1       0.220   0.961   0.764  0.00  0.00    +0.029 A 
BRANCH  10  13
ATOM     13  C   UNL     1      -2.228  -1.746   1.649  0.00  0.00    +0.387 C 
ATOM     14  O   UNL     1      -3.416  -1.865   1.869  0.00  0.00    -0.241 OA
ATOM     15  O   UNL     1      -1.422  -2.825   1.703  0.00  0.00    -0.241 OA
ENDBRANCH  10  13
ENDBRANCH   4   7
ENDBRANCH   2   4
ENDBRANCH   1   2
BRANCH   1  16
ATOM     16  C   UNL     1       2.044   4.787   3.600  0.00  0.00    -0.023 C 
BRANCH  16  17
ATOM     17  C   UNL     1       3.229   4.231   4.347  0.00  0.00    -0.056 A 
ATOM     18  C   UNL     1       4.289   3.681   3.650  0.00  0.00    +0.006 A 
ATOM     19  C   UNL     1       5.380   3.174   4.330  0.00  0.00    +0.050 A 
ATOM     20  C   UNL     1       5.410   3.207   5.715  0.00  0.00    +0.166 A 
ATOM     21  C   UNL     1       4.340   3.756   6.418  0.00  0.00    +0.166 A 
ATOM     22  C   UNL     1       3.252   4.267   5.729  0.00  0.00    +0.051 A 
ATOM     23  O   UNL     1       4.606   3.670   7.754  0.00  0.00    -0.453 OA
ATOM     24  C   UNL     1       6.024   3.437   7.850  0.00  0.00    +0.466 C 
ATOM     25  O   UNL     1       6.346   2.777   6.611  0.00  0.00    -0.453 OA
ENDBRANCH  16  17
BRANCH  16  28
ATOM     26  C   UNL     1       2.704   7.096   3.911  0.00  0.00    -0.096 C 
ATOM     27  C   UNL     1       3.584   5.825   2.046  0.00  0.00    -0.096 C 
ATOM     28  N   UNL     1       2.408   6.045   2.915  0.00  0.00    +0.381 N 
ATOM     29  H   UNL     1       1.617   6.349   2.334  0.00  0.00    -0.082 HD
ENDBRANCH  16  28
ENDBRANCH   1  16
TORSDOF 7
