REMARK  Name = ZINC08385738
REMARK  7 active torsions:
REMARK  status: ('A' for Active; 'I' for Inactive)
REMARK    1  A    between atoms: C_1  and  C_2
REMARK    2  A    between atoms: C_2  and  C_23
REMARK    3  A    between atoms: N_3  and  N_4
REMARK    4  A    between atoms: C_7  and  O_22
REMARK    5  A    between atoms: C_8  and  C_11
REMARK    6  A    between atoms: C_11  and  C_12
REMARK    7  A    between atoms: N_14  and  C_15
REMARK                            x       y       z     vdW  Elec       q    Type
REMARK                         _______ _______ _______ _____ _____    ______ ____
ROOT
ATOM      1  N   UNL     1       4.701   0.967  -0.028  0.00  0.00    -0.122 NA
ATOM      2  C   UNL     1       3.513   1.541  -0.018  0.00  0.00    +0.213 C 
ATOM      3  N   UNL     1       2.296   0.951  -0.017  0.00  0.00    -0.189 NA
ATOM      4  C   UNL     1       1.189   1.589  -0.007  0.00  0.00    +0.204 C 
ATOM      5  C   UNL     1       1.294   3.109  -0.001  0.00  0.00    +0.148 C 
ATOM      6  S   UNL     1       3.124   3.287  -0.001  0.00  0.00    -0.071 S 
ENDROOT
BRANCH   1   9
ATOM      7  C   UNL     1       7.137  -0.311  -0.051  0.00  0.00    +0.063 C 
ATOM      8  C   UNL     1       7.026   1.192  -0.038  0.00  0.00    +0.041 C 
ATOM      9  N   UNL     1       5.860   1.755  -0.028  0.00  0.00    -0.156 NA
BRANCH   8  10
ATOM     10  C   UNL     1       8.272   2.039  -0.037  0.00  0.00    +0.035 C 
ATOM     11  C   UNL     1       9.043   1.811   1.265  0.00  0.00    +0.009 C 
ATOM     12  C   UNL     1      10.308   2.671   1.265  0.00  0.00    +0.001 C 
ATOM     13  C   UNL     1       9.921   4.147   1.154  0.00  0.00    +0.000 C 
ATOM     14  C   UNL     1       9.150   4.375  -0.148  0.00  0.00    +0.001 C 
ATOM     15  C   UNL     1       7.885   3.515  -0.149  0.00  0.00    +0.009 C 
ENDBRANCH   8  10
ENDBRANCH   1   9
BRANCH   4  16
ATOM     16  O   UNL     1       0.002   0.957  -0.006  0.00  0.00    -0.495 OA
ATOM     17  H   UNL     1       0.019  -0.010  -0.014  0.00  0.00    +0.293 HD
ENDBRANCH   4  16
BRANCH   5  18
ATOM     18  C   UNL     1       0.672   3.716  -1.260  0.00  0.00    +0.120 C 
BRANCH  18  19
ATOM     19  C   UNL     1       0.688   5.219  -1.154  0.00  0.00    +0.219 C 
ATOM     20  O   UNL     1       1.152   5.752  -0.168  0.00  0.00    -0.275 OA
ATOM     21  N   UNL     1       0.188   5.971  -2.154  0.00  0.00    -0.285 N 
ATOM     22  H   UNL     1      -0.122   5.548  -2.971  0.00  0.00    +0.155 HD
BRANCH  21  23
ATOM     23  C   UNL     1       0.114   7.361  -2.015  0.00  0.00    +0.033 A 
ATOM     24  C   UNL     1      -0.944   8.062  -2.579  0.00  0.00    +0.024 A 
ATOM     25  C   UNL     1      -1.016   9.434  -2.436  0.00  0.00    +0.017 A 
ATOM     26  C   UNL     1      -0.030  10.111  -1.741  0.00  0.00    +0.018 A 
ATOM     27  C   UNL     1       1.028   9.416  -1.182  0.00  0.00    +0.017 A 
ATOM     28  C   UNL     1       1.103   8.044  -1.318  0.00  0.00    +0.024 A 
ATOM     29 BR   UNL     1      -0.129  11.990  -1.554  0.00  0.00    -0.050 Br
ENDBRANCH  21  23
ENDBRANCH  18  19
ENDBRANCH   5  18
TORSDOF 6
