REMARK  Name = ZINC44552819
REMARK  7 active torsions:
REMARK  status: ('A' for Active; 'I' for Inactive)
REMARK    1  A    between atoms: C_1  and  C_2
REMARK    2  A    between atoms: N_8  and  C_9
REMARK    3  A    between atoms: C_9  and  C_10
REMARK    4  A    between atoms: C_15  and  C_16
REMARK    5  A    between atoms: C_16  and  N_17
REMARK    6  A    between atoms: C_18  and  C_20
REMARK    7  A    between atoms: C_21  and  N_25
REMARK                            x       y       z     vdW  Elec       q    Type
REMARK                         _______ _______ _______ _____ _____    ______ ____
ROOT
ATOM      1  C   UNL     1       2.527  -0.329   2.118  0.00  0.00    -0.059 A 
ATOM      2  C   UNL     1       2.427   0.594   3.143  0.00  0.00    +0.002 A 
ATOM      3  C   UNL     1       2.982   0.317   4.378  0.00  0.00    +0.000 A 
ATOM      4  C   UNL     1       3.637  -0.882   4.589  0.00  0.00    +0.000 A 
ATOM      5  C   UNL     1       3.736  -1.804   3.565  0.00  0.00    +0.005 A 
ATOM      6  C   UNL     1       3.177  -1.530   2.330  0.00  0.00    -0.029 A 
ENDROOT
BRANCH   1   7
ATOM      7  C   UNL     1       1.922  -0.027   0.771  0.00  0.00    -0.042 C 
BRANCH   7  14
ATOM      8  C   UNL     1       1.769  -0.649  -1.963  0.00  0.00    -0.013 C 
ATOM      9  C   UNL     1       2.398   0.658  -1.476  0.00  0.00    -0.071 C 
ATOM     10  C   UNL     1       3.502   1.084  -2.446  0.00  0.00    -0.016 C 
ATOM     11  C   UNL     1       4.129   2.392  -1.955  0.00  0.00    -0.003 C 
ATOM     12  C   UNL     1       4.654   2.192  -0.531  0.00  0.00    -0.019 C 
ATOM     13  C   UNL     1       3.507   1.725   0.369  0.00  0.00    -0.078 C 
ATOM     14  N   UNL     1       2.969   0.457  -0.139  0.00  0.00    +0.384 N 
ATOM     15  H   UNL     1       3.710  -0.226  -0.189  0.00  0.00    -0.081 HD
ENDBRANCH   7  14
ENDBRANCH   1   7
BRANCH   6  16
ATOM     16  C   UNL     1       3.281  -2.538   1.215  0.00  0.00    +0.140 C 
BRANCH  16  17
ATOM     17  N   UNL     1       4.392  -2.176   0.331  0.00  0.00    -0.307 N 
ATOM     18  C   UNL     1       4.610  -2.878  -0.799  0.00  0.00    +0.253 C 
ATOM     19  O   UNL     1       3.884  -3.812  -1.085  0.00  0.00    -0.270 OA
ATOM     20  H   UNL     1       4.970  -1.432   0.559  0.00  0.00    +0.149 HD
BRANCH  18  21
ATOM     21  C   UNL     1       5.719  -2.516  -1.681  0.00  0.00    +0.099 A 
ATOM     22  C   UNL     1       6.110  -3.100  -2.884  0.00  0.00    +0.088 A 
ATOM     23  C   UNL     1       7.210  -2.528  -3.491  0.00  0.00    +0.036 A 
ATOM     24  C   UNL     1       7.814  -1.472  -2.897  0.00  0.00    +0.048 A 
ATOM     25  S   UNL     1       6.918  -1.209  -1.501  0.00  0.00    -0.090 S 
BRANCH  22  26
ATOM     26  N   UNL     1       5.434  -4.193  -3.438  0.00  0.00    -0.199 N 
ATOM     27  C   UNL     1       5.725  -4.840  -4.588  0.00  0.00    +0.250 A 
ATOM     28  N   UNL     1       4.845  -5.796  -4.729  0.00  0.00    -0.116 NA
ATOM     29  N   UNL     1       4.017  -5.798  -3.747  0.00  0.00    -0.023 NA
ATOM     30  N   UNL     1       4.311  -4.858  -2.915  0.00  0.00    -0.039 NA
ENDBRANCH  22  26
ENDBRANCH  18  21
ENDBRANCH  16  17
ENDBRANCH   6  16
TORSDOF 6
