REMARK  Name = ZINC63492886
REMARK  5 active torsions:
REMARK  status: ('A' for Active; 'I' for Inactive)
REMARK    1  A    between atoms: C_6  and  C_11
REMARK    2  A    between atoms: C_11  and  C_12
REMARK    3  A    between atoms: C_12  and  N_13
REMARK    4  A    between atoms: C_14  and  C_16
REMARK    5  A    between atoms: C_16  and  N_17
REMARK                            x       y       z     vdW  Elec       q    Type
REMARK                         _______ _______ _______ _____ _____    ______ ____
ROOT
ATOM      1  N   UNL     1       5.000  -3.595  -1.503  0.00  0.00    -0.314 N 
ATOM      2  C   UNL     1       5.312  -4.189  -2.672  0.00  0.00    +0.231 C 
ATOM      3  O   UNL     1       5.184  -3.581  -3.714  0.00  0.00    -0.274 OA
ATOM      4  H   UNL     1       5.102  -4.081  -0.670  0.00  0.00    +0.149 HD
ENDROOT
BRANCH   1   5
ATOM      5  C   UNL     1       4.508  -2.215  -1.491  0.00  0.00    +0.108 C 
BRANCH   5   6
ATOM      6  C   UNL     1       4.231  -1.785  -0.049  0.00  0.00    +0.052 C 
BRANCH   6  12
ATOM      7  C   UNL     1      -0.017   1.399   0.010  0.00  0.00    +0.022 A 
ATOM      8  C   UNL     1       1.109   2.143   0.003  0.00  0.00    +0.027 A 
ATOM      9  C   UNL     1       2.385   1.516  -0.013  0.00  0.00    +0.043 A 
ATOM     10  N   UNL     1       3.600   2.009  -0.022  0.00  0.00    -0.380 N 
ATOM     11  C   UNL     1       4.557   0.897  -0.038  0.00  0.00    +0.144 C 
ATOM     12  C   UNL     1       3.724  -0.366  -0.036  0.00  0.00    -0.040 C 
ATOM     13  C   UNL     1       2.433   0.036  -0.021  0.00  0.00    +0.000 A 
ATOM     14  C   UNL     1       1.163  -0.699  -0.013  0.00  0.00    +0.030 A 
ATOM     15  C   UNL     1       0.002  -0.004   0.002  0.00  0.00    +0.042 A 
ATOM     16 CL   UNL     1      -1.502  -0.870   0.012  0.00  0.00    -0.084 Cl
ATOM     17  H   UNL     1       3.828   2.952  -0.020  0.00  0.00    +0.160 HD
ENDBRANCH   6  12
ENDBRANCH   5   6
ENDBRANCH   1   5
BRANCH   2  18
ATOM     18  C   UNL     1       5.819  -5.608  -2.685  0.00  0.00    +0.213 C 
BRANCH  18  19
ATOM     19  N   UNL     1       6.083  -6.020  -4.066  0.00  0.00    -0.215 N 
ATOM     20  C   UNL     1       5.101  -6.595  -4.789  0.00  0.00    +0.236 C 
ATOM     21  O   UNL     1       4.052  -6.896  -4.262  0.00  0.00    -0.274 OA
ATOM     22  C   UNL     1       5.313  -6.859  -6.250  0.00  0.00    +0.144 C 
ATOM     23  C   UNL     1       4.629  -8.110  -6.705  0.00  0.00    -0.008 C 
ATOM     24  C   UNL     1       5.170  -8.886  -7.645  0.00  0.00    -0.003 C 
ATOM     25  C   UNL     1       6.421  -8.581  -8.228  0.00  0.00    +0.001 C 
ATOM     26  C   UNL     1       7.220  -7.620  -7.694  0.00  0.00    +0.022 C 
ATOM     27  C   UNL     1       6.779  -6.920  -6.568  0.00  0.00    +0.051 C 
ATOM     28  N   UNL     1       7.658  -6.353  -5.770  0.00  0.00    -0.166 NA
ATOM     29  C   UNL     1       7.300  -5.816  -4.598  0.00  0.00    +0.333 C 
ATOM     30  O   UNL     1       8.100  -5.126  -3.994  0.00  0.00    -0.250 OA
ENDBRANCH  18  19
ENDBRANCH   2  18
TORSDOF 5
