REMARK  Name = ZINC15675546
REMARK  5 active torsions:
REMARK  status: ('A' for Active; 'I' for Inactive)
REMARK    1  A    between atoms: C_1  and  C_2
REMARK    2  A    between atoms: C_5  and  C_8
REMARK    3  A    between atoms: C_10  and  C_13
REMARK    4  A    between atoms: N_23  and  C_24
REMARK    5  A    between atoms: C_24  and  C_25
REMARK                            x       y       z     vdW  Elec       q    Type
REMARK                         _______ _______ _______ _____ _____    ______ ____
ROOT
ATOM      1  C   UNL     1       0.102  -7.482   1.642  0.00  0.00    +0.152 C 
ATOM      2  C   UNL     1       1.508  -8.097   1.664  0.00  0.00    +0.083 C 
ATOM      3  C   UNL     1       1.423  -9.420   2.379  0.00  0.00    +0.040 A 
ATOM      4  C   UNL     1       0.258 -10.065   2.618  0.00  0.00    +0.051 A 
ATOM      5  N   UNL     1       0.540 -11.195   3.268  0.00  0.00    -0.349 N 
ATOM      6  C   UNL     1       1.834 -11.279   3.440  0.00  0.00    +0.171 A 
ATOM      7  N   UNL     1       2.418 -10.186   2.896  0.00  0.00    -0.349 N 
ATOM      8  H   UNL     1       3.368  -9.987   2.878  0.00  0.00    +0.166 HD
ATOM      9  C   UNL     1      -1.086  -9.533   2.189  0.00  0.00    +0.140 C 
ATOM     10  N   UNL     1      -0.867  -8.485   1.177  0.00  0.00    -0.281 NA
ATOM     11  H   UNL     1      -0.110 -11.851   3.565  0.00  0.00    +0.166 HD
ENDROOT
BRANCH   1  14
ATOM     12  C   UNL     1       0.059  -4.256  -0.021  0.00  0.00    +0.202 A 
ATOM     13  N   UNL     1       0.070  -5.047   1.067  0.00  0.00    -0.190 NA
ATOM     14  C   UNL     1       0.086  -6.299   0.708  0.00  0.00    +0.245 A 
ATOM     15  O   UNL     1       0.086  -6.357  -0.630  0.00  0.00    -0.336 OA
ATOM     16  N   UNL     1       0.064  -5.015  -1.090  0.00  0.00    -0.056 NA
BRANCH  12  21
ATOM     17  C   UNL     1      -0.018   1.503   0.010  0.00  0.00    +0.044 C 
ATOM     18  C   UNL     1       0.002  -0.004   0.002  0.00  0.00    -0.050 A 
ATOM     19  C   UNL     1       0.006  -0.686  -1.201  0.00  0.00    +0.004 A 
ATOM     20  C   UNL     1       0.024  -2.067  -1.214  0.00  0.00    +0.012 A 
ATOM     21  C   UNL     1       0.040  -2.772  -0.013  0.00  0.00    +0.022 A 
ATOM     22  C   UNL     1       0.036  -2.080   1.196  0.00  0.00    +0.012 A 
ATOM     23  C   UNL     1       0.023  -0.700   1.198  0.00  0.00    +0.004 A 
ENDBRANCH  12  21
ENDBRANCH   1  14
BRANCH  10  24
ATOM     24  C   UNL     1      -2.135  -7.853   0.790  0.00  0.00    +0.120 C 
BRANCH  24  25
ATOM     25  C   UNL     1      -3.009  -8.865   0.095  0.00  0.00    -0.033 A 
ATOM     26  C   UNL     1      -2.929  -9.021  -1.276  0.00  0.00    +0.005 A 
ATOM     27  C   UNL     1      -3.730  -9.949  -1.914  0.00  0.00    +0.000 A 
ATOM     28  C   UNL     1      -4.612 -10.722  -1.181  0.00  0.00    +0.000 A 
ATOM     29  C   UNL     1      -4.691 -10.566   0.190  0.00  0.00    +0.000 A 
ATOM     30  C   UNL     1      -3.886  -9.641   0.829  0.00  0.00    +0.005 A 
ENDBRANCH  24  25
ENDBRANCH  10  24
TORSDOF 4
