REMARK  Name = ZINC36002168
REMARK  8 active torsions:
REMARK  status: ('A' for Active; 'I' for Inactive)
REMARK    1  A    between atoms: C_1  and  C_2
REMARK    2  A    between atoms: C_5  and  C_8
REMARK    3  A    between atoms: C_8  and  N_9
REMARK    4  A    between atoms: C_10  and  C_32
REMARK    5  A    between atoms: C_11  and  N_15
REMARK    6  A    between atoms: C_12  and  C_14
REMARK    7  A    between atoms: C_16  and  C_18
REMARK    8  A    between atoms: C_25  and  C_27
REMARK                            x       y       z     vdW  Elec       q    Type
REMARK                         _______ _______ _______ _____ _____    ______ ____
ROOT
ATOM      1  N   UNL     1       1.819  -4.275   0.251  0.00  0.00    -0.262 N 
ATOM      2  C   UNL     1       2.702  -4.224  -0.780  0.00  0.00    +0.058 A 
ATOM      3  C   UNL     1       3.363  -5.409  -0.813  0.00  0.00    +0.077 A 
ATOM      4  C   UNL     1       2.868  -6.205   0.230  0.00  0.00    +0.081 A 
ATOM      5  N   UNL     1       1.950  -5.525   0.868  0.00  0.00    -0.174 NA
ATOM      6  C   UNL     1       3.321  -7.604   0.563  0.00  0.00    +0.069 C 
ATOM      7  C   UNL     1       2.909  -3.062  -1.718  0.00  0.00    +0.067 C 
ENDROOT
BRANCH   3   8
ATOM      8  N   UNL     1       4.367  -5.773  -1.730  0.00  0.00    -0.282 N 
ATOM      9  C   UNL     1       5.658  -5.787  -1.345  0.00  0.00    +0.222 C 
ATOM     10  O   UNL     1       5.948  -5.577  -0.186  0.00  0.00    -0.275 OA
ATOM     11  H   UNL     1       4.129  -6.014  -2.639  0.00  0.00    +0.155 HD
BRANCH   9  12
ATOM     12  C   UNL     1       6.742  -6.064  -2.354  0.00  0.00    +0.096 C 
ATOM     13  C   UNL     1       8.144  -6.080  -1.665  0.00  0.00    +0.025 C 
ATOM     14  C   UNL     1       8.165  -7.546  -1.097  0.00  0.00    +0.016 C 
ATOM     15  C   UNL     1       7.934  -8.194  -2.511  0.00  0.00    +0.027 C 
ATOM     16  C   UNL     1       6.598  -7.494  -2.930  0.00  0.00    +0.121 C 
ATOM     17  C   UNL     1       9.009  -7.455  -3.317  0.00  0.00    -0.027 C 
ATOM     18  C   UNL     1       9.132  -6.213  -2.831  0.00  0.00    -0.027 C 
BRANCH  16  19
ATOM     19  C   UNL     1       6.468  -7.450  -4.431  0.00  0.00    +0.360 C 
ATOM     20  O   UNL     1       6.878  -8.379  -5.106  0.00  0.00    -0.246 OA
ATOM     21  O   UNL     1       5.952  -6.486  -4.970  0.00  0.00    -0.246 OA
ENDBRANCH  16  19
ENDBRANCH   9  12
ENDBRANCH   3   8
BRANCH   1  22
ATOM     22  C   UNL     1       0.897  -3.208   0.650  0.00  0.00    +0.179 C 
BRANCH  22  27
ATOM     23  C   UNL     1       3.485   0.234   4.504  0.00  0.00    +0.044 C 
ATOM     24  C   UNL     1       2.810  -0.664   3.499  0.00  0.00    -0.050 A 
ATOM     25  C   UNL     1       2.912  -0.388   2.148  0.00  0.00    +0.004 A 
ATOM     26  C   UNL     1       2.293  -1.212   1.226  0.00  0.00    +0.006 A 
ATOM     27  C   UNL     1       1.573  -2.311   1.655  0.00  0.00    -0.026 A 
ATOM     28  C   UNL     1       1.472  -2.587   3.006  0.00  0.00    +0.006 A 
ATOM     29  C   UNL     1       2.095  -1.766   3.928  0.00  0.00    +0.004 A 
ENDBRANCH  22  27
ENDBRANCH   1  22
TORSDOF 5
