REMARK  Name = ZINC38792894
REMARK  7 active torsions:
REMARK  status: ('A' for Active; 'I' for Inactive)
REMARK    1  A    between atoms: C_1  and  C_2
REMARK    2  A    between atoms: C_2  and  N_3
REMARK    3  A    between atoms: C_9  and  C_11
REMARK    4  A    between atoms: C_11  and  C_13
REMARK    5  A    between atoms: C_11  and  S_14
REMARK    6  A    between atoms: S_14  and  C_15
REMARK    7  A    between atoms: C_19  and  C_21
REMARK                            x       y       z     vdW  Elec       q    Type
REMARK                         _______ _______ _______ _____ _____    ______ ____
ROOT
ATOM      1  C   UNL     1       4.129  -6.854  -3.398  0.00  0.00    +0.340 C 
ATOM      2  N   UNL     1       3.026  -7.174  -2.476  0.00  0.00    -0.219 N 
ATOM      3  N   UNL     1       1.931  -7.489  -3.294  0.00  0.00    -0.145 NA
ATOM      4  C   UNL     1       2.267  -7.390  -4.553  0.00  0.00    +0.238 C 
ATOM      5  O   UNL     1       3.564  -7.017  -4.707  0.00  0.00    -0.443 OA
ATOM      6  H   UNL     1       3.051  -7.168  -1.506  0.00  0.00    +0.173 HD
ENDROOT
BRANCH   4   7
ATOM      7  C   UNL     1       1.393  -7.641  -5.619  0.00  0.00    +0.043 C 
ATOM      8  C   UNL     1       0.052  -8.021  -5.540  0.00  0.00    +0.008 A 
ATOM      9  C   UNL     1      -0.806  -8.263  -4.447  0.00  0.00    +0.010 A 
ATOM     10  C   UNL     1      -2.095  -8.630  -4.671  0.00  0.00    +0.001 A 
ATOM     11  C   UNL     1      -2.599  -8.775  -5.965  0.00  0.00    +0.002 A 
ATOM     12  C   UNL     1      -1.831  -8.559  -7.060  0.00  0.00    +0.026 A 
ATOM     13  C   UNL     1      -0.474  -8.173  -6.906  0.00  0.00    +0.043 A 
ATOM     14  N   UNL     1       0.464  -7.908  -7.794  0.00  0.00    -0.380 N 
ATOM     15  C   UNL     1       1.703  -7.549  -7.097  0.00  0.00    +0.154 C 
ATOM     16  H   UNL     1       0.351  -7.942  -8.757  0.00  0.00    +0.160 HD
ENDBRANCH   4   7
BRANCH   1  17
ATOM     17  S   UNL     1       4.682  -5.144  -3.155  0.00  0.00    -0.084 S 
BRANCH  17  18
ATOM     18  C   UNL     1       3.192  -4.154  -3.455  0.00  0.00    +0.134 C 
ATOM     19  C   UNL     1       2.764  -4.305  -4.916  0.00  0.00    +0.029 C 
BRANCH  18  26
ATOM     20  N   UNL     1       0.690  -0.478  -1.207  0.00  0.00    -0.300 NA
ATOM     21  C   UNL     1       2.110  -0.102  -1.186  0.00  0.00    +0.103 C 
ATOM     22  C   UNL     1       2.747  -0.452  -2.535  0.00  0.00    +0.123 C 
ATOM     23  N   UNL     1       2.483  -1.870  -2.823  0.00  0.00    -0.298 N 
ATOM     24  C   UNL     1       1.097  -2.353  -2.728  0.00  0.00    +0.123 C 
ATOM     25  C   UNL     1       0.525  -1.928  -1.372  0.00  0.00    +0.103 C 
ATOM     26  C   UNL     1       3.485  -2.704  -3.164  0.00  0.00    +0.228 C 
ATOM     27  O   UNL     1       4.622  -2.289  -3.237  0.00  0.00    -0.274 OA
BRANCH  20  29
ATOM     28  C   UNL     1      -0.019   1.526   0.010  0.00  0.00    +0.020 C 
ATOM     29  C   UNL     1       0.002  -0.004   0.002  0.00  0.00    +0.081 C 
ENDBRANCH  20  29
ENDBRANCH  18  26
ENDBRANCH  17  18
ENDBRANCH   1  17
TORSDOF 5
