REMARK  Name = ZINC22755059
REMARK  10 active torsions:
REMARK  status: ('A' for Active; 'I' for Inactive)
REMARK    1  A    between atoms: C_1  and  C_2
REMARK    2  A    between atoms: C_4  and  C_34
REMARK    3  A    between atoms: C_5  and  S_9
REMARK    4  A    between atoms: C_6  and  C_8
REMARK    5  A    between atoms: S_9  and  N_12
REMARK    6  A    between atoms: C_15  and  C_18
REMARK    7  A    between atoms: N_20  and  C_21
REMARK    8  A    between atoms: C_21  and  C_22
REMARK    9  A    between atoms: C_22  and  C_24
REMARK   10  A    between atoms: C_22  and  N_29
REMARK                            x       y       z     vdW  Elec       q    Type
REMARK                         _______ _______ _______ _____ _____    ______ ____
ROOT
ATOM      1  N   UNL     1       7.098   9.776  -2.321  0.00  0.00    -0.177 NA
ATOM      2  C   UNL     1       8.094   9.045  -3.116  0.00  0.00    +0.110 C 
ATOM      3  C   UNL     1       7.390   7.909  -3.864  0.00  0.00    +0.030 C 
ATOM      4  C   UNL     1       6.626   7.040  -2.862  0.00  0.00    +0.077 C 
ATOM      5  C   UNL     1       5.563   7.886  -2.158  0.00  0.00    +0.030 C 
ATOM      6  C   UNL     1       6.247   9.023  -1.390  0.00  0.00    +0.110 C 
ENDROOT
BRANCH   4   7
ATOM      7  C   UNL     1       5.960   5.902  -3.590  0.00  0.00    +0.216 C 
ATOM      8  O   UNL     1       6.084   5.795  -4.792  0.00  0.00    -0.276 OA
ATOM      9  N   UNL     1       5.226   5.002  -2.906  0.00  0.00    -0.316 N 
ATOM     10  H   UNL     1       5.114   5.098  -1.816  0.00  0.00    +0.149 HD
BRANCH   9  11
ATOM     11  C   UNL     1       4.578   3.894  -3.614  0.00  0.00    +0.094 C 
BRANCH  11  12
ATOM     12  C   UNL     1       3.680   3.125  -2.644  0.00  0.00    -0.013 C 
BRANCH  12  13
ATOM     13  N   UNL     1       2.578   3.992  -2.204  0.00  0.00    +0.386 N 
ATOM     14  C   UNL     1       1.589   3.230  -1.401  0.00  0.00    -0.078 C 
ATOM     15  C   UNL     1       0.843   4.337  -0.614  0.00  0.00    -0.020 C 
ATOM     16  C   UNL     1       1.969   5.342  -0.280  0.00  0.00    -0.020 C 
ATOM     17  C   UNL     1       3.072   5.069  -1.319  0.00  0.00    -0.078 C 
ATOM     18  H   UNL     1       2.132   4.399  -3.124  0.00  0.00    -0.081 HD
ENDBRANCH  12  13
BRANCH  12  19
ATOM     19  C   UNL     1       3.117   1.911  -3.336  0.00  0.00    -0.022 A 
ATOM     20  C   UNL     1       3.446   0.606  -3.172  0.00  0.00    +0.009 A 
ATOM     21  C   UNL     1       2.790  -0.350  -3.925  0.00  0.00    +0.008 A 
ATOM     22  C   UNL     1       1.837   0.045  -4.804  0.00  0.00    +0.045 A 
ATOM     23  S   UNL     1       1.845   1.817  -4.585  0.00  0.00    -0.103 S 
ENDBRANCH  12  19
ENDBRANCH  11  12
ENDBRANCH   9  11
ENDBRANCH   4   7
BRANCH   1  24
ATOM     24  S   UNL     1       6.940  11.418  -2.469  0.00  0.00    +0.061 S 
ATOM     25  O   UNL     1       6.513  11.901  -1.202  0.00  0.00    -0.153 OA
ATOM     26  O   UNL     1       8.123  11.884  -3.103  0.00  0.00    -0.153 OA
BRANCH  24  31
ATOM     27  C   UNL     1       2.404  12.430  -6.317  0.00  0.00    +0.044 C 
ATOM     28  C   UNL     1       3.537  12.177  -5.356  0.00  0.00    -0.050 A 
ATOM     29  C   UNL     1       4.771  11.774  -5.832  0.00  0.00    +0.008 A 
ATOM     30  C   UNL     1       5.810  11.543  -4.950  0.00  0.00    -0.024 A 
ATOM     31  C   UNL     1       5.615  11.714  -3.593  0.00  0.00    +0.111 A 
ATOM     32  C   UNL     1       4.380  12.111  -3.116  0.00  0.00    -0.024 A 
ATOM     33  C   UNL     1       3.343  12.348  -3.998  0.00  0.00    +0.008 A 
ATOM     34  C   UNL     1       4.166  12.291  -1.635  0.00  0.00    +0.046 C 
ATOM     35  C   UNL     1       7.155  11.103  -5.470  0.00  0.00    +0.046 C 
ENDBRANCH  24  31
ENDBRANCH   1  24
TORSDOF 7
