REMARK  Name = ZINC22297340
REMARK  6 active torsions:
REMARK  status: ('A' for Active; 'I' for Inactive)
REMARK    1  A    between atoms: C_1  and  C_2
REMARK    2  A    between atoms: C_2  and  C_4
REMARK    3  A    between atoms: C_2  and  S_16
REMARK    4  A    between atoms: S_16  and  C_17
REMARK    5  A    between atoms: C_20  and  C_23
REMARK    6  A    between atoms: N_21  and  N_22
REMARK                            x       y       z     vdW  Elec       q    Type
REMARK                         _______ _______ _______ _____ _____    ______ ____
ROOT
ATOM      1  S   UNL     1      -3.748   2.436   0.809  0.00  0.00    -0.072 S 
ENDROOT
BRANCH   1   2
ATOM      2  C   UNL     1      -5.130   1.345   0.737  0.00  0.00    +0.209 A 
ATOM      3  N   UNL     1      -5.135   0.124   0.252  0.00  0.00    -0.121 NA
ATOM      4  N   UNL     1      -6.309  -0.388   0.356  0.00  0.00    -0.127 NA
ATOM      5  C   UNL     1      -7.126   0.474   0.915  0.00  0.00    +0.183 A 
ATOM      6  N   UNL     1      -6.395   1.609   1.181  0.00  0.00    -0.224 N 
BRANCH   5   7
ATOM      7  C   UNL     1      -8.559   0.264   1.209  0.00  0.00    +0.035 A 
ATOM      8  C   UNL     1      -9.497   1.237   0.859  0.00  0.00    +0.013 A 
ATOM      9  C   UNL     1     -10.833   1.034   1.136  0.00  0.00    +0.001 A 
ATOM     10  C   UNL     1     -11.245  -0.131   1.758  0.00  0.00    +0.001 A 
ATOM     11  C   UNL     1     -10.322  -1.100   2.108  0.00  0.00    +0.016 A 
ATOM     12  C   UNL     1      -8.982  -0.912   1.832  0.00  0.00    +0.029 A 
ATOM     13 BR   UNL     1      -7.722  -2.241   2.303  0.00  0.00    -0.050 Br
ENDBRANCH   5   7
BRANCH   6  14
ATOM     14  N   UNL     1      -6.841   2.761   1.765  0.00  0.00    -0.295 N 
ATOM     15  H   UNL     1      -7.891   2.846   2.079  0.00  0.00    +0.163 HD
ATOM     16  H   UNL     1      -6.150   3.602   1.920  0.00  0.00    +0.163 HD
ENDBRANCH   6  14
ENDBRANCH   1   2
BRANCH   1  18
ATOM     17  C   UNL     1      -2.842   1.116  -1.404  0.00  0.00    +0.029 C 
ATOM     18  C   UNL     1      -2.480   1.387   0.057  0.00  0.00    +0.137 C 
BRANCH  18  19
ATOM     19  C   UNL     1      -1.146   2.085   0.123  0.00  0.00    +0.229 C 
ATOM     20  O   UNL     1      -1.098   3.287   0.281  0.00  0.00    -0.274 OA
ATOM     21  N   UNL     1      -0.007   1.375   0.007  0.00  0.00    -0.296 N 
ATOM     22  C   UNL     1       1.312   2.028   0.061  0.00  0.00    +0.113 C 
ATOM     23  C   UNL     1       2.044   1.506   1.296  0.00  0.00    +0.054 C 
ATOM     24  C   UNL     1       1.957   0.004   1.376  0.00  0.00    -0.041 A 
ATOM     25  C   UNL     1       2.889  -0.653   2.170  0.00  0.00    +0.004 A 
ATOM     26  C   UNL     1       2.859  -2.026   2.297  0.00  0.00    +0.000 A 
ATOM     27  C   UNL     1       1.894  -2.757   1.629  0.00  0.00    +0.000 A 
ATOM     28  C   UNL     1       0.970  -2.107   0.836  0.00  0.00    +0.005 A 
ATOM     29  C   UNL     1       1.002  -0.726   0.705  0.00  0.00    -0.027 A 
ATOM     30  C   UNL     1      -0.031  -0.079  -0.184  0.00  0.00    +0.143 C 
ENDBRANCH  18  19
ENDBRANCH   1  18
TORSDOF 5
