REMARK  Name = ZINC35702278
REMARK  9 active torsions:
REMARK  status: ('A' for Active; 'I' for Inactive)
REMARK    1  A    between atoms: C_1  and  C_2
REMARK    2  A    between atoms: C_2  and  N_3
REMARK    3  A    between atoms: N_3  and  C_4
REMARK    4  A    between atoms: C_6  and  C_7
REMARK    5  A    between atoms: C_12  and  C_28
REMARK    6  A    between atoms: C_13  and  C_23
REMARK    7  A    between atoms: C_14  and  C_17
REMARK    8  A    between atoms: N_25  and  C_26
REMARK    9  A    between atoms: N_25  and  C_27
REMARK                            x       y       z     vdW  Elec       q    Type
REMARK                         _______ _______ _______ _____ _____    ______ ____
ROOT
ATOM      1  C   UNL     1      -3.163  -3.890   0.190  0.00  0.00    +0.048 C 
ATOM      2  C   UNL     1      -4.395  -4.442   0.136  0.00  0.00    +0.072 C 
ATOM      3  S   UNL     1      -4.016  -6.182   0.075  0.00  0.00    -0.060 S 
ATOM      4  C   UNL     1      -2.341  -6.083   0.122  0.00  0.00    +0.166 C 
ATOM      5  N   UNL     1      -1.411  -7.015   0.108  0.00  0.00    -0.230 NA
ATOM      6  C   UNL     1      -0.108  -6.782   0.150  0.00  0.00    +0.051 C 
ATOM      7  C   UNL     1       0.370  -5.489   0.214  0.00  0.00    +0.060 C 
ATOM      8  C   UNL     1      -0.640  -4.364   0.234  0.00  0.00    +0.148 C 
ATOM      9  N   UNL     1      -2.077  -4.743   0.178  0.00  0.00    -0.267 N 
ATOM     10  C   UNL     1       0.859  -7.937   0.128  0.00  0.00    +0.066 C 
ENDROOT
BRANCH   8  11
ATOM     11  C   UNL     1      -0.417  -3.563   1.491  0.00  0.00    -0.022 A 
ATOM     12  C   UNL     1      -0.831  -4.062   2.712  0.00  0.00    +0.006 A 
ATOM     13  C   UNL     1      -0.626  -3.328   3.865  0.00  0.00    +0.000 A 
ATOM     14  C   UNL     1      -0.007  -2.094   3.797  0.00  0.00    +0.000 A 
ATOM     15  C   UNL     1       0.407  -1.594   2.577  0.00  0.00    +0.000 A 
ATOM     16  C   UNL     1       0.207  -2.331   1.425  0.00  0.00    +0.006 A 
ENDBRANCH   8  11
BRANCH   7  17
ATOM     17  C   UNL     1       1.748  -5.228   0.260  0.00  0.00    +0.246 C 
ATOM     18  O   UNL     1       2.297  -5.036   1.332  0.00  0.00    -0.270 OA
ATOM     19  N   UNL     1       2.464  -5.189  -0.881  0.00  0.00    -0.304 N 
ATOM     20  C   UNL     1       3.920  -5.033  -0.827  0.00  0.00    +0.132 C 
ATOM     21  C   UNL     1       1.787  -5.301  -2.175  0.00  0.00    +0.132 C 
ENDBRANCH   7  17
BRANCH   1  24
ATOM     22  C   UNL     1      -4.051  -1.617   0.128  0.00  0.00    +0.239 C 
ATOM     23  O   UNL     1      -5.299  -2.141   0.060  0.00  0.00    -0.271 OA
ATOM     24  C   UNL     1      -2.985  -2.432   0.252  0.00  0.00    +0.091 C 
BRANCH  22  25
ATOM     25  N   UNL     1      -3.870  -0.246   0.070  0.00  0.00    -0.312 N 
ATOM     26  H   UNL     1      -2.974   0.125   0.045  0.00  0.00    +0.149 HD
BRANCH  25  28
ATOM     27  C   UNL     1      -4.562   2.100   0.108  0.00  0.00    +0.024 C 
ATOM     28  C   UNL     1      -5.033   0.645   0.047  0.00  0.00    +0.101 C 
ENDBRANCH  25  28
ENDBRANCH  22  25
ENDBRANCH   1  24
TORSDOF 5
