REMARK  Name = ZINC22527937
REMARK  9 active torsions:
REMARK  status: ('A' for Active; 'I' for Inactive)
REMARK    1  A    between atoms: C_1  and  C_2
REMARK    2  A    between atoms: C_4  and  C_18
REMARK    3  A    between atoms: C_6  and  C_17
REMARK    4  A    between atoms: N_8  and  C_11
REMARK    5  A    between atoms: N_20  and  N_21
REMARK    6  A    between atoms: C_22  and  C_23
REMARK    7  A    between atoms: C_22  and  C_24
REMARK    8  A    between atoms: C_27  and  O_30
REMARK    9  A    between atoms: O_30  and  C_31
REMARK                            x       y       z     vdW  Elec       q    Type
REMARK                         _______ _______ _______ _____ _____    ______ ____
ROOT
ATOM      1  C   UNL     1      -0.312   0.885   6.422  0.00  0.00    +0.065 C 
ATOM      2  C   UNL     1      -0.075   1.492   5.063  0.00  0.00    +0.041 A 
ATOM      3  C   UNL     1       0.960   1.009   4.278  0.00  0.00    +0.037 A 
ATOM      4  C   UNL     1       1.182   1.568   3.021  0.00  0.00    +0.052 A 
ATOM      5  C   UNL     1       0.328   2.613   2.604  0.00  0.00    +0.054 A 
ATOM      6  C   UNL     1       0.243   3.401   1.436  0.00  0.00    +0.070 A 
ATOM      7  N   UNL     1      -0.744   4.240   1.571  0.00  0.00    -0.169 NA
ATOM      8  N   UNL     1      -1.361   4.050   2.813  0.00  0.00    -0.214 N 
ATOM      9  C   UNL     1      -0.700   3.040   3.468  0.00  0.00    +0.164 A 
ATOM     10  N   UNL     1      -0.857   2.466   4.652  0.00  0.00    -0.232 NA
ATOM     11  C   UNL     1       1.147   3.293   0.235  0.00  0.00    +0.068 C 
ENDROOT
BRANCH   8  12
ATOM     12  C   UNL     1      -2.458   4.768   3.304  0.00  0.00    +0.068 A 
ATOM     13  C   UNL     1      -3.408   4.134   4.094  0.00  0.00    +0.028 A 
ATOM     14  C   UNL     1      -4.486   4.846   4.581  0.00  0.00    +0.002 A 
ATOM     15  C   UNL     1      -4.626   6.187   4.275  0.00  0.00    +0.000 A 
ATOM     16  C   UNL     1      -3.685   6.821   3.485  0.00  0.00    +0.002 A 
ATOM     17  C   UNL     1      -2.601   6.115   2.998  0.00  0.00    +0.028 A 
ENDBRANCH   8  12
BRANCH   4  18
ATOM     18  C   UNL     1       2.275   1.083   2.152  0.00  0.00    +0.264 C 
ATOM     19  O   UNL     1       2.081   0.923   0.963  0.00  0.00    -0.268 OA
ATOM     20  N   UNL     1       3.487   0.818   2.679  0.00  0.00    -0.203 N 
ATOM     21  H   UNL     1       3.663   0.962   3.755  0.00  0.00    +0.178 HD
BRANCH  20  22
ATOM     22  N   UNL     1       4.523   0.358   1.855  0.00  0.00    -0.184 NA
ATOM     23  C   UNL     1       5.691   0.102   2.362  0.00  0.00    +0.063 C 
ATOM     24  C   UNL     1       5.931   0.300   3.837  0.00  0.00    +0.068 C 
BRANCH  23  25
ATOM     25  C   UNL     1       6.780  -0.382   1.496  0.00  0.00    -0.002 A 
ATOM     26  C   UNL     1       8.040  -0.652   2.039  0.00  0.00    +0.013 A 
ATOM     27  C   UNL     1       9.054  -1.110   1.226  0.00  0.00    +0.046 A 
ATOM     28  C   UNL     1       8.830  -1.291  -0.133  0.00  0.00    +0.127 A 
ATOM     29  C   UNL     1       7.581  -1.019  -0.678  0.00  0.00    +0.046 A 
ATOM     30  C   UNL     1       6.559  -0.566   0.128  0.00  0.00    +0.013 A 
BRANCH  28  31
ATOM     31  O   UNL     1       9.834  -1.737  -0.931  0.00  0.00    -0.434 OA
BRANCH  31  32
ATOM     32  C   UNL     1      11.092  -1.998  -0.306  0.00  0.00    +0.541 C 
ATOM     33  F   UNL     1      11.573  -0.824   0.282  0.00  0.00    -0.166 F 
ATOM     34  F   UNL     1      10.930  -2.980   0.677  0.00  0.00    -0.166 F 
ENDBRANCH  31  32
ENDBRANCH  28  31
ENDBRANCH  23  25
ENDBRANCH  20  22
ENDBRANCH   4  18
TORSDOF 6
