REMARK  Name = ZINC39729886
REMARK  3 active torsions:
REMARK  status: ('A' for Active; 'I' for Inactive)
REMARK    1  A    between atoms: C_9  and  C_12
REMARK    2  A    between atoms: C_17  and  C_20
REMARK    3  A    between atoms: N_22  and  C_23
REMARK                            x       y       z     vdW  Elec       q    Type
REMARK                         _______ _______ _______ _____ _____    ______ ____
ROOT
ATOM      1  C   UNL     1       0.118  -2.920   0.019  0.00  0.00    +0.244 C 
ATOM      2  O   UNL     1      -0.981  -2.418   0.154  0.00  0.00    -0.270 OA
ATOM      3  N   UNL     1       0.237  -4.257  -0.105  0.00  0.00    -0.298 N 
ATOM      4  C   UNL     1       1.563  -4.889  -0.150  0.00  0.00    +0.109 C 
ATOM      5  C   UNL     1       1.648  -5.766  -1.404  0.00  0.00    +0.032 C 
ATOM      6  C   UNL     1       0.480  -6.754  -1.411  0.00  0.00    +0.078 C 
ATOM      7  C   UNL     1      -0.842  -5.984  -1.449  0.00  0.00    +0.032 C 
ATOM      8  C   UNL     1      -0.956  -5.110  -0.191  0.00  0.00    +0.109 C 
ENDROOT
BRANCH   1  17
ATOM      9  C   UNL     1       2.023  -1.800  -3.623  0.00  0.00    +0.001 A 
ATOM     10  C   UNL     1       3.163  -0.988  -3.597  0.00  0.00    +0.002 A 
ATOM     11  C   UNL     1       3.708  -0.526  -2.445  0.00  0.00    +0.024 A 
ATOM     12  C   UNL     1       3.131  -0.855  -1.199  0.00  0.00    +0.041 A 
ATOM     13  N   UNL     1       3.668  -0.400  -0.077  0.00  0.00    -0.285 N 
ATOM     14  C   UNL     1       3.180  -0.669   1.128  0.00  0.00    +0.222 C 
ATOM     15  O   UNL     1       3.721  -0.219   2.119  0.00  0.00    -0.275 OA
ATOM     16  C   UNL     1       1.949  -1.536   1.266  0.00  0.00    +0.137 C 
ATOM     17  C   UNL     1       1.322  -2.065  -0.010  0.00  0.00    +0.032 C 
ATOM     18  C   UNL     1       1.926  -1.712  -1.199  0.00  0.00    +0.005 A 
ATOM     19  C   UNL     1       1.393  -2.173  -2.481  0.00  0.00    +0.010 A 
ATOM     20  H   UNL     1       4.459   0.159  -0.138  0.00  0.00    +0.155 HD
ENDBRANCH   1  17
BRANCH   6  21
ATOM     21  C   UNL     1       0.580  -7.641  -2.625  0.00  0.00    +0.220 C 
ATOM     22  O   UNL     1       1.495  -7.497  -3.408  0.00  0.00    -0.275 OA
ATOM     23  N   UNL     1      -0.348  -8.595  -2.841  0.00  0.00    -0.285 N 
ATOM     24  H   UNL     1      -1.125  -8.655  -2.263  0.00  0.00    +0.155 HD
BRANCH  23  25
ATOM     25  C   UNL     1      -0.190  -9.498  -3.900  0.00  0.00    +0.037 A 
ATOM     26  C   UNL     1      -1.304 -10.094  -4.476  0.00  0.00    +0.027 A 
ATOM     27  C   UNL     1      -1.150 -10.984  -5.521  0.00  0.00    +0.051 A 
ATOM     28  C   UNL     1       0.116 -11.286  -5.997  0.00  0.00    +0.166 A 
ATOM     29  C   UNL     1       1.235 -10.690  -5.421  0.00  0.00    +0.168 A 
ATOM     30  C   UNL     1       1.079  -9.793  -4.378  0.00  0.00    +0.072 A 
ATOM     31  O   UNL     1       2.351 -11.148  -6.061  0.00  0.00    -0.453 OA
ATOM     32  C   UNL     1       1.934 -12.336  -6.759  0.00  0.00    +0.466 C 
ATOM     33  O   UNL     1       0.531 -12.117  -6.998  0.00  0.00    -0.453 OA
ENDBRANCH  23  25
ENDBRANCH   6  21
TORSDOF 3
