REMARK  Name = ZINC16040882
REMARK  8 active torsions:
REMARK  status: ('A' for Active; 'I' for Inactive)
REMARK    1  A    between atoms: C_1  and  C_2
REMARK    2  A    between atoms: C_12  and  C_14
REMARK    3  A    between atoms: C_12  and  O_33
REMARK    4  A    between atoms: C_15  and  C_16
REMARK    5  A    between atoms: C_23  and  O_24
REMARK    6  A    between atoms: O_24  and  C_25
REMARK    7  A    between atoms: N_31  and  C_32
REMARK    8  A    between atoms: C_42  and  C_43
REMARK                            x       y       z     vdW  Elec       q    Type
REMARK                         _______ _______ _______ _____ _____    ______ ____
ROOT
ATOM      1  C   UNL     1      -3.512   0.787  -3.110  0.00  0.00    +0.011 C 
ATOM      2  C   UNL     1      -2.689   2.041  -3.392  0.00  0.00    -0.025 C 
ATOM      3  C   UNL     1      -2.824   3.011  -2.242  0.00  0.00    +0.007 C 
ATOM      4  C   UNL     1      -2.200   2.361  -0.990  0.00  0.00    +0.005 C 
ATOM      5  C   UNL     1      -0.744   2.018  -1.224  0.00  0.00    +0.002 C 
ATOM      6  C   UNL     1      -0.496   1.157  -2.457  0.00  0.00    -0.003 C 
ATOM      7  C   UNL     1      -1.195   1.761  -3.646  0.00  0.00    +0.002 C 
ATOM      8  C   UNL     1      -1.251   0.938  -4.939  0.00  0.00    +0.052 C 
ATOM      9  C   UNL     1      -2.315   1.706  -5.775  0.00  0.00    +0.127 C 
ATOM     10  C   UNL     1      -3.121   2.571  -4.771  0.00  0.00    +0.055 C 
ATOM     11  C   UNL     1      -0.753  -0.324  -2.296  0.00  0.00    +0.008 C 
ATOM     12  C   UNL     1      -1.027  -0.714  -0.845  0.00  0.00    +0.032 C 
ATOM     13  C   UNL     1       0.002  -0.004   0.002  0.00  0.00    -0.060 C 
ATOM     14  C   UNL     1       0.916  -0.683   0.681  0.00  0.00    +0.046 C 
ATOM     15  C   UNL     1       2.012   0.005   1.360  0.00  0.00    +0.156 C 
ATOM     16  O   UNL     1       2.797  -0.633   2.033  0.00  0.00    -0.293 OA
ATOM     17  C   UNL     1       2.182   1.496   1.224  0.00  0.00    +0.080 C 
ATOM     18  C   UNL     1       1.429   2.011  -0.001  0.00  0.00    +0.019 C 
ATOM     19  C   UNL     1      -0.018   1.504   0.010  0.00  0.00    -0.007 C 
ATOM     20  C   UNL     1      -0.704   1.984   1.291  0.00  0.00    +0.016 C 
ENDROOT
BRANCH   9  21
ATOM     21  C   UNL     1      -1.648   2.571  -6.763  0.00  0.00    -0.066 C 
ATOM     22  C   UNL     1      -1.116   3.260  -7.550  0.00  0.00    -0.075 C 
BRANCH  22  23
ATOM     23  C   UNL     1      -0.449   4.124  -8.537  0.00  0.00    +0.167 C 
ATOM     24  C   UNL     1       0.328   3.268  -9.503  0.00  0.00    +0.030 A 
ATOM     25  C   UNL     1       1.596   3.613  -9.923  0.00  0.00    -0.033 A 
ATOM     26  C   UNL     1       2.275   2.799 -10.817  0.00  0.00    +0.053 A 
ATOM     27  C   UNL     1       1.692   1.635 -11.291  0.00  0.00    +0.170 A 
ATOM     28  C   UNL     1       0.415   1.282 -10.868  0.00  0.00    +0.208 A 
ATOM     29  C   UNL     1      -0.263   2.100  -9.975  0.00  0.00    +0.171 A 
ATOM     30  O   UNL     1       0.064   0.107 -11.469  0.00  0.00    -0.449 OA
ATOM     31  C   UNL     1       0.972  -0.043 -12.577  0.00  0.00    +0.467 C 
ATOM     32  O   UNL     1       2.143   0.683 -12.159  0.00  0.00    -0.452 OA
ATOM     33  C   UNL     1       2.279   4.863  -9.431  0.00  0.00    +0.051 C 
ATOM     34  C   UNL     1       1.251   5.811  -8.813  0.00  0.00    +0.090 C 
ATOM     35  N   UNL     1       0.445   5.054  -7.841  0.00  0.00    -0.288 NA
ATOM     36  C   UNL     1      -0.314   5.960  -6.968  0.00  0.00    +0.106 C 
BRANCH  29  37
ATOM     37  O   UNL     1      -1.512   1.758  -9.558  0.00  0.00    -0.491 OA
ATOM     38  C   UNL     1      -2.610   2.243 -10.334  0.00  0.00    +0.277 C 
ENDBRANCH  29  37
ENDBRANCH  22  23
ENDBRANCH   9  21
BRANCH   9  39
ATOM     39  O   UNL     1      -3.180   0.783  -6.438  0.00  0.00    -0.377 OA
ATOM     40  H   UNL     1      -3.995   1.155  -7.076  0.00  0.00    +0.211 HD
ENDBRANCH   9  39
TORSDOF 4
