REMARK  Name = ZINC67373380
REMARK  8 active torsions:
REMARK  status: ('A' for Active; 'I' for Inactive)
REMARK    1  A    between atoms: C_2  and  N_14
REMARK    2  A    between atoms: C_4  and  S_10
REMARK    3  A    between atoms: C_6  and  N_7
REMARK    4  A    between atoms: S_10  and  N_13
REMARK    5  A    between atoms: N_14  and  C_15
REMARK    6  A    between atoms: C_15  and  C_16
REMARK    7  A    between atoms: N_21  and  C_22
REMARK    8  A    between atoms: C_22  and  C_23
REMARK                            x       y       z     vdW  Elec       q    Type
REMARK                         _______ _______ _______ _____ _____    ______ ____
ROOT
ATOM      1  N   UNL     1       1.478   3.374   0.101  0.00  0.00    -0.345 N 
ATOM      2  H   UNL     1       2.263   3.943   0.097  0.00  0.00    +0.146 HD
ENDROOT
BRANCH   1   4
ATOM      3  C   UNL     1       0.496   1.169   0.150  0.00  0.00    +0.055 A 
ATOM      4  C   UNL     1       1.621   1.986   0.145  0.00  0.00    +0.031 A 
ATOM      5  C   UNL     1       2.888   1.417   0.184  0.00  0.00    +0.051 A 
ATOM      6  C   UNL     1       3.026   0.044   0.228  0.00  0.00    +0.109 A 
ATOM      7  C   UNL     1       1.905  -0.765   0.233  0.00  0.00    +0.061 A 
ATOM      8  C   UNL     1       0.642  -0.203   0.194  0.00  0.00    +0.130 A 
BRANCH   8   9
ATOM      9  N   UNL     1      -0.556  -1.073   0.199  0.00  0.00    +0.057 N 
ATOM     10  O   UNL     1      -1.660  -0.582   0.165  0.00  0.00    -0.126 OA
ATOM     11  O   UNL     1      -0.429  -2.275   0.237  0.00  0.00    -0.126 OA
ENDBRANCH   8   9
BRANCH   6  12
ATOM     12  S   UNL     1       4.632  -0.678   0.277  0.00  0.00    +0.056 S 
ATOM     13  O   UNL     1       4.501  -1.996  -0.237  0.00  0.00    -0.153 OA
ATOM     14  O   UNL     1       5.523   0.275  -0.288  0.00  0.00    -0.153 OA
BRANCH  12  15
ATOM     15  N   UNL     1       5.052  -0.831   1.871  0.00  0.00    -0.204 NA
ATOM     16  H   UNL     1       5.640  -1.550   2.151  0.00  0.00    +0.144 HD
ATOM     17  H   UNL     1       4.710  -0.202   2.525  0.00  0.00    +0.144 HD
ENDBRANCH  12  15
ENDBRANCH   6  12
ENDBRANCH   1   4
BRANCH   1  18
ATOM     18  C   UNL     1       0.141   3.972   0.059  0.00  0.00    +0.086 C 
BRANCH  18  19
ATOM     19  C   UNL     1       0.264   5.496   0.015  0.00  0.00    -0.051 C 
ATOM     20  C   UNL     1      -1.132   6.140   0.141  0.00  0.00    -0.016 C 
ATOM     21  C   UNL     1      -1.222   6.487   1.651  0.00  0.00    -0.020 C 
ATOM     22  C   UNL     1       0.240   6.888   1.967  0.00  0.00    -0.078 C 
ATOM     23  N   UNL     1       1.071   5.967   1.156  0.00  0.00    +0.383 N 
ATOM     24  H   UNL     1       1.355   5.179   1.719  0.00  0.00    -0.081 HD
BRANCH  23  25
ATOM     25  C   UNL     1       2.260   6.674   0.662  0.00  0.00    -0.075 C 
BRANCH  25  26
ATOM     26  C   UNL     1       3.163   7.038   1.843  0.00  0.00    -0.028 C 
ATOM     27  C   UNL     1       4.330   7.894   1.346  0.00  0.00    +0.002 C 
ATOM     28  C   UNL     1       5.233   8.259   2.526  0.00  0.00    +0.000 C 
ATOM     29  C   UNL     1       5.776   6.980   3.167  0.00  0.00    +0.000 C 
ATOM     30  C   UNL     1       4.609   6.123   3.663  0.00  0.00    +0.000 C 
ATOM     31  C   UNL     1       3.706   5.759   2.483  0.00  0.00    +0.002 C 
ENDBRANCH  25  26
ENDBRANCH  23  25
ENDBRANCH  18  19
ENDBRANCH   1  18
TORSDOF 8
