REMARK  Name = ZINC00908894
REMARK  9 active torsions:
REMARK  status: ('A' for Active; 'I' for Inactive)
REMARK    1  A    between atoms: C_1  and  C_2
REMARK    2  A    between atoms: C_2  and  C_3
REMARK    3  A    between atoms: C_3  and  C_4
REMARK    4  A    between atoms: C_3  and  C_5
REMARK    5  A    between atoms: C_3  and  N_6
REMARK    6  A    between atoms: C_7  and  C_11
REMARK    7  A    between atoms: C_11  and  C_13
REMARK    8  A    between atoms: C_11  and  N_59
REMARK    9  A    between atoms: C_18  and  C_25
REMARK                            x       y       z     vdW  Elec       q    Type
REMARK                         _______ _______ _______ _____ _____    ______ ____
ROOT
ATOM      1  C   UNL     1      -4.640   1.099   0.210  0.00  0.00    +0.039 C 
ENDROOT
BRANCH   1   2
ATOM      2  C   UNL     1      -3.319   1.799   0.400  0.00  0.00    +0.011 A 
ATOM      3  C   UNL     1      -2.182   1.073   0.528  0.00  0.00    +0.017 A 
ATOM      4  C   UNL     1      -0.914   1.784   0.706  0.00  0.00    -0.001 A 
ATOM      5  C   UNL     1       0.291   1.089   0.850  0.00  0.00    +0.010 A 
ATOM      6  C   UNL     1       1.456   1.781   1.019  0.00  0.00    +0.004 A 
ATOM      7  C   UNL     1       1.454   3.169   1.056  0.00  0.00    -0.048 A 
ATOM      8  C   UNL     1       0.278   3.874   0.923  0.00  0.00    +0.029 A 
ATOM      9  C   UNL     1      -0.921   3.191   0.749  0.00  0.00    +0.049 A 
ATOM     10  N   UNL     1      -2.113   3.871   0.612  0.00  0.00    -0.322 N 
ATOM     11  H   UNL     1      -2.115   4.870   0.638  0.00  0.00    +0.169 HD
ATOM     12  C   UNL     1      -3.271   3.209   0.444  0.00  0.00    +0.251 A 
ATOM     13  O   UNL     1      -4.306   3.843   0.326  0.00  0.00    -0.268 OA
ATOM     14  C   UNL     1       2.752   3.912   1.244  0.00  0.00    +0.044 C 
ENDBRANCH   1   2
BRANCH   1  20
ATOM     15  C   UNL     1      -6.628   1.016  -1.169  0.00  0.00    -0.077 C 
ATOM     16  C   UNL     1      -7.332   1.671  -2.360  0.00  0.00    -0.019 C 
ATOM     17  C   UNL     1      -6.497   1.450  -3.625  0.00  0.00    -0.004 C 
ATOM     18  C   UNL     1      -5.096   2.029  -3.410  0.00  0.00    -0.019 C 
ATOM     19  C   UNL     1      -4.457   1.363  -2.189  0.00  0.00    -0.077 C 
ATOM     20  N   UNL     1      -5.295   1.634  -1.002  0.00  0.00    +0.389 N 
ATOM     21  H   UNL     1      -5.409   2.649  -0.898  0.00  0.00    -0.080 HD
ENDBRANCH   1  20
BRANCH   1  23
ATOM     22  N   UNL     1      -5.904   0.470   2.334  0.00  0.00    -0.225 N 
ATOM     23  C   UNL     1      -5.525   1.363   1.401  0.00  0.00    +0.143 A 
ATOM     24  N   UNL     1      -6.079   2.506   1.727  0.00  0.00    -0.115 NA
ATOM     25  N   UNL     1      -6.758   2.325   2.806  0.00  0.00    -0.023 NA
ATOM     26  N   UNL     1      -6.653   1.097   3.178  0.00  0.00    -0.043 NA
BRANCH  22  27
ATOM     27  C   UNL     1      -5.535  -0.946   2.384  0.00  0.00    +0.061 C 
ATOM     28  C   UNL     1      -6.082  -1.661   1.147  0.00  0.00    +0.036 C 
ATOM     29  C   UNL     1      -4.010  -1.075   2.415  0.00  0.00    +0.036 C 
BRANCH  27  31
ATOM     30  C   UNL     1      -5.739  -3.063   3.696  0.00  0.00    +0.006 C 
ATOM     31  C   UNL     1      -6.125  -1.583   3.644  0.00  0.00    +0.026 C 
ENDBRANCH  27  31
ENDBRANCH  22  27
ENDBRANCH   1  23
TORSDOF 5
