REMARK  Name = ZINC32957704
REMARK  17 active torsions:
REMARK  status: ('A' for Active; 'I' for Inactive)
REMARK    1  A    between atoms: C_1  and  C_2
REMARK    2  A    between atoms: C_2  and  C_3
REMARK    3  A    between atoms: C_3  and  C_4
REMARK    4  A    between atoms: C_4  and  N_5
REMARK    5  A    between atoms: C_6  and  N_39
REMARK    6  A    between atoms: C_7  and  N_14
REMARK    7  A    between atoms: N_14  and  C_15
REMARK    8  A    between atoms: C_15  and  C_16
REMARK    9  A    between atoms: C_16  and  C_17
REMARK   10  A    between atoms: C_16  and  C_18
REMARK   11  A    between atoms: C_19  and  C_21
REMARK   12  A    between atoms: C_21  and  N_22
REMARK   13  A    between atoms: C_28  and  C_31
REMARK   14  A    between atoms: C_31  and  C_32
REMARK   15  A    between atoms: C_31  and  C_33
REMARK   16  A    between atoms: C_31  and  C_34
REMARK   17  A    between atoms: C_34  and  C_35
REMARK                            x       y       z     vdW  Elec       q    Type
REMARK                         _______ _______ _______ _____ _____    ______ ____
ROOT
ATOM      1  N   UNL     1       0.545  -2.867  -2.248  0.00  0.00    -0.263 N 
ATOM      2  C   UNL     1       0.521  -2.427  -3.524  0.00  0.00    +0.238 C 
ATOM      3  O   UNL     1       0.236  -1.272  -3.762  0.00  0.00    -0.274 OA
ENDROOT
BRANCH   1   6
ATOM      4  N   UNL     1       1.108  -0.840   0.764  0.00  0.00    -0.280 N 
ATOM      5  C   UNL     1       1.339  -1.724  -0.263  0.00  0.00    +0.127 A 
ATOM      6  C   UNL     1       0.341  -1.961  -1.186  0.00  0.00    +0.140 A 
ATOM      7  C   UNL     1      -0.884  -1.280  -1.051  0.00  0.00    +0.277 A 
ATOM      8  O   UNL     1      -1.782  -1.467  -1.855  0.00  0.00    -0.266 OA
ATOM      9  N   UNL     1      -1.057  -0.420  -0.029  0.00  0.00    -0.273 N 
ATOM     10  H   UNL     1      -2.011   0.116   0.083  0.00  0.00    +0.173 HD
ATOM     11  C   UNL     1      -0.074  -0.205   0.863  0.00  0.00    +0.331 A 
ATOM     12  O   UNL     1      -0.257   0.577   1.776  0.00  0.00    -0.246 OA
BRANCH   5  13
ATOM     13  N   UNL     1       2.549  -2.368  -0.367  0.00  0.00    -0.343 N 
ATOM     14  H   UNL     1       2.727  -3.075  -1.192  0.00  0.00    +0.144 HD
ATOM     15  H   UNL     1       3.339  -2.177   0.373  0.00  0.00    +0.144 HD
ENDBRANCH   5  13
BRANCH   4  16
ATOM     16  C   UNL     1       2.158  -0.582   1.753  0.00  0.00    +0.128 C 
BRANCH  16  17
ATOM     17  C   UNL     1       2.015  -1.566   2.916  0.00  0.00    +0.021 C 
BRANCH  17  19
ATOM     18  C   UNL     1       2.969  -2.281   5.112  0.00  0.00    +0.004 C 
ATOM     19  C   UNL     1       3.112  -1.297   3.949  0.00  0.00    -0.002 C 
ENDBRANCH  17  19
ENDBRANCH  16  17
ENDBRANCH   4  16
ENDBRANCH   1   6
BRANCH   1  20
ATOM     20  C   UNL     1       0.784  -4.285  -1.967  0.00  0.00    +0.117 C 
BRANCH  20  21
ATOM     21  C   UNL     1      -0.534  -5.054  -2.070  0.00  0.00    +0.001 C 
ATOM     22  C   UNL     1      -0.262  -6.553  -1.928  0.00  0.00    +0.009 C 
ATOM     23  C   UNL     1      -1.479  -4.599  -0.956  0.00  0.00    +0.009 C 
ENDBRANCH  20  21
ENDBRANCH   1  20
BRANCH   2  24
ATOM     24  C   UNL     1       0.847  -3.371  -4.652  0.00  0.00    +0.214 C 
BRANCH  24  25
ATOM     25  N   UNL     1       0.751  -2.657  -5.928  0.00  0.00    -0.215 N 
ATOM     26  C   UNL     1       1.779  -2.007  -6.512  0.00  0.00    +0.247 C 
ATOM     27  O   UNL     1       2.914  -1.905  -6.098  0.00  0.00    -0.273 OA
ATOM     28  C   UNL     1       1.217  -1.432  -7.793  0.00  0.00    +0.113 C 
ATOM     29  C   UNL     1       1.949  -2.009  -9.000  0.00  0.00    +0.035 C 
ATOM     30  C   UNL     1       3.419  -1.583  -8.959  0.00  0.00    +0.006 C 
ATOM     31  C   UNL     1       3.507  -0.056  -8.969  0.00  0.00    -0.005 C 
ATOM     32  C   UNL     1       2.787   0.507  -7.742  0.00  0.00    +0.006 C 
ATOM     33  C   UNL     1       1.315   0.090  -7.779  0.00  0.00    +0.035 C 
ATOM     34  N   UNL     1      -0.188  -1.858  -7.789  0.00  0.00    -0.285 N 
ATOM     35  C   UNL     1      -0.365  -2.575  -6.662  0.00  0.00    +0.310 C 
ATOM     36  O   UNL     1      -1.422  -3.086  -6.346  0.00  0.00    -0.252 OA
ATOM     37  H   UNL     1      -0.852  -1.572  -8.618  0.00  0.00    +0.151 HD
BRANCH  31  38
ATOM     38  C   UNL     1       4.976   0.370  -8.939  0.00  0.00    -0.032 C 
ATOM     39  C   UNL     1       5.064   1.897  -8.952  0.00  0.00    +0.011 C 
ATOM     40  C   UNL     1       5.637  -0.168  -7.668  0.00  0.00    +0.011 C 
BRANCH  38  41
ATOM     41  C   UNL     1       5.696  -0.193 -10.166  0.00  0.00    +0.003 C 
ATOM     42  C   UNL     1       7.165   0.233 -10.135  0.00  0.00    +0.004 C 
ENDBRANCH  38  41
ENDBRANCH  31  38
ENDBRANCH  24  25
ENDBRANCH   2  24
TORSDOF 11
