REMARK  Name = ZINC63385755
REMARK  6 active torsions:
REMARK  status: ('A' for Active; 'I' for Inactive)
REMARK    1  A    between atoms: C_1  and  C_2
REMARK    2  A    between atoms: C_2  and  C_3
REMARK    3  A    between atoms: C_16  and  C_19
REMARK    4  A    between atoms: N_23  and  C_26
REMARK    5  A    between atoms: C_29  and  O_32
REMARK    6  A    between atoms: O_32  and  C_33
REMARK                            x       y       z     vdW  Elec       q    Type
REMARK                         _______ _______ _______ _____ _____    ______ ____
ROOT
ATOM      1  C   UNL     1       0.765   1.485  -1.528  0.00  0.00    -0.067 C 
ATOM      2  C   UNL     1       1.603   0.220  -1.267  0.00  0.00    +0.018 C 
ATOM      3  C   UNL     1       0.621  -0.922  -1.179  0.00  0.00    -0.041 C 
ATOM      4  C   UNL     1       0.458  -1.898  -0.299  0.00  0.00    -0.001 A 
ATOM      5  C   UNL     1       1.266  -2.323   0.856  0.00  0.00    +0.010 A 
ATOM      6  C   UNL     1       0.779  -3.370   1.575  0.00  0.00    +0.001 A 
ATOM      7  C   UNL     1      -0.415  -4.028   1.264  0.00  0.00    +0.002 A 
ATOM      8  C   UNL     1      -1.214  -3.712   0.214  0.00  0.00    +0.026 A 
ATOM      9  C   UNL     1      -0.803  -2.634  -0.622  0.00  0.00    +0.043 A 
ATOM     10  N   UNL     1      -1.352  -2.146  -1.696  0.00  0.00    -0.379 N 
ATOM     11  C   UNL     1      -0.476  -1.103  -2.225  0.00  0.00    +0.097 C 
ATOM     12  C   UNL     1      -1.169   0.255  -2.351  0.00  0.00    -0.003 C 
ATOM     13  N   UNL     1      -0.147   1.265  -2.653  0.00  0.00    +0.387 N 
ATOM     14  H   UNL     1      -0.607   2.135  -2.877  0.00  0.00    -0.085 HD
ATOM     15  H   UNL     1      -2.198  -2.426  -2.080  0.00  0.00    +0.160 HD
ATOM     16  H   UNL     1       0.388   0.963  -3.454  0.00  0.00    -0.085 HD
ENDROOT
BRANCH  12  17
ATOM     17  C   UNL     1      -2.183   0.207  -3.464  0.00  0.00    +0.070 A 
ATOM     18  C   UNL     1      -3.512   0.349  -3.196  0.00  0.00    +0.259 A 
ATOM     19  N   UNL     1      -4.418   0.302  -4.225  0.00  0.00    -0.274 N 
ATOM     20  C   UNL     1      -4.002   0.117  -5.491  0.00  0.00    +0.337 A 
ATOM     21  N   UNL     1      -2.695  -0.025  -5.777  0.00  0.00    -0.229 N 
ATOM     22  C   UNL     1      -1.771   0.021  -4.796  0.00  0.00    +0.266 A 
ATOM     23  O   UNL     1      -0.588  -0.104  -5.061  0.00  0.00    -0.267 OA
ATOM     24  O   UNL     1      -4.819   0.078  -6.390  0.00  0.00    -0.246 OA
ATOM     25  O   UNL     1      -3.933   0.534  -1.926  0.00  0.00    -0.267 OA
ATOM     26  H   UNL     1      -5.365   0.402  -4.038  0.00  0.00    +0.173 HD
BRANCH  21  27
ATOM     27  C   UNL     1      -2.289  -0.216  -7.106  0.00  0.00    +0.055 A 
ATOM     28  C   UNL     1      -1.990   0.879  -7.905  0.00  0.00    +0.030 A 
ATOM     29  C   UNL     1      -1.591   0.691  -9.213  0.00  0.00    +0.047 A 
ATOM     30  C   UNL     1      -1.488  -0.593  -9.729  0.00  0.00    +0.120 A 
ATOM     31  C   UNL     1      -1.787  -1.688  -8.931  0.00  0.00    +0.047 A 
ATOM     32  C   UNL     1      -2.181  -1.500  -7.621  0.00  0.00    +0.030 A 
BRANCH  30  33
ATOM     33  O   UNL     1      -1.096  -0.778 -11.018  0.00  0.00    -0.495 OA
ATOM     34  C   UNL     1      -1.013  -2.127 -11.483  0.00  0.00    +0.277 C 
ENDBRANCH  30  33
ENDBRANCH  21  27
ENDBRANCH  12  17
BRANCH   1  36
ATOM     35  C   UNL     1      -0.812   3.127  -0.498  0.00  0.00    +0.002 C 
ATOM     36  C   UNL     1      -0.049   1.820  -0.276  0.00  0.00    -0.019 C 
ENDBRANCH   1  36
TORSDOF 4
