REMARK  Name = ZINC35464832
REMARK  12 active torsions:
REMARK  status: ('A' for Active; 'I' for Inactive)
REMARK    1  A    between atoms: C_1  and  C_2
REMARK    2  A    between atoms: C_7  and  C_36
REMARK    3  A    between atoms: C_14  and  O_19
REMARK    4  A    between atoms: C_16  and  C_18
REMARK    5  A    between atoms: O_19  and  C_20
REMARK    6  A    between atoms: C_22  and  O_35
REMARK    7  A    between atoms: C_24  and  O_34
REMARK    8  A    between atoms: C_26  and  O_33
REMARK    9  A    between atoms: C_28  and  C_31
REMARK   10  A    between atoms: C_31  and  O_32
REMARK   11  A    between atoms: C_36  and  C_37
REMARK   12  A    between atoms: C_36  and  C_38
REMARK                            x       y       z     vdW  Elec       q    Type
REMARK                         _______ _______ _______ _____ _____    ______ ____
ROOT
ATOM      1  C   UNL     1       0.829   1.467  -0.775  0.00  0.00    +0.008 C 
ATOM      2  C   UNL     1       0.621  -0.019  -0.476  0.00  0.00    -0.003 C 
ATOM      3  C   UNL     1      -0.792  -0.436  -0.905  0.00  0.00    +0.078 C 
ATOM      4  C   UNL     1      -1.801   0.278  -0.035  0.00  0.00    +0.137 C 
ATOM      5  O   UNL     1      -2.727   0.875  -0.528  0.00  0.00    -0.297 OA
ATOM      6  C   UNL     1      -1.626   0.228   1.469  0.00  0.00    +0.065 C 
ATOM      7  C   UNL     1      -0.188   0.642   1.791  0.00  0.00    +0.026 C 
ATOM      8  C   UNL     1       0.778  -0.266   1.024  0.00  0.00    +0.003 C 
ATOM      9  C   UNL     1       2.206   0.047   1.475  0.00  0.00    +0.040 C 
ATOM     10  C   UNL     1       2.355  -0.389   2.935  0.00  0.00    +0.147 C 
ATOM     11  C   UNL     1       1.203   0.110   3.756  0.00  0.00    -0.048 C 
ATOM     12  C   UNL     1       0.086   0.543   3.259  0.00  0.00    -0.021 C 
ATOM     13  C   UNL     1       1.350   0.094   5.256  0.00  0.00    +0.041 C 
ENDROOT
BRANCH   6  14
ATOM     14  C   UNL     1      -2.606   1.196   2.136  0.00  0.00    -0.006 C 
ATOM     15  C   UNL     1      -2.409   2.599   1.559  0.00  0.00    +0.008 C 
ATOM     16  C   UNL     1      -4.040   0.732   1.872  0.00  0.00    +0.008 C 
ENDBRANCH   6  14
BRANCH  10  17
ATOM     17  O   UNL     1       2.394  -1.817   2.999  0.00  0.00    -0.341 OA
BRANCH  17  18
ATOM     18  C   UNL     1       3.703  -2.369   2.847  0.00  0.00    +0.282 C 
ATOM     19  C   UNL     1       3.596  -3.881   2.626  0.00  0.00    +0.201 C 
ATOM     20  C   UNL     1       5.005  -4.474   2.524  0.00  0.00    +0.179 C 
ATOM     21  C   UNL     1       5.786  -4.127   3.795  0.00  0.00    +0.177 C 
ATOM     22  C   UNL     1       5.808  -2.607   3.972  0.00  0.00    +0.178 C 
ATOM     23  O   UNL     1       4.467  -2.115   4.028  0.00  0.00    -0.341 OA
BRANCH  21  24
ATOM     24  O   UNL     1       5.153  -4.731   4.925  0.00  0.00    -0.386 OA
ATOM     25  H   UNL     1       5.100  -5.696   4.878  0.00  0.00    +0.210 HD
ENDBRANCH  21  24
BRANCH  20  26
ATOM     26  O   UNL     1       4.916  -5.894   2.389  0.00  0.00    -0.386 OA
ATOM     27  H   UNL     1       4.428  -6.185   1.606  0.00  0.00    +0.210 HD
ENDBRANCH  20  26
BRANCH  19  28
ATOM     28  O   UNL     1       2.903  -4.476   3.724  0.00  0.00    -0.384 OA
ATOM     29  H   UNL     1       2.004  -4.143   3.849  0.00  0.00    +0.210 HD
ENDBRANCH  19  28
BRANCH  22  30
ATOM     30  C   UNL     1       6.535  -2.254   5.271  0.00  0.00    +0.190 C 
BRANCH  30  31
ATOM     31  O   UNL     1       6.658  -0.835   5.378  0.00  0.00    -0.392 OA
ATOM     32  H   UNL     1       7.111  -0.538   6.180  0.00  0.00    +0.210 HD
ENDBRANCH  30  31
ENDBRANCH  22  30
ENDBRANCH  17  18
ENDBRANCH  10  17
TORSDOF 8
