REMARK  Name = ZINC37730828
REMARK  4 active torsions:
REMARK  status: ('A' for Active; 'I' for Inactive)
REMARK    1  A    between atoms: C_1  and  C_2
REMARK    2  A    between atoms: C_3  and  S_8
REMARK    3  A    between atoms: S_8  and  N_11
REMARK    4  A    between atoms: N_11  and  C_12
REMARK                            x       y       z     vdW  Elec       q    Type
REMARK                         _______ _______ _______ _____ _____    ______ ____
ROOT
ATOM      1  N   UNL     1      -1.537   0.732  -3.184  0.00  0.00    -0.184 NA
ATOM      2  H   UNL     1      -2.196   0.277  -3.732  0.00  0.00    +0.149 HD
ENDROOT
BRANCH   1   3
ATOM      3  C   UNL     1      -1.788   2.099  -2.719  0.00  0.00    +0.041 C 
ATOM      4  C   UNL     1      -0.609   2.994  -3.108  0.00  0.00    +0.027 C 
ATOM      5  C   UNL     1      -0.871   4.421  -2.622  0.00  0.00    -0.009 C 
ATOM      6  C   UNL     1      -2.151   4.953  -3.270  0.00  0.00    +0.007 C 
ATOM      7  C   UNL     1      -3.330   4.058  -2.882  0.00  0.00    -0.009 C 
ATOM      8  C   UNL     1      -3.067   2.631  -3.367  0.00  0.00    +0.027 C 
ATOM      9  C   UNL     1      -3.490   4.057  -1.360  0.00  0.00    +0.007 C 
ATOM     10  C   UNL     1      -2.210   3.525  -0.713  0.00  0.00    -0.009 C 
ATOM     11  C   UNL     1      -1.032   4.421  -1.101  0.00  0.00    +0.007 C 
ATOM     12  C   UNL     1      -1.948   2.098  -1.198  0.00  0.00    +0.027 C 
ENDBRANCH   1   3
BRANCH   1  13
ATOM     13  S   UNL     1      -0.128  -0.036  -2.775  0.00  0.00    +0.062 S 
ATOM     14  O   UNL     1      -0.201  -1.342  -3.332  0.00  0.00    -0.153 OA
ATOM     15  O   UNL     1       0.070   0.190  -1.386  0.00  0.00    -0.153 OA
BRANCH  13  18
ATOM     16  C   UNL     1       0.473   0.220  -5.995  0.00  0.00    +0.067 C 
ATOM     17  C   UNL     1       1.358   0.855  -4.952  0.00  0.00    +0.059 A 
ATOM     18  C   UNL     1       1.181   0.796  -3.612  0.00  0.00    +0.145 A 
ATOM     19  C   UNL     1       2.220   1.512  -3.009  0.00  0.00    +0.163 A 
ATOM     20  N   UNL     1       2.993   1.984  -3.953  0.00  0.00    -0.180 NA
ATOM     21  N   UNL     1       2.473   1.578  -5.188  0.00  0.00    -0.280 N 
ATOM     22  H   UNL     1       2.847   1.782  -6.060  0.00  0.00    +0.189 HD
ENDBRANCH  13  18
ENDBRANCH   1  13
TORSDOF 3
