REMARK  Name = ZINC39670421
REMARK  9 active torsions:
REMARK  status: ('A' for Active; 'I' for Inactive)
REMARK    1  A    between atoms: C_1  and  C_2
REMARK    2  A    between atoms: C_7  and  C_11
REMARK    3  A    between atoms: C_11  and  N_12
REMARK    4  A    between atoms: C_13  and  C_15
REMARK    5  A    between atoms: C_26  and  C_28
REMARK    6  A    between atoms: C_31  and  O_36
REMARK    7  A    between atoms: C_32  and  O_34
REMARK    8  A    between atoms: O_34  and  C_35
REMARK    9  A    between atoms: O_36  and  C_37
REMARK                            x       y       z     vdW  Elec       q    Type
REMARK                         _______ _______ _______ _____ _____    ______ ____
ROOT
ATOM      1  C   UNL     1      -3.595  -7.695   3.232  0.00  0.00    +0.100 C 
ATOM      2  C   UNL     1      -3.915  -7.859   1.729  0.00  0.00    +0.121 C 
ATOM      3  N   UNL     1      -3.620  -9.282   1.437  0.00  0.00    -0.296 N 
ATOM      4  C   UNL     1      -4.108 -10.013   2.631  0.00  0.00    +0.115 C 
ATOM      5  C   UNL     1      -3.727  -9.109   3.821  0.00  0.00    -0.004 C 
ATOM      6  C   UNL     1      -4.823  -9.141   4.881  0.00  0.00    -0.010 C 
ATOM      7  C   UNL     1      -4.895 -10.542   5.493  0.00  0.00    -0.082 C 
ATOM      8  N   UNL     1      -3.599 -10.884   6.091  0.00  0.00    +0.379 N 
ATOM      9  C   UNL     1      -2.567 -10.943   5.049  0.00  0.00    -0.082 C 
ATOM     10  C   UNL     1      -2.396  -9.559   4.418  0.00  0.00    -0.010 C 
ATOM     11  C   UNL     1      -3.039  -9.796   0.335  0.00  0.00    +0.247 C 
ATOM     12  O   UNL     1      -2.576  -9.054  -0.510  0.00  0.00    -0.270 OA
ATOM     13  H   UNL     1      -3.349 -10.183   6.772  0.00  0.00    -0.086 HD
ATOM     14  H   UNL     1      -3.667 -11.782   6.547  0.00  0.00    -0.086 HD
ENDROOT
BRANCH  11  15
ATOM     15  C   UNL     1      -2.964 -11.259   0.153  0.00  0.00    +0.041 A 
ATOM     16  C   UNL     1      -3.841 -12.096   0.848  0.00  0.00    +0.017 A 
ATOM     17  C   UNL     1      -3.771 -13.461   0.677  0.00  0.00    +0.050 A 
ATOM     18  C   UNL     1      -2.829 -14.008  -0.184  0.00  0.00    +0.162 A 
ATOM     19  C   UNL     1      -1.950 -13.179  -0.879  0.00  0.00    +0.162 A 
ATOM     20  C   UNL     1      -2.020 -11.809  -0.717  0.00  0.00    +0.062 A 
BRANCH  19  21
ATOM     21  O   UNL     1      -1.029 -13.718  -1.721  0.00  0.00    -0.491 OA
ATOM     22  C   UNL     1      -0.161 -12.809  -2.401  0.00  0.00    +0.277 C 
ENDBRANCH  19  21
BRANCH  18  23
ATOM     23  O   UNL     1      -2.763 -15.355  -0.348  0.00  0.00    -0.491 OA
ATOM     24  C   UNL     1      -3.693 -16.145   0.395  0.00  0.00    +0.277 C 
ENDBRANCH  18  23
ENDBRANCH  11  15
BRANCH   1  26
ATOM     25  N   UNL     1      -1.858  -6.520   4.544  0.00  0.00    -0.309 N 
ATOM     26  C   UNL     1      -2.192  -7.178   3.416  0.00  0.00    +0.219 C 
ATOM     27  O   UNL     1      -1.362  -7.354   2.549  0.00  0.00    -0.275 OA
ATOM     28  H   UNL     1      -2.522  -6.379   5.237  0.00  0.00    +0.149 HD
BRANCH  25  29
ATOM     29  C   UNL     1      -0.494  -6.018   4.723  0.00  0.00    +0.161 C 
BRANCH  29  36
ATOM     30  C   UNL     1       0.512  -3.855  11.718  0.00  0.00    +0.045 C 
ATOM     31  C   UNL     1       0.159  -3.826  10.253  0.00  0.00    -0.034 A 
ATOM     32  C   UNL     1      -0.327  -2.642   9.675  0.00  0.00    +0.008 A 
ATOM     33  C   UNL     1      -0.645  -2.619   8.352  0.00  0.00    +0.047 A 
ATOM     34  C   UNL     1      -0.480  -3.788   7.582  0.00  0.00    +0.138 A 
ATOM     35  N   UNL     1      -0.703  -4.053   6.303  0.00  0.00    -0.231 NA
ATOM     36  C   UNL     1      -0.384  -5.326   6.057  0.00  0.00    +0.077 A 
ATOM     37  C   UNL     1       0.053  -5.891   7.204  0.00  0.00    +0.117 A 
ATOM     38  N   UNL     1      -0.003  -4.928   8.175  0.00  0.00    -0.306 N 
ATOM     39  C   UNL     1       0.316  -4.936   9.502  0.00  0.00    +0.096 A 
ENDBRANCH  29  36
ENDBRANCH  25  29
ENDBRANCH   1  26
TORSDOF 6
