REMARK  Name = ZINC24076236
REMARK  6 active torsions:
REMARK  status: ('A' for Active; 'I' for Inactive)
REMARK    1  A    between atoms: C_1  and  C_2
REMARK    2  A    between atoms: C_5  and  N_8
REMARK    3  A    between atoms: C_18  and  N_19
REMARK    4  A    between atoms: N_19  and  C_20
REMARK    5  A    between atoms: C_24  and  C_26
REMARK    6  A    between atoms: C_26  and  O_27
REMARK                            x       y       z     vdW  Elec       q    Type
REMARK                         _______ _______ _______ _____ _____    ______ ____
ROOT
ATOM      1  N   UNL     1      -4.730  -2.906  -0.176  0.00  0.00    -0.202 N 
ATOM      2  C   UNL     1      -5.927  -2.300  -0.238  0.00  0.00    +0.258 C 
ATOM      3  O   UNL     1      -6.937  -2.976  -0.297  0.00  0.00    -0.269 OA
ATOM      4  C   UNL     1      -6.038  -0.836  -0.235  0.00  0.00    +0.046 A 
ATOM      5  C   UNL     1      -7.278  -0.200  -0.300  0.00  0.00    +0.014 A 
ATOM      6  C   UNL     1      -7.340   1.176  -0.295  0.00  0.00    +0.001 A 
ATOM      7  C   UNL     1      -6.183   1.938  -0.228  0.00  0.00    +0.001 A 
ATOM      8  C   UNL     1      -4.946   1.329  -0.162  0.00  0.00    +0.009 A 
ATOM      9  C   UNL     1      -4.863  -0.058  -0.165  0.00  0.00    +0.000 A 
ATOM     10  C   UNL     1      -3.564  -0.760  -0.098  0.00  0.00    +0.059 C 
ATOM     11  C   UNL     1      -2.381  -0.058  -0.029  0.00  0.00    +0.085 C 
ATOM     12  C   UNL     1      -3.572  -2.228  -0.114  0.00  0.00    +0.259 C 
ATOM     13  O   UNL     1      -2.519  -2.837  -0.065  0.00  0.00    -0.269 OA
ENDROOT
BRANCH   1  18
ATOM     14  C   UNL     1      -4.553  -8.578  -0.202  0.00  0.00    +0.044 C 
ATOM     15  C   UNL     1      -4.600  -7.071  -0.195  0.00  0.00    -0.050 A 
ATOM     16  C   UNL     1      -4.202  -6.374   0.931  0.00  0.00    +0.005 A 
ATOM     17  C   UNL     1      -4.243  -4.993   0.940  0.00  0.00    +0.024 A 
ATOM     18  C   UNL     1      -4.687  -4.306  -0.182  0.00  0.00    +0.045 A 
ATOM     19  C   UNL     1      -5.092  -5.009  -1.308  0.00  0.00    +0.024 A 
ATOM     20  C   UNL     1      -5.042  -6.390  -1.313  0.00  0.00    +0.005 A 
ENDBRANCH   1  18
BRANCH  11  21
ATOM     21  N   UNL     1      -1.194  -0.717  -0.107  0.00  0.00    -0.320 N 
ATOM     22  H   UNL     1      -1.176  -1.816  -0.136  0.00  0.00    +0.152 HD
BRANCH  21  23
ATOM     23  C   UNL     1       0.003   0.003  -0.151  0.00  0.00    +0.031 A 
ATOM     24  C   UNL     1      -0.018   1.392  -0.115  0.00  0.00    +0.023 A 
ATOM     25  C   UNL     1       1.166   2.100  -0.158  0.00  0.00    +0.002 A 
ATOM     26  C   UNL     1       2.373   1.428  -0.238  0.00  0.00    +0.006 A 
ATOM     27  C   UNL     1       2.397   0.046  -0.273  0.00  0.00    -0.020 A 
ATOM     28  C   UNL     1       1.216  -0.668  -0.231  0.00  0.00    +0.029 A 
BRANCH  27  29
ATOM     29  C   UNL     1       3.714  -0.681  -0.359  0.00  0.00    +0.191 C 
BRANCH  29  30
ATOM     30  O   UNL     1       4.061  -0.877  -1.732  0.00  0.00    -0.390 OA
ATOM     31  H   UNL     1       4.996  -1.394  -1.994  0.00  0.00    +0.210 HD
ENDBRANCH  29  30
ENDBRANCH  27  29
ENDBRANCH  21  23
ENDBRANCH  11  21
TORSDOF 5
