REMARK  Name = ZINC09591793
REMARK  5 active torsions:
REMARK  status: ('A' for Active; 'I' for Inactive)
REMARK    1  A    between atoms: C_1  and  C_2
REMARK    2  A    between atoms: C_2  and  C_4
REMARK    3  A    between atoms: C_2  and  N_60
REMARK    4  A    between atoms: N_9  and  C_10
REMARK    5  A    between atoms: C_19  and  C_21
REMARK                            x       y       z     vdW  Elec       q    Type
REMARK                         _______ _______ _______ _____ _____    ______ ____
ROOT
ATOM      1  C   UNL     1       7.423   5.505  -0.915  0.00  0.00    -0.004 C 
ATOM      2  C   UNL     1       6.708   5.514  -2.268  0.00  0.00    +0.017 C 
ENDROOT
BRANCH   2   3
ATOM      3  C   UNL     1       5.223   5.372  -2.053  0.00  0.00    +0.207 C 
ATOM      4  O   UNL     1       4.470   6.240  -2.438  0.00  0.00    -0.277 OA
ATOM      5  N   UNL     1       4.734   4.280  -1.433  0.00  0.00    -0.242 N 
ATOM      6  C   UNL     1       3.406   4.153  -1.241  0.00  0.00    +0.306 C 
ATOM      7  O   UNL     1       2.650   5.023  -1.626  0.00  0.00    -0.252 OA
ATOM      8  N   UNL     1       2.916   3.061  -0.621  0.00  0.00    -0.296 N 
ATOM      9  H   UNL     1       5.337   3.585  -1.126  0.00  0.00    +0.159 HD
ATOM     10  H   UNL     1       3.519   2.366  -0.314  0.00  0.00    +0.151 HD
BRANCH   8  11
ATOM     11  C   UNL     1       1.472   2.923  -0.412  0.00  0.00    +0.074 C 
ATOM     12  C   UNL     1       1.071   3.651   0.872  0.00  0.00    +0.022 C 
ATOM     13  C   UNL     1      -0.436   3.507   1.091  0.00  0.00    +0.002 C 
ATOM     14  C   UNL     1      -0.794   2.025   1.212  0.00  0.00    +0.000 C 
ATOM     15  C   UNL     1      -0.393   1.296  -0.073  0.00  0.00    +0.002 C 
ATOM     16  C   UNL     1       1.114   1.440  -0.291  0.00  0.00    +0.022 C 
ENDBRANCH   8  11
ENDBRANCH   2   3
BRANCH   2  21
ATOM     17  C   UNL     1       6.660   7.933  -2.099  0.00  0.00    -0.077 C 
ATOM     18  C   UNL     1       7.941   8.786  -1.977  0.00  0.00    -0.020 C 
ATOM     19  C   UNL     1       8.755   8.375  -3.232  0.00  0.00    -0.013 C 
ATOM     20  C   UNL     1       8.406   6.871  -3.352  0.00  0.00    -0.037 C 
ATOM     21  N   UNL     1       6.982   6.793  -2.973  0.00  0.00    +0.392 N 
ATOM     22  H   UNL     1       6.402   6.840  -3.819  0.00  0.00    -0.080 HD
BRANCH  20  23
ATOM     23  C   UNL     1       8.589   6.402  -4.773  0.00  0.00    -0.057 A 
ATOM     24  C   UNL     1       7.657   6.740  -5.736  0.00  0.00    +0.006 A 
ATOM     25  C   UNL     1       7.821   6.312  -7.040  0.00  0.00    +0.049 A 
ATOM     26  C   UNL     1       8.921   5.541  -7.385  0.00  0.00    +0.162 A 
ATOM     27  C   UNL     1       9.859   5.203  -6.417  0.00  0.00    +0.162 A 
ATOM     28  C   UNL     1       9.691   5.640  -5.111  0.00  0.00    +0.051 A 
ATOM     29  O   UNL     1      10.948   4.451  -6.735  0.00  0.00    -0.485 OA
ATOM     30  C   UNL     1      10.889   3.721  -7.965  0.00  0.00    +0.270 C 
ATOM     31  C   UNL     1      10.366   4.664  -9.058  0.00  0.00    +0.270 C 
ATOM     32  O   UNL     1       9.065   5.120  -8.671  0.00  0.00    -0.485 OA
ENDBRANCH  20  23
ENDBRANCH   2  21
TORSDOF 4
