REMARK  Name = ZINC22926655
REMARK  7 active torsions:
REMARK  status: ('A' for Active; 'I' for Inactive)
REMARK    1  A    between atoms: C_1  and  C_2
REMARK    2  A    between atoms: C_5  and  N_8
REMARK    3  A    between atoms: C_9  and  C_11
REMARK    4  A    between atoms: C_11  and  C_13
REMARK    5  A    between atoms: C_11  and  N_19
REMARK    6  A    between atoms: N_22  and  C_25
REMARK    7  A    between atoms: C_25  and  C_26
REMARK                            x       y       z     vdW  Elec       q    Type
REMARK                         _______ _______ _______ _____ _____    ______ ____
ROOT
ATOM      1  C   UNL     1       0.309  -6.349   1.121  0.00  0.00    +0.174 C 
ENDROOT
BRANCH   1   2
ATOM      2  C   UNL     1      -0.906  -6.955   0.466  0.00  0.00    -0.021 A 
ATOM      3  C   UNL     1      -2.080  -7.096   1.182  0.00  0.00    +0.005 A 
ATOM      4  C   UNL     1      -3.194  -7.651   0.580  0.00  0.00    +0.000 A 
ATOM      5  C   UNL     1      -3.134  -8.064  -0.737  0.00  0.00    +0.000 A 
ATOM      6  C   UNL     1      -1.960  -7.922  -1.454  0.00  0.00    +0.000 A 
ATOM      7  C   UNL     1      -0.848  -7.363  -0.854  0.00  0.00    +0.005 A 
ENDBRANCH   1   2
BRANCH   1   8
ATOM      8  N   UNL     1       0.420  -6.846   2.499  0.00  0.00    -0.285 NA
ATOM      9  C   UNL     1       0.461  -8.315   2.528  0.00  0.00    +0.101 C 
ATOM     10  C   UNL     1       0.497  -8.793   3.981  0.00  0.00    +0.100 C 
ATOM     11  N   UNL     1       1.673  -8.223   4.654  0.00  0.00    -0.294 NA
ATOM     12  C   UNL     1       1.631  -6.754   4.625  0.00  0.00    +0.100 C 
ATOM     13  C   UNL     1       1.596  -6.276   3.171  0.00  0.00    +0.101 C 
BRANCH  11  14
ATOM     14  C   UNL     1       1.784  -8.720   6.032  0.00  0.00    +0.137 C 
BRANCH  14  15
ATOM     15  C   UNL     1       3.117  -8.316   6.605  0.00  0.00    +0.037 A 
ATOM     16  C   UNL     1       3.188  -7.445   7.672  0.00  0.00    +0.093 A 
ATOM     17  C   UNL     1       4.431  -7.083   8.190  0.00  0.00    +0.259 A 
ATOM     18  O   UNL     1       4.499  -6.313   9.134  0.00  0.00    -0.267 OA
ATOM     19  N   UNL     1       5.574  -7.592   7.638  0.00  0.00    -0.264 N 
ATOM     20  C   UNL     1       6.864  -7.332   8.034  0.00  0.00    +0.104 A 
ATOM     21  C   UNL     1       7.900  -7.893   7.412  0.00  0.00    +0.067 A 
ATOM     22  S   UNL     1       7.088  -8.877   6.162  0.00  0.00    -0.059 S 
ATOM     23  C   UNL     1       5.412  -8.449   6.582  0.00  0.00    +0.158 A 
ATOM     24  N   UNL     1       4.248  -8.797   6.094  0.00  0.00    -0.338 N 
ATOM     25  H   UNL     1       4.209  -9.413   5.346  0.00  0.00    +0.168 HD
ENDBRANCH  14  15
ENDBRANCH  11  14
ENDBRANCH   1   8
BRANCH   1  27
ATOM     26  N   UNL     1       0.059  -4.170  -0.021  0.00  0.00    -0.284 N 
ATOM     27  C   UNL     1       0.175  -4.848   1.138  0.00  0.00    +0.239 C 
ATOM     28  O   UNL     1       0.173  -4.251   2.193  0.00  0.00    -0.273 OA
ATOM     29  H   UNL     1      -0.007  -4.651  -0.861  0.00  0.00    +0.155 HD
BRANCH  26  34
ATOM     30  C   UNL     1      -0.048   1.502   0.014  0.00  0.00    +0.044 C 
ATOM     31  C   UNL     1      -0.019  -0.004   0.005  0.00  0.00    -0.050 A 
ATOM     32  C   UNL     1      -0.606  -0.712   1.038  0.00  0.00    +0.005 A 
ATOM     33  C   UNL     1      -0.582  -2.093   1.033  0.00  0.00    +0.023 A 
ATOM     34  C   UNL     1       0.032  -2.771  -0.013  0.00  0.00    +0.033 A 
ATOM     35  C   UNL     1       0.619  -2.057  -1.049  0.00  0.00    +0.023 A 
ATOM     36  C   UNL     1       0.588  -0.677  -1.040  0.00  0.00    +0.005 A 
ENDBRANCH  26  34
ENDBRANCH   1  27
TORSDOF 6
