REMARK  Name = ZINC59385628
REMARK  8 active torsions:
REMARK  status: ('A' for Active; 'I' for Inactive)
REMARK    1  A    between atoms: C_1  and  C_2
REMARK    2  A    between atoms: C_3  and  C_19
REMARK    3  A    between atoms: C_4  and  C_10
REMARK    4  A    between atoms: C_13  and  N_16
REMARK    5  A    between atoms: N_16  and  C_17
REMARK    6  A    between atoms: N_16  and  C_18
REMARK    7  A    between atoms: N_21  and  N_22
REMARK    8  A    between atoms: C_23  and  C_24
REMARK                            x       y       z     vdW  Elec       q    Type
REMARK                         _______ _______ _______ _____ _____    ______ ____
ROOT
ATOM      1  C   UNL     1       0.655   1.353   0.049  0.00  0.00    +0.061 C 
ATOM      2  C   UNL     1       0.363  -0.126   0.026  0.00  0.00    +0.019 C 
ATOM      3  C   UNL     1      -0.916  -0.549  -0.037  0.00  0.00    +0.057 C 
ATOM      4  C   UNL     1      -1.165  -2.044  -0.058  0.00  0.00    +0.142 C 
ATOM      5  N   UNL     1       0.019  -2.918  -0.007  0.00  0.00    -0.288 N 
ATOM      6  C   UNL     1       1.237  -2.345   0.054  0.00  0.00    +0.304 C 
ATOM      7  O   UNL     1       2.221  -3.058   0.096  0.00  0.00    -0.252 OA
ATOM      8  N   UNL     1       1.400  -1.016   0.065  0.00  0.00    -0.273 N 
ATOM      9  H   UNL     1      -0.076  -3.883  -0.017  0.00  0.00    +0.151 HD
ATOM     10  H   UNL     1       2.303  -0.665   0.106  0.00  0.00    +0.156 HD
ENDROOT
BRANCH   4  11
ATOM     11  C   UNL     1      -1.929  -2.370  -1.316  0.00  0.00    -0.022 A 
ATOM     12  C   UNL     1      -1.282  -2.360  -2.538  0.00  0.00    +0.007 A 
ATOM     13  C   UNL     1      -1.979  -2.659  -3.692  0.00  0.00    +0.023 A 
ATOM     14  C   UNL     1      -3.331  -2.969  -3.625  0.00  0.00    +0.029 A 
ATOM     15  C   UNL     1      -3.978  -2.979  -2.395  0.00  0.00    +0.023 A 
ATOM     16  C   UNL     1      -3.273  -2.685  -1.244  0.00  0.00    +0.007 A 
BRANCH  14  17
ATOM     17  N   UNL     1      -4.039  -3.271  -4.790  0.00  0.00    -0.336 N 
ATOM     18  C   UNL     1      -3.355  -3.261  -6.086  0.00  0.00    +0.129 C 
ATOM     19  C   UNL     1      -5.465  -3.599  -4.717  0.00  0.00    +0.129 C 
ENDBRANCH  14  17
ENDBRANCH   4  11
BRANCH   3  20
ATOM     20  C   UNL     1      -1.991   0.372  -0.082  0.00  0.00    +0.263 C 
ATOM     21  O   UNL     1      -2.655   0.583   0.917  0.00  0.00    -0.269 OA
ATOM     22  N   UNL     1      -2.279   1.016  -1.231  0.00  0.00    -0.203 N 
ATOM     23  H   UNL     1      -1.799   0.795  -2.044  0.00  0.00    +0.178 HD
BRANCH  22  24
ATOM     24  N   UNL     1      -3.271   2.006  -1.249  0.00  0.00    -0.187 NA
ATOM     25  C   UNL     1      -3.548   2.626  -2.355  0.00  0.00    +0.139 C 
BRANCH  25  26
ATOM     26  C   UNL     1      -4.592   3.667  -2.375  0.00  0.00    +0.013 A 
ATOM     27  C   UNL     1      -4.897   4.333  -3.565  0.00  0.00    +0.011 A 
ATOM     28  C   UNL     1      -5.875   5.306  -3.576  0.00  0.00    +0.001 A 
ATOM     29  C   UNL     1      -6.553   5.623  -2.412  0.00  0.00    +0.001 A 
ATOM     30  C   UNL     1      -6.258   4.969  -1.230  0.00  0.00    +0.020 A 
ATOM     31  C   UNL     1      -5.285   3.989  -1.205  0.00  0.00    +0.050 A 
ATOM     32 CL   UNL     1      -4.920   3.163   0.278  0.00  0.00    -0.083 Cl
ENDBRANCH  25  26
ENDBRANCH  22  24
ENDBRANCH   3  20
TORSDOF 5
