REMARK  Name = ZINC25781225
REMARK  10 active torsions:
REMARK  status: ('A' for Active; 'I' for Inactive)
REMARK    1  A    between atoms: C_1  and  C_2
REMARK    2  A    between atoms: C_4  and  C_34
REMARK    3  A    between atoms: C_5  and  S_9
REMARK    4  A    between atoms: C_6  and  C_8
REMARK    5  A    between atoms: S_9  and  N_12
REMARK    6  A    between atoms: C_16  and  C_18
REMARK    7  A    between atoms: C_18  and  O_20
REMARK    8  A    between atoms: O_20  and  C_21
REMARK    9  A    between atoms: C_21  and  C_22
REMARK   10  A    between atoms: N_27  and  C_28
REMARK                            x       y       z     vdW  Elec       q    Type
REMARK                         _______ _______ _______ _____ _____    ______ ____
ROOT
ATOM      1  C   UNL     1      -1.657   1.743   2.147  0.00  0.00    +0.327 C 
ATOM      2  O   UNL     1      -2.499   2.459   1.660  0.00  0.00    -0.249 OA
ENDROOT
BRANCH   1   7
ATOM      3  N   UNL     1      -0.682   1.480  -0.073  0.00  0.00    -0.163 NA
ATOM      4  C   UNL     1       0.176   2.521  -0.666  0.00  0.00    +0.110 C 
ATOM      5  C   UNL     1       1.380   2.642   0.302  0.00  0.00    +0.019 C 
ATOM      6  C   UNL     1       0.693   2.445   1.679  0.00  0.00    +0.033 C 
ATOM      7  C   UNL     1      -0.409   1.410   1.370  0.00  0.00    +0.188 C 
BRANCH   3   8
ATOM      8  S   UNL     1      -1.772   0.543  -0.895  0.00  0.00    +0.062 S 
ATOM      9  O   UNL     1      -1.365   0.547  -2.257  0.00  0.00    -0.153 OA
ATOM     10  O   UNL     1      -1.922  -0.657  -0.149  0.00  0.00    -0.153 OA
BRANCH   8  15
ATOM     11  C   UNL     1      -7.090   3.384  -0.678  0.00  0.00    +0.044 C 
ATOM     12  C   UNL     1      -5.762   2.675  -0.732  0.00  0.00    -0.050 A 
ATOM     13  C   UNL     1      -4.784   3.104  -1.610  0.00  0.00    +0.008 A 
ATOM     14  C   UNL     1      -3.566   2.454  -1.660  0.00  0.00    -0.024 A 
ATOM     15  C   UNL     1      -3.325   1.373  -0.832  0.00  0.00    +0.111 A 
ATOM     16  C   UNL     1      -4.304   0.940   0.043  0.00  0.00    -0.024 A 
ATOM     17  C   UNL     1      -5.521   1.595   0.096  0.00  0.00    +0.008 A 
ATOM     18  C   UNL     1      -4.044  -0.241   0.941  0.00  0.00    +0.046 C 
ATOM     19  C   UNL     1      -2.500   2.921  -2.617  0.00  0.00    +0.046 C 
ENDBRANCH   8  15
ENDBRANCH   3   8
ENDBRANCH   1   7
BRANCH   1  20
ATOM     20  O   UNL     1      -1.833   1.243   3.381  0.00  0.00    -0.454 OA
BRANCH  20  21
ATOM     21  C   UNL     1      -3.058   1.605   4.071  0.00  0.00    +0.328 C 
BRANCH  21  22
ATOM     22  C   UNL     1      -3.079   0.957   5.431  0.00  0.00    +0.258 C 
ATOM     23  O   UNL     1      -2.154   0.258   5.784  0.00  0.00    -0.272 OA
ATOM     24  N   UNL     1      -4.128   1.153   6.255  0.00  0.00    -0.237 N 
ATOM     25  C   UNL     1      -4.147   0.573   7.471  0.00  0.00    +0.306 C 
ATOM     26  O   UNL     1      -3.219  -0.128   7.825  0.00  0.00    -0.252 OA
ATOM     27  N   UNL     1      -5.195   0.769   8.295  0.00  0.00    -0.296 N 
ATOM     28  H   UNL     1      -4.968   1.787   5.934  0.00  0.00    +0.159 HD
ATOM     29  H   UNL     1      -6.035   1.403   7.974  0.00  0.00    +0.151 HD
BRANCH  27  30
ATOM     30  C   UNL     1      -5.216   0.139   9.617  0.00  0.00    +0.074 C 
ATOM     31  C   UNL     1      -5.767  -1.284   9.495  0.00  0.00    +0.022 C 
ATOM     32  C   UNL     1      -5.789  -1.942  10.875  0.00  0.00    +0.002 C 
ATOM     33  C   UNL     1      -6.682  -1.129  11.814  0.00  0.00    +0.000 C 
ATOM     34  C   UNL     1      -6.131   0.293  11.937  0.00  0.00    +0.002 C 
ATOM     35  C   UNL     1      -6.109   0.952  10.556  0.00  0.00    +0.022 C 
ENDBRANCH  27  30
ENDBRANCH  21  22
ENDBRANCH  20  21
ENDBRANCH   1  20
TORSDOF 7
