REMARK  Name = ZINC39638766
REMARK  9 active torsions:
REMARK  status: ('A' for Active; 'I' for Inactive)
REMARK    1  A    between atoms: C_1  and  C_2
REMARK    2  A    between atoms: C_2  and  O_3
REMARK    3  A    between atoms: O_3  and  C_4
REMARK    4  A    between atoms: C_9  and  C_10
REMARK    5  A    between atoms: C_10  and  N_11
REMARK    6  A    between atoms: C_12  and  C_14
REMARK    7  A    between atoms: C_25  and  C_27
REMARK    8  A    between atoms: C_27  and  C_28
REMARK    9  A    between atoms: C_31  and  C_34
REMARK                            x       y       z     vdW  Elec       q    Type
REMARK                         _______ _______ _______ _____ _____    ______ ____
ROOT
ATOM      1  C   UNL     1       5.325   0.475  -3.325  0.00  0.00    +0.100 C 
ATOM      2  C   UNL     1       6.290  -0.700  -3.050  0.00  0.00    +0.121 C 
ATOM      3  N   UNL     1       7.071  -0.844  -4.301  0.00  0.00    -0.300 N 
ATOM      4  C   UNL     1       7.321   0.550  -4.742  0.00  0.00    +0.115 C 
ATOM      5  C   UNL     1       6.007   1.295  -4.433  0.00  0.00    -0.004 C 
ATOM      6  C   UNL     1       6.304   2.707  -3.938  0.00  0.00    -0.010 C 
ATOM      7  C   UNL     1       6.929   3.521  -5.076  0.00  0.00    -0.082 C 
ATOM      8  N   UNL     1       6.003   3.564  -6.214  0.00  0.00    +0.379 N 
ATOM      9  C   UNL     1       5.795   2.210  -6.742  0.00  0.00    -0.082 C 
ATOM     10  C   UNL     1       5.123   1.341  -5.676  0.00  0.00    -0.010 C 
ATOM     11  C   UNL     1       7.466  -1.984  -4.902  0.00  0.00    +0.220 C 
ATOM     12  O   UNL     1       8.106  -1.936  -5.931  0.00  0.00    -0.275 OA
ATOM     13  H   UNL     1       5.119   3.945  -5.912  0.00  0.00    -0.086 HD
ATOM     14  H   UNL     1       6.390   4.151  -6.938  0.00  0.00    -0.086 HD
ENDROOT
BRANCH   1  16
ATOM     15  N   UNL     1       2.870   0.667  -3.559  0.00  0.00    -0.311 N 
ATOM     16  C   UNL     1       3.991  -0.042  -3.799  0.00  0.00    +0.218 C 
ATOM     17  O   UNL     1       3.927  -1.095  -4.397  0.00  0.00    -0.275 OA
ATOM     18  H   UNL     1       2.922   1.509  -3.080  0.00  0.00    +0.149 HD
BRANCH  15  19
ATOM     19  C   UNL     1       1.574   0.165  -4.020  0.00  0.00    +0.143 C 
BRANCH  19  25
ATOM     20  C   UNL     1       0.277   2.280  -4.382  0.00  0.00    +0.125 A 
ATOM     21  C   UNL     1      -0.725   3.170  -4.021  0.00  0.00    +0.046 A 
ATOM     22  C   UNL     1      -1.503   2.917  -2.908  0.00  0.00    +0.004 A 
ATOM     23  C   UNL     1      -1.285   1.778  -2.154  0.00  0.00    +0.001 A 
ATOM     24  C   UNL     1      -0.287   0.891  -2.512  0.00  0.00    +0.009 A 
ATOM     25  C   UNL     1       0.490   1.136  -3.627  0.00  0.00    +0.011 A 
BRANCH  20  26
ATOM     26  O   UNL     1       1.044   2.526  -5.476  0.00  0.00    -0.492 OA
BRANCH  26  28
ATOM     27  C   UNL     1       1.724   3.829  -7.395  0.00  0.00    +0.048 C 
ATOM     28  C   UNL     1       0.767   3.724  -6.206  0.00  0.00    +0.225 C 
ENDBRANCH  26  28
ENDBRANCH  20  26
ENDBRANCH  19  25
ENDBRANCH  15  19
ENDBRANCH   1  16
BRANCH  11  29
ATOM     29  C   UNL     1       7.112  -3.317  -4.296  0.00  0.00    +0.131 C 
BRANCH  29  30
ATOM     30  C   UNL     1       7.668  -4.423  -5.155  0.00  0.00    -0.039 A 
ATOM     31  C   UNL     1       6.909  -4.945  -6.186  0.00  0.00    +0.004 A 
ATOM     32  C   UNL     1       7.418  -5.959  -6.975  0.00  0.00    +0.003 A 
ATOM     33  C   UNL     1       8.687  -6.452  -6.733  0.00  0.00    -0.050 A 
ATOM     34  C   UNL     1       9.446  -5.930  -5.703  0.00  0.00    +0.003 A 
ATOM     35  C   UNL     1       8.938  -4.912  -4.917  0.00  0.00    +0.004 A 
ATOM     36  C   UNL     1       9.241  -7.559  -7.593  0.00  0.00    +0.044 C 
ENDBRANCH  29  30
ENDBRANCH  11  29
TORSDOF 7
