REMARK  Name = ZINC24744727
REMARK  4 active torsions:
REMARK  status: ('A' for Active; 'I' for Inactive)
REMARK    1  A    between atoms: C_4  and  N_18
REMARK    2  A    between atoms: C_5  and  N_7
REMARK    3  A    between atoms: N_10  and  C_11
REMARK    4  A    between atoms: C_11  and  C_12
REMARK                            x       y       z     vdW  Elec       q    Type
REMARK                         _______ _______ _______ _____ _____    ______ ____
ROOT
ATOM      1  N   UNL     1      -2.453  -0.128   0.210  0.00  0.00    -0.267 N 
ATOM      2  C   UNL     1      -3.567  -0.859   0.412  0.00  0.00    +0.304 C 
ATOM      3  O   UNL     1      -3.483  -2.059   0.590  0.00  0.00    -0.252 OA
ATOM      4  N   UNL     1      -4.775  -0.260   0.416  0.00  0.00    -0.295 N 
ATOM      5  H   UNL     1      -2.520   0.968   0.136  0.00  0.00    +0.156 HD
ATOM      6  H   UNL     1      -4.851   0.825   0.255  0.00  0.00    +0.151 HD
ENDROOT
BRANCH   1  11
ATOM      7  C   UNL     1       0.108  -2.628  -0.632  0.00  0.00    +0.002 A 
ATOM      8  C   UNL     1       1.244  -2.017  -0.132  0.00  0.00    +0.002 A 
ATOM      9  C   UNL     1       1.156  -0.778   0.476  0.00  0.00    +0.034 A 
ATOM     10  C   UNL     1      -0.069  -0.152   0.595  0.00  0.00    +0.147 A 
ATOM     11  C   UNL     1      -1.211  -0.762   0.095  0.00  0.00    +0.065 A 
ATOM     12  C   UNL     1      -1.119  -2.004  -0.520  0.00  0.00    +0.025 A 
BRANCH  10  13
ATOM     13  N   UNL     1      -0.163   1.172   1.251  0.00  0.00    +0.058 N 
ATOM     14  O   UNL     1       0.822   1.666   1.769  0.00  0.00    -0.126 OA
ATOM     15  O   UNL     1      -1.225   1.769   1.268  0.00  0.00    -0.126 OA
ENDBRANCH  10  13
ENDBRANCH   1  11
BRANCH   4  16
ATOM     16  C   UNL     1      -5.986  -1.055   0.636  0.00  0.00    +0.148 C 
BRANCH  16  17
ATOM     17  C   UNL     1      -7.193  -0.153   0.594  0.00  0.00    +0.008 A 
ATOM     18  C   UNL     1      -7.959   0.197  -0.468  0.00  0.00    +0.014 A 
ATOM     19  C   UNL     1      -9.031   1.048  -0.269  0.00  0.00    +0.023 A 
ATOM     20  C   UNL     1      -9.283   1.506   0.982  0.00  0.00    +0.055 A 
ATOM     21  S   UNL     1      -7.988   0.723   1.930  0.00  0.00    -0.085 S 
ATOM     22 BR   UNL     1     -10.654   2.667   1.571  0.00  0.00    -0.043 Br
ENDBRANCH  16  17
ENDBRANCH   4  16
TORSDOF 4
