REMARK  Name = ZINC58022641
REMARK  6 active torsions:
REMARK  status: ('A' for Active; 'I' for Inactive)
REMARK    1  A    between atoms: C_1  and  C_2
REMARK    2  A    between atoms: C_4  and  C_29
REMARK    3  A    between atoms: C_8  and  C_10
REMARK    4  A    between atoms: C_10  and  N_11
REMARK    5  A    between atoms: C_14  and  C_18
REMARK    6  A    between atoms: C_14  and  C_19
REMARK                            x       y       z     vdW  Elec       q    Type
REMARK                         _______ _______ _______ _____ _____    ______ ____
ROOT
ATOM      1  N   UNL     1       4.137  -3.125   1.573  0.00  0.00    -0.215 N 
ATOM      2  C   UNL     1       4.588  -3.624   2.741  0.00  0.00    +0.251 C 
ATOM      3  O   UNL     1       4.231  -3.313   3.857  0.00  0.00    -0.272 OA
ATOM      4  C   UNL     1       5.634  -4.656   2.369  0.00  0.00    +0.135 C 
ATOM      5  N   UNL     1       5.653  -4.615   0.897  0.00  0.00    -0.281 N 
ATOM      6  C   UNL     1       4.743  -3.696   0.526  0.00  0.00    +0.310 C 
ATOM      7  O   UNL     1       4.501  -3.413  -0.631  0.00  0.00    -0.252 OA
ATOM      8  C   UNL     1       5.221  -6.044   2.863  0.00  0.00    +0.047 C 
ATOM      9  H   UNL     1       6.211  -5.148   0.309  0.00  0.00    +0.152 HD
ENDROOT
BRANCH   4  10
ATOM     10  C   UNL     1       6.980  -4.272   2.928  0.00  0.00    -0.015 A 
ATOM     11  C   UNL     1       7.048  -3.545   4.115  0.00  0.00    +0.007 A 
ATOM     12  C   UNL     1       8.248  -3.181   4.646  0.00  0.00    +0.009 A 
ATOM     13  C   UNL     1       9.437  -3.543   3.990  0.00  0.00    -0.018 A 
ATOM     14  C   UNL     1      10.694  -3.187   4.508  0.00  0.00    +0.008 A 
ATOM     15  C   UNL     1      11.824  -3.555   3.846  0.00  0.00    +0.001 A 
ATOM     16  C   UNL     1      11.756  -4.282   2.659  0.00  0.00    +0.001 A 
ATOM     17  C   UNL     1      10.556  -4.645   2.128  0.00  0.00    +0.008 A 
ATOM     18  C   UNL     1       9.367  -4.283   2.783  0.00  0.00    -0.018 A 
ATOM     19  C   UNL     1       8.111  -4.644   2.268  0.00  0.00    +0.014 A 
ENDBRANCH   4  10
BRANCH   1  20
ATOM     20  C   UNL     1       3.106  -2.090   1.464  0.00  0.00    +0.213 C 
BRANCH  20  28
ATOM     21  C   UNL     1      -0.019   1.526   0.010  0.00  0.00    +0.009 C 
ATOM     22  C   UNL     1       0.002  -0.004   0.002  0.00  0.00    +0.004 C 
ATOM     23  C   UNL     1      -1.433  -0.534   0.017  0.00  0.00    +0.009 C 
ATOM     24  C   UNL     1      -1.414  -2.064  -0.025  0.00  0.00    +0.004 C 
ATOM     25  C   UNL     1      -0.690  -2.596   1.216  0.00  0.00    +0.111 C 
ATOM     26  N   UNL     1       0.641  -1.977   1.287  0.00  0.00    -0.300 N 
ATOM     27  C   UNL     1       0.743  -0.512   1.243  0.00  0.00    +0.111 C 
ATOM     28  C   UNL     1       1.748  -2.739   1.392  0.00  0.00    +0.234 C 
ATOM     29  O   UNL     1       1.651  -3.948   1.428  0.00  0.00    -0.274 OA
ATOM     30  C   UNL     1      -0.681  -2.532  -1.284  0.00  0.00    +0.009 C 
ENDBRANCH  20  28
ENDBRANCH   1  20
TORSDOF 3
