REMARK  Name = ZINC21746577
REMARK  8 active torsions:
REMARK  status: ('A' for Active; 'I' for Inactive)
REMARK    1  A    between atoms: C_1  and  C_2
REMARK    2  A    between atoms: C_5  and  C_8
REMARK    3  A    between atoms: N_13  and  C_14
REMARK    4  A    between atoms: C_14  and  C_15
REMARK    5  A    between atoms: C_21  and  C_23
REMARK    6  A    between atoms: C_23  and  C_24
REMARK    7  A    between atoms: C_24  and  C_25
REMARK    8  A    between atoms: C_24  and  C_26
REMARK                            x       y       z     vdW  Elec       q    Type
REMARK                         _______ _______ _______ _____ _____    ______ ____
ROOT
ATOM      1  C   UNL     1       0.935  -4.658   2.333  0.00  0.00    +0.221 C 
ENDROOT
BRANCH   1   2
ATOM      2  C   UNL     1      -0.214  -4.656   3.308  0.00  0.00    +0.239 C 
ATOM      3  O   UNL     1      -1.326  -4.969   2.936  0.00  0.00    -0.273 OA
ATOM      4  N   UNL     1      -0.007  -4.308   4.593  0.00  0.00    -0.262 N 
ATOM      5  C   UNL     1      -1.067  -4.307   5.493  0.00  0.00    +0.188 A 
ATOM      6  N   UNL     1      -2.332  -4.616   5.288  0.00  0.00    -0.126 NA
ATOM      7  N   UNL     1      -3.191  -4.567   6.214  0.00  0.00    -0.145 NA
ATOM      8  C   UNL     1      -2.811  -4.196   7.421  0.00  0.00    +0.104 A 
ATOM      9  S   UNL     1      -1.069  -3.916   7.133  0.00  0.00    -0.035 S 
ATOM     10  H   UNL     1       0.882  -4.058   4.891  0.00  0.00    +0.157 HD
BRANCH   8  11
ATOM     11  C   UNL     1      -3.617  -4.053   8.686  0.00  0.00    +0.068 C 
BRANCH  11  12
ATOM     12  C   UNL     1      -3.607  -5.380   9.449  0.00  0.00    -0.011 C 
ATOM     13  C   UNL     1      -4.319  -5.201  10.792  0.00  0.00    +0.007 C 
ATOM     14  C   UNL     1      -4.331  -6.447   8.626  0.00  0.00    +0.007 C 
ENDBRANCH  11  12
ENDBRANCH   8  11
ENDBRANCH   1   2
BRANCH   1  20
ATOM     15  C   UNL     1       0.006  -4.253  -0.001  0.00  0.00    +0.165 A 
ATOM     16  N   UNL     1      -0.323  -5.032  -1.006  0.00  0.00    -0.128 NA
ATOM     17  N   UNL     1      -0.118  -6.261  -0.694  0.00  0.00    -0.121 NA
ATOM     18  C   UNL     1       0.353  -6.344   0.531  0.00  0.00    +0.203 A 
ATOM     19  S   UNL     1       0.783  -7.822   1.388  0.00  0.00    -0.009 SA
ATOM     20  N   UNL     1       0.454  -5.069   1.012  0.00  0.00    -0.293 N 
BRANCH  15  25
ATOM     21  C   UNL     1      -0.341   1.489   0.132  0.00  0.00    +0.044 C 
ATOM     22  C   UNL     1      -0.250  -0.015   0.097  0.00  0.00    -0.050 A 
ATOM     23  C   UNL     1      -0.231  -0.676  -1.118  0.00  0.00    +0.004 A 
ATOM     24  C   UNL     1      -0.147  -2.052  -1.157  0.00  0.00    +0.012 A 
ATOM     25  C   UNL     1      -0.083  -2.778   0.033  0.00  0.00    +0.019 A 
ATOM     26  C   UNL     1      -0.103  -2.105   1.256  0.00  0.00    +0.012 A 
ATOM     27  C   UNL     1      -0.180  -0.728   1.280  0.00  0.00    +0.004 A 
ENDBRANCH  15  25
ENDBRANCH   1  20
TORSDOF 5
