REMARK  Name = ZINC65503738
REMARK  5 active torsions:
REMARK  status: ('A' for Active; 'I' for Inactive)
REMARK    1  A    between atoms: C_1  and  C_2
REMARK    2  A    between atoms: C_2  and  C_3
REMARK    3  A    between atoms: C_4  and  C_5
REMARK    4  A    between atoms: C_4  and  C_6
REMARK    5  A    between atoms: C_14  and  C_18
REMARK                            x       y       z     vdW  Elec       q    Type
REMARK                         _______ _______ _______ _____ _____    ______ ____
ROOT
ATOM      1  C   UNL     1       2.669  -1.415  -2.337  0.00  0.00    +0.059 C 
ATOM      2  C   UNL     1       3.993  -0.672  -2.125  0.00  0.00    +0.108 C 
ATOM      3  C   UNL     1       5.040  -1.140  -3.095  0.00  0.00    +0.219 C 
ATOM      4  O   UNL     1       5.805  -0.328  -3.571  0.00  0.00    -0.275 OA
ATOM      5  N   UNL     1       5.155  -2.436  -3.455  0.00  0.00    -0.270 N 
ATOM      6  C   UNL     1       4.152  -3.321  -3.057  0.00  0.00    +0.125 A 
ATOM      7  C   UNL     1       2.972  -2.879  -2.525  0.00  0.00    +0.030 A 
ATOM      8  C   UNL     1       2.189  -3.998  -2.226  0.00  0.00    +0.133 A 
ATOM      9  N   UNL     1       2.866  -5.076  -2.584  0.00  0.00    -0.169 NA
ATOM     10  N   UNL     1       4.100  -4.666  -3.117  0.00  0.00    -0.263 N 
ATOM     11  H   UNL     1       4.791  -5.248  -3.468  0.00  0.00    +0.190 HD
ATOM     12  H   UNL     1       5.914  -2.743  -3.976  0.00  0.00    +0.156 HD
ENDROOT
BRANCH   8  13
ATOM     13  C   UNL     1       0.842  -3.979  -1.617  0.00  0.00    +0.155 A 
ATOM     14  C   UNL     1      -0.170  -4.845  -1.891  0.00  0.00    +0.051 A 
ATOM     15  C   UNL     1      -1.263  -4.460  -1.089  0.00  0.00    +0.042 A 
ATOM     16  C   UNL     1      -0.869  -3.389  -0.373  0.00  0.00    +0.196 A 
ATOM     17  O   UNL     1       0.405  -3.105  -0.690  0.00  0.00    -0.461 OA
ENDBRANCH   8  13
BRANCH   1  19
ATOM     18  C   UNL     1       0.607  -0.670  -1.264  0.00  0.00    -0.028 C 
ATOM     19  C   UNL     1       1.784  -1.229  -1.132  0.00  0.00    -0.069 C 
ATOM     20  C   UNL     1       2.252  -1.688   0.225  0.00  0.00    +0.039 C 
BRANCH  18  22
ATOM     21  C   UNL     1      -0.494   1.102   0.077  0.00  0.00    +0.008 C 
ATOM     22  C   UNL     1      -0.241  -0.402  -0.047  0.00  0.00    +0.024 C 
ENDBRANCH  18  22
ENDBRANCH   1  19
TORSDOF 3
