REMARK  Name = ZINC42362137
REMARK  6 active torsions:
REMARK  status: ('A' for Active; 'I' for Inactive)
REMARK    1  A    between atoms: C_1  and  N_2
REMARK    2  A    between atoms: N_2  and  C_3
REMARK    3  A    between atoms: N_2  and  C_10
REMARK    4  A    between atoms: C_3  and  C_4
REMARK    5  A    between atoms: C_13  and  N_20
REMARK    6  A    between atoms: C_14  and  C_16
REMARK                            x       y       z     vdW  Elec       q    Type
REMARK                         _______ _______ _______ _____ _____    ______ ____
ROOT
ATOM      1  C   UNL     1       0.000  -0.698  -1.214  0.00  0.00    +0.030 A 
ATOM      2  C   UNL     1       0.013  -2.086  -1.222  0.00  0.00    +0.025 A 
ATOM      3  C   UNL     1       0.011  -2.770  -2.421  0.00  0.00    +0.025 A 
ATOM      4  C   UNL     1      -0.004  -2.069  -3.620  0.00  0.00    +0.036 A 
ATOM      5  C   UNL     1      -0.017  -0.681  -3.613  0.00  0.00    +0.077 A 
ATOM      6  C   UNL     1      -0.021   0.003  -2.413  0.00  0.00    +0.037 A 
ENDROOT
BRANCH   5   7
ATOM      7  C   UNL     1      -0.032   0.080  -4.913  0.00  0.00    +0.419 C 
ATOM      8  F   UNL     1      -0.044   1.454  -4.650  0.00  0.00    -0.166 F 
ATOM      9  F   UNL     1       1.108  -0.244  -5.656  0.00  0.00    -0.166 F 
ATOM     10  F   UNL     1      -1.176  -0.265  -5.642  0.00  0.00    -0.166 F 
ENDBRANCH   5   7
BRANCH   4  11
ATOM     11  N   UNL     1      -0.005  -2.763  -4.836  0.00  0.00    -0.358 N 
ATOM     12  H   UNL     1       0.005  -3.733  -4.842  0.00  0.00    +0.142 HD
ATOM     13  H   UNL     1      -0.015  -2.273  -5.674  0.00  0.00    +0.142 HD
ENDBRANCH   4  11
BRANCH   1  15
ATOM     14  C   UNL     1      -0.018   1.461   0.010  0.00  0.00    +0.129 C 
ATOM     15  N   UNL     1       0.002  -0.004   0.002  0.00  0.00    -0.329 N 
BRANCH  15  16
ATOM     16  C   UNL     1       0.024  -0.743   1.267  0.00  0.00    +0.140 C 
BRANCH  16  17
ATOM     17  C   UNL     1      -1.389  -1.016   1.714  0.00  0.00    -0.022 A 
ATOM     18  C   UNL     1      -2.057  -0.112   2.519  0.00  0.00    +0.028 A 
ATOM     19  C   UNL     1      -3.328  -0.389   2.903  0.00  0.00    +0.055 A 
ATOM     20  S   UNL     1      -3.616  -1.966   2.119  0.00  0.00    -0.090 S 
ATOM     21  C   UNL     1      -2.026  -2.148   1.328  0.00  0.00    +0.051 A 
ATOM     22 BR   UNL     1      -4.492   0.632   3.989  0.00  0.00    -0.043 Br
ENDBRANCH  16  17
ENDBRANCH  15  16
ENDBRANCH   1  15
TORSDOF 5
