REMARK  Name = ZINC20872889
REMARK  10 active torsions:
REMARK  status: ('A' for Active; 'I' for Inactive)
REMARK    1  A    between atoms: C_1  and  C_2
REMARK    2  A    between atoms: C_2  and  C_3
REMARK    3  A    between atoms: C_2  and  C_4
REMARK    4  A    between atoms: C_2  and  N_5
REMARK    5  A    between atoms: C_6  and  C_8
REMARK    6  A    between atoms: C_8  and  O_9
REMARK    7  A    between atoms: O_9  and  C_10
REMARK    8  A    between atoms: C_19  and  C_20
REMARK    9  A    between atoms: C_20  and  N_21
REMARK   10  A    between atoms: N_21  and  C_22
REMARK                            x       y       z     vdW  Elec       q    Type
REMARK                         _______ _______ _______ _____ _____    ______ ____
ROOT
ATOM      1  C   UNL     1       1.067   5.942   0.022  0.00  0.00    +0.123 A 
ATOM      2  C   UNL     1       2.292   5.268   0.007  0.00  0.00    +0.046 A 
ATOM      3  C   UNL     1       2.342   3.909   0.000  0.00  0.00    +0.012 A 
ATOM      4  C   UNL     1       1.148   3.167   0.008  0.00  0.00    -0.017 A 
ATOM      5  C   UNL     1       1.163   1.762   0.000  0.00  0.00    +0.008 A 
ATOM      6  C   UNL     1      -0.013   1.076   0.008  0.00  0.00    +0.001 A 
ATOM      7  C   UNL     1      -1.235   1.746   0.018  0.00  0.00    +0.001 A 
ATOM      8  C   UNL     1      -1.288   3.105   0.031  0.00  0.00    +0.009 A 
ATOM      9  C   UNL     1      -0.095   3.849   0.024  0.00  0.00    -0.013 A 
ATOM     10  C   UNL     1      -0.112   5.253   0.030  0.00  0.00    -0.015 A 
ENDROOT
BRANCH   1  11
ATOM     11  O   UNL     1       1.050   7.301   0.030  0.00  0.00    -0.483 OA
BRANCH  11  12
ATOM     12  C   UNL     1       2.315   7.966   0.021  0.00  0.00    +0.324 C 
BRANCH  12  14
ATOM     13  N   UNL     1       3.156  10.292   0.025  0.00  0.00    -0.308 N 
ATOM     14  C   UNL     1       2.098   9.457   0.031  0.00  0.00    +0.251 C 
ATOM     15  O   UNL     1       0.972   9.906   0.044  0.00  0.00    -0.272 OA
ATOM     16  H   UNL     1       4.178   9.885   0.013  0.00  0.00    +0.149 HD
BRANCH  13  18
ATOM     17  C   UNL     1       2.171  12.136   1.293  0.00  0.00    +0.031 C 
ATOM     18  C   UNL     1       2.946  11.742   0.034  0.00  0.00    +0.026 C 
ATOM     19  C   UNL     1       4.300  12.454   0.025  0.00  0.00    +0.031 C 
ATOM     20  C   UNL     1       2.147  12.149  -1.205  0.00  0.00    +0.031 C 
ENDBRANCH  13  18
ENDBRANCH  12  14
ENDBRANCH  11  12
ENDBRANCH   1  11
BRANCH  10  21
ATOM     21  C   UNL     1      -1.423   5.995   0.046  0.00  0.00    -0.042 C 
BRANCH  21  22
ATOM     22  N   UNL     1      -1.862   6.242  -1.334  0.00  0.00    +0.384 N 
ATOM     23  H   UNL     1      -1.106   6.846  -1.857  0.00  0.00    -0.085 HD
ATOM     24  H   UNL     1      -1.990   5.283  -1.855  0.00  0.00    -0.085 HD
BRANCH  22  25
ATOM     25  C   UNL     1      -3.141   6.966  -1.357  0.00  0.00    -0.065 C 
ATOM     26  C   UNL     1      -4.294   5.968  -1.239  0.00  0.00    -0.024 C 
ATOM     27  C   UNL     1      -5.625   6.721  -1.264  0.00  0.00    +0.005 C 
ATOM     28  C   UNL     1      -5.751   7.491  -2.580  0.00  0.00    -0.010 C 
ATOM     29  C   UNL     1      -5.698   6.510  -3.752  0.00  0.00    +0.007 C 
ATOM     30  C   UNL     1      -4.367   5.756  -3.728  0.00  0.00    -0.010 C 
ATOM     31  C   UNL     1      -4.241   4.986  -2.412  0.00  0.00    +0.005 C 
ATOM     32  C   UNL     1      -3.214   6.755  -3.846  0.00  0.00    +0.005 C 
ATOM     33  C   UNL     1      -3.266   7.736  -2.674  0.00  0.00    -0.024 C 
ATOM     34  C   UNL     1      -4.598   8.490  -2.698  0.00  0.00    +0.005 C 
ENDBRANCH  22  25
ENDBRANCH  21  22
ENDBRANCH  10  21
TORSDOF 7
