REMARK  Name = ZINC13464741
REMARK  6 active torsions:
REMARK  status: ('A' for Active; 'I' for Inactive)
REMARK    1  A    between atoms: C_1  and  C_2
REMARK    2  A    between atoms: C_3  and  S_8
REMARK    3  A    between atoms: C_4  and  C_7
REMARK    4  A    between atoms: S_8  and  N_11
REMARK    5  A    between atoms: N_11  and  C_12
REMARK    6  A    between atoms: C_17  and  C_18
REMARK                            x       y       z     vdW  Elec       q    Type
REMARK                         _______ _______ _______ _____ _____    ______ ____
ROOT
ATOM      1  N   UNL     1      -2.420   1.046   0.019  0.00  0.00    -0.215 N 
ATOM      2  H   UNL     1      -3.173   1.378  -0.494  0.00  0.00    +0.174 HD
ENDROOT
BRANCH   1   3
ATOM      3  C   UNL     1      -1.279   1.824   0.160  0.00  0.00    +0.062 A 
ATOM      4  C   UNL     1      -0.025   1.225   0.186  0.00  0.00    +0.026 A 
ATOM      5  C   UNL     1       1.108   2.001   0.320  0.00  0.00    +0.016 A 
ATOM      6  C   UNL     1       1.007   3.379   0.435  0.00  0.00    +0.014 A 
ATOM      7  C   UNL     1      -0.228   3.990   0.416  0.00  0.00    +0.031 A 
ATOM      8  C   UNL     1      -1.386   3.218   0.281  0.00  0.00    +0.086 A 
ATOM      9  I   UNL     1       2.740   4.538   0.638  0.00  0.00    -0.044 I 
BRANCH   8  10
ATOM     10  C   UNL     1      -2.709   3.865   0.260  0.00  0.00    +0.388 C 
ATOM     11  O   UNL     1      -3.713   3.190   0.143  0.00  0.00    -0.241 OA
ATOM     12  O   UNL     1      -2.806   5.204   0.372  0.00  0.00    -0.241 OA
ENDBRANCH   8  10
ENDBRANCH   1   3
BRANCH   1  13
ATOM     13  S   UNL     1      -2.496  -0.449   0.729  0.00  0.00    +0.077 S 
ATOM     14  O   UNL     1      -3.806  -0.946   0.489  0.00  0.00    -0.150 OA
ATOM     15  O   UNL     1      -1.329  -1.151   0.323  0.00  0.00    -0.150 OA
BRANCH  13  18
ATOM     16  C   UNL     1      -4.877   0.069   3.109  0.00  0.00    +0.071 C 
ATOM     17  C   UNL     1      -3.401   0.004   3.402  0.00  0.00    +0.107 A 
ATOM     18  C   UNL     1      -2.360  -0.207   2.469  0.00  0.00    +0.173 A 
ATOM     19  C   UNL     1      -1.235  -0.186   3.222  0.00  0.00    +0.161 A 
ATOM     20  O   UNL     1      -1.628   0.030   4.485  0.00  0.00    -0.358 OA
ATOM     21  N   UNL     1      -2.830   0.130   4.566  0.00  0.00    -0.081 NA
ATOM     22  C   UNL     1       0.180  -0.368   2.736  0.00  0.00    +0.091 C 
ENDBRANCH  13  18
ENDBRANCH   1  13
TORSDOF 4
