REMARK  Name = ZINC30032285
REMARK  6 active torsions:
REMARK  status: ('A' for Active; 'I' for Inactive)
REMARK    1  A    between atoms: C_1  and  N_2
REMARK    2  A    between atoms: N_2  and  C_3
REMARK    3  A    between atoms: C_3  and  C_4
REMARK    4  A    between atoms: C_15  and  C_17
REMARK    5  A    between atoms: C_20  and  N_22
REMARK    6  A    between atoms: C_23  and  C_25
REMARK                            x       y       z     vdW  Elec       q    Type
REMARK                         _______ _______ _______ _____ _____    ______ ____
ROOT
ATOM      1  C   UNL     1      -0.079   1.461   0.013  0.00  0.00    +0.133 C 
ATOM      2  N   UNL     1      -0.019  -0.003   0.003  0.00  0.00    -0.293 N 
ATOM      3  C   UNL     1      -0.102  -0.673  -1.163  0.00  0.00    +0.253 C 
ATOM      4  O   UNL     1      -0.157  -1.889  -1.164  0.00  0.00    -0.269 OA
ENDROOT
BRANCH   3   5
ATOM      5  C   UNL     1      -0.124   0.060  -2.427  0.00  0.00    +0.076 A 
ATOM      6  C   UNL     1      -0.323  -0.424  -3.713  0.00  0.00    +0.022 A 
ATOM      7  C   UNL     1      -0.290   0.509  -4.717  0.00  0.00    +0.032 A 
ATOM      8  C   UNL     1      -0.068   1.826  -4.386  0.00  0.00    +0.073 A 
ATOM      9  S   UNL     1       0.090   1.806  -2.713  0.00  0.00    -0.069 S 
BRANCH   8  10
ATOM     10  N   UNL     1       0.004   2.920  -5.237  0.00  0.00    -0.273 N 
ATOM     11  C   UNL     1       0.230   4.151  -4.736  0.00  0.00    +0.284 C 
ATOM     12  O   UNL     1       0.372   4.303  -3.536  0.00  0.00    -0.266 OA
ATOM     13  H   UNL     1      -0.110   2.799  -6.193  0.00  0.00    +0.156 HD
BRANCH  11  14
ATOM     14  C   UNL     1       0.306   5.306  -5.635  0.00  0.00    +0.189 A 
ATOM     15  C   UNL     1       0.534   6.600  -5.261  0.00  0.00    +0.054 A 
ATOM     16  C   UNL     1       0.524   7.367  -6.437  0.00  0.00    +0.042 A 
ATOM     17  C   UNL     1       0.293   6.518  -7.463  0.00  0.00    +0.196 A 
ATOM     18  O   UNL     1       0.168   5.277  -6.976  0.00  0.00    -0.458 OA
ENDBRANCH  11  14
ENDBRANCH   8  10
ENDBRANCH   3   5
BRANCH   2  19
ATOM     19  C   UNL     1       0.130  -0.738   1.261  0.00  0.00    +0.182 C 
BRANCH  19  20
ATOM     20  C   UNL     1      -1.232  -1.049   1.826  0.00  0.00    +0.128 A 
ATOM     21  N   UNL     1      -1.305  -1.727   3.002  0.00  0.00    -0.309 N 
ATOM     22  H   UNL     1      -0.495  -2.000   3.460  0.00  0.00    +0.170 HD
ATOM     23  C   UNL     1      -2.520  -2.017   3.527  0.00  0.00    +0.266 A 
ATOM     24  O   UNL     1      -2.619  -2.623   4.580  0.00  0.00    -0.267 OA
ATOM     25  C   UNL     1      -3.654  -1.601   2.829  0.00  0.00    +0.102 A 
ATOM     26  C   UNL     1      -3.551  -0.901   1.614  0.00  0.00    +0.085 A 
ATOM     27  N   UNL     1      -2.276  -0.653   1.170  0.00  0.00    -0.232 NA
ATOM     28  C   UNL     1      -4.769  -0.544   1.019  0.00  0.00    +0.036 A 
ATOM     29  C   UNL     1      -5.937  -0.872   1.611  0.00  0.00    +0.048 A 
ATOM     30  S   UNL     1      -5.404  -1.729   3.084  0.00  0.00    -0.090 S 
ENDBRANCH  19  20
ENDBRANCH   2  19
TORSDOF 5
