REMARK  Name = ZINC00643581
REMARK  6 active torsions:
REMARK  status: ('A' for Active; 'I' for Inactive)
REMARK    1  A    between atoms: C_1  and  C_2
REMARK    2  A    between atoms: C_2  and  C_25
REMARK    3  A    between atoms: C_7  and  N_8
REMARK    4  A    between atoms: C_11  and  C_14
REMARK    5  A    between atoms: C_17  and  O_20
REMARK    6  A    between atoms: O_20  and  C_21
REMARK                            x       y       z     vdW  Elec       q    Type
REMARK                         _______ _______ _______ _____ _____    ______ ____
ROOT
ATOM      1  N   UNL     1       2.296  -2.821  -0.035  0.00  0.00    -0.299 N 
ATOM      2  C   UNL     1       1.194  -1.976  -0.020  0.00  0.00    +0.163 A 
ATOM      3  N   UNL     1       1.154  -0.656  -0.018  0.00  0.00    -0.225 NA
ATOM      4  C   UNL     1       0.002  -0.004   0.002  0.00  0.00    +0.080 A 
ATOM      5  C   UNL     1      -1.169  -0.710   0.009  0.00  0.00    +0.076 A 
ATOM      6  S   UNL     1      -0.545  -2.386  -0.005  0.00  0.00    -0.060 S 
ATOM      7  H   UNL     1       3.192  -2.450  -0.041  0.00  0.00    +0.154 HD
ENDROOT
BRANCH   1  14
ATOM      8  C   UNL     1       6.371  -7.420   1.350  0.00  0.00    +0.104 C 
ATOM      9  C   UNL     1       5.420  -6.693   0.398  0.00  0.00    +0.255 C 
ATOM     10  O   UNL     1       4.057  -7.147   0.633  0.00  0.00    -0.419 OA
ATOM     11  C   UNL     1       3.092  -6.481  -0.061  0.00  0.00    +0.350 C 
ATOM     12  O   UNL     1       2.195  -7.058  -0.645  0.00  0.00    -0.245 OA
ATOM     13  C   UNL     1       3.215  -5.001  -0.054  0.00  0.00    +0.157 C 
ATOM     14  C   UNL     1       2.119  -4.160  -0.040  0.00  0.00    +0.096 C 
ATOM     15  C   UNL     1       4.613  -4.500  -0.071  0.00  0.00    +0.350 C 
ATOM     16  O   UNL     1       4.935  -3.487  -0.663  0.00  0.00    -0.245 OA
ATOM     17  O   UNL     1       5.506  -5.258   0.630  0.00  0.00    -0.419 OA
ATOM     18  C   UNL     1       5.816  -6.999  -1.048  0.00  0.00    +0.104 C 
ENDBRANCH   1  14
BRANCH   4  19
ATOM     19  C   UNL     1      -0.018   1.479   0.010  0.00  0.00    +0.001 A 
ATOM     20  C   UNL     1      -1.234   2.161   0.020  0.00  0.00    +0.013 A 
ATOM     21  C   UNL     1      -1.249   3.540   0.033  0.00  0.00    +0.046 A 
ATOM     22  C   UNL     1      -0.056   4.249   0.026  0.00  0.00    +0.120 A 
ATOM     23  C   UNL     1       1.157   3.573   0.010  0.00  0.00    +0.046 A 
ATOM     24  C   UNL     1       1.179   2.194   0.003  0.00  0.00    +0.013 A 
BRANCH  22  25
ATOM     25  O   UNL     1      -0.074   5.608   0.034  0.00  0.00    -0.495 OA
ATOM     26  C   UNL     1      -1.356   6.239   0.050  0.00  0.00    +0.277 C 
ENDBRANCH  22  25
ENDBRANCH   4  19
TORSDOF 3
