REMARK  Name = ZINC40312802
REMARK  11 active torsions:
REMARK  status: ('A' for Active; 'I' for Inactive)
REMARK    1  A    between atoms: C_1  and  C_2
REMARK    2  A    between atoms: C_2  and  C_3
REMARK    3  A    between atoms: C_2  and  C_4
REMARK    4  A    between atoms: C_7  and  C_10
REMARK    5  A    between atoms: C_10  and  C_12
REMARK    6  A    between atoms: C_10  and  O_29
REMARK    7  A    between atoms: C_12  and  N_25
REMARK    8  A    between atoms: N_19  and  C_22
REMARK    9  A    between atoms: C_22  and  C_23
REMARK   10  A    between atoms: C_22  and  C_24
REMARK   11  A    between atoms: C_26  and  C_28
REMARK                            x       y       z     vdW  Elec       q    Type
REMARK                         _______ _______ _______ _____ _____    ______ ____
ROOT
ATOM      1  C   UNL     1       2.212  -3.273  -5.102  0.00  0.00    +0.169 C 
ATOM      2  C   UNL     1       2.973  -3.823  -6.286  0.00  0.00    +0.009 A 
ATOM      3  C   UNL     1       3.099  -3.407  -7.593  0.00  0.00    +0.008 A 
ATOM      4  C   UNL     1       3.884  -4.130  -8.474  0.00  0.00    +0.000 A 
ATOM      5  C   UNL     1       4.537  -5.268  -8.039  0.00  0.00    +0.002 A 
ATOM      6  C   UNL     1       4.412  -5.687  -6.731  0.00  0.00    +0.024 A 
ATOM      7  C   UNL     1       3.624  -4.965  -5.837  0.00  0.00    +0.042 A 
ATOM      8  N   UNL     1       3.344  -5.180  -4.487  0.00  0.00    -0.266 N 
ATOM      9  C   UNL     1       2.528  -4.241  -3.981  0.00  0.00    +0.251 C 
ATOM     10  O   UNL     1       2.122  -4.178  -2.840  0.00  0.00    -0.272 OA
ENDROOT
BRANCH   1  11
ATOM     11  N   UNL     1       0.773  -3.256  -5.375  0.00  0.00    -0.296 N 
ATOM     12  C   UNL     1       0.136  -4.398  -5.704  0.00  0.00    +0.211 C 
ATOM     13  O   UNL     1       0.754  -5.439  -5.773  0.00  0.00    -0.276 OA
ATOM     14  C   UNL     1      -1.345  -4.380  -5.985  0.00  0.00    +0.109 C 
ATOM     15  H   UNL     1       0.278  -2.424  -5.319  0.00  0.00    +0.150 HD
ENDBRANCH   1  11
BRANCH   8  16
ATOM     16  C   UNL     1       3.878  -6.303  -3.712  0.00  0.00    +0.075 C 
ATOM     17  C   UNL     1       4.705  -5.766  -2.542  0.00  0.00    +0.028 C 
ATOM     18  C   UNL     1       2.721  -7.147  -3.174  0.00  0.00    +0.028 C 
ENDBRANCH   8  16
BRANCH   1  19
ATOM     19  C   UNL     1       2.707  -1.868  -4.752  0.00  0.00    +0.181 C 
BRANCH  19  23
ATOM     20  C   UNL     1       0.707  -0.490  -1.238  0.00  0.00    -0.045 A 
ATOM     21  C   UNL     1       0.222  -0.151  -2.487  0.00  0.00    +0.004 A 
ATOM     22  C   UNL     1       0.869  -0.597  -3.624  0.00  0.00    +0.006 A 
ATOM     23  C   UNL     1       2.002  -1.381  -3.513  0.00  0.00    -0.016 A 
ATOM     24  C   UNL     1       2.488  -1.720  -2.263  0.00  0.00    +0.006 A 
ATOM     25  C   UNL     1       1.843  -1.270  -1.126  0.00  0.00    +0.004 A 
BRANCH  20  27
ATOM     26  C   UNL     1      -0.019   1.526   0.010  0.00  0.00    +0.012 C 
ATOM     27  C   UNL     1       0.002  -0.004   0.002  0.00  0.00    +0.013 C 
ATOM     28  C   UNL     1      -1.433  -0.534   0.013  0.00  0.00    +0.012 C 
ENDBRANCH  20  27
ENDBRANCH  19  23
BRANCH  19  29
ATOM     29  O   UNL     1       4.115  -1.904  -4.516  0.00  0.00    -0.384 OA
ATOM     30  H   UNL     1       4.378  -2.487  -3.791  0.00  0.00    +0.210 HD
ENDBRANCH  19  29
ENDBRANCH   1  19
TORSDOF 6
