REMARK  Name = ZINC39669029
REMARK  4 active torsions:
REMARK  status: ('A' for Active; 'I' for Inactive)
REMARK    1  A    between atoms: C_10  and  C_12
REMARK    2  A    between atoms: C_12  and  N_13
REMARK    3  A    between atoms: C_14  and  C_16
REMARK    4  A    between atoms: C_27  and  C_29
REMARK                            x       y       z     vdW  Elec       q    Type
REMARK                         _______ _______ _______ _____ _____    ______ ____
ROOT
ATOM      1  C   UNL     1       8.277  -0.941  -1.856  0.00  0.00    +0.100 C 
ATOM      2  C   UNL     1       9.006  -0.734  -0.509  0.00  0.00    +0.121 C 
ATOM      3  N   UNL     1      10.434  -0.584  -0.876  0.00  0.00    -0.295 N 
ATOM      4  C   UNL     1      10.413   0.227  -2.117  0.00  0.00    +0.115 C 
ATOM      5  C   UNL     1       9.203  -0.308  -2.908  0.00  0.00    -0.004 C 
ATOM      6  C   UNL     1       8.490   0.838  -3.619  0.00  0.00    -0.010 C 
ATOM      7  C   UNL     1       9.409   1.412  -4.700  0.00  0.00    -0.082 C 
ATOM      8  N   UNL     1       9.760   0.357  -5.659  0.00  0.00    +0.379 N 
ATOM      9  C   UNL     1      10.527  -0.697  -4.985  0.00  0.00    -0.082 C 
ATOM     10  C   UNL     1       9.654  -1.361  -3.916  0.00  0.00    -0.010 C 
ATOM     11  C   UNL     1      11.509  -1.076  -0.228  0.00  0.00    +0.265 C 
ATOM     12  O   UNL     1      12.628  -0.796  -0.609  0.00  0.00    -0.268 OA
ATOM     13  H   UNL     1       8.916  -0.038  -6.046  0.00  0.00    -0.086 HD
ATOM     14  H   UNL     1      10.315   0.752  -6.403  0.00  0.00    -0.086 HD
ENDROOT
BRANCH  11  15
ATOM     15  C   UNL     1      11.326  -1.957   0.949  0.00  0.00    +0.126 A 
ATOM     16  C   UNL     1      12.436  -2.370   1.682  0.00  0.00    +0.033 A 
ATOM     17  C   UNL     1      12.249  -3.194   2.780  0.00  0.00    +0.004 A 
ATOM     18  C   UNL     1      10.957  -3.576   3.108  0.00  0.00    +0.020 A 
ATOM     19  C   UNL     1       9.899  -3.127   2.334  0.00  0.00    +0.111 A 
ATOM     20  N   UNL     1      10.105  -2.341   1.300  0.00  0.00    -0.250 NA
ENDBRANCH  11  15
BRANCH   1  22
ATOM     21  N   UNL     1       5.976  -0.616  -2.705  0.00  0.00    -0.312 N 
ATOM     22  C   UNL     1       6.942  -0.241  -1.843  0.00  0.00    +0.218 C 
ATOM     23  O   UNL     1       6.737   0.660  -1.057  0.00  0.00    -0.275 OA
ATOM     24  H   UNL     1       6.140  -1.336  -3.334  0.00  0.00    +0.149 HD
BRANCH  21  25
ATOM     25  C   UNL     1       4.679   0.065  -2.692  0.00  0.00    +0.140 C 
BRANCH  25  35
ATOM     26  C   UNL     1      -0.017   1.430  -3.642  0.00  0.00    +0.000 A 
ATOM     27  C   UNL     1       0.620   1.064  -2.471  0.00  0.00    +0.000 A 
ATOM     28  C   UNL     1       1.843   0.426  -2.523  0.00  0.00    +0.006 A 
ATOM     29  C   UNL     1       2.438   0.154  -3.745  0.00  0.00    -0.014 A 
ATOM     30  C   UNL     1       1.805   0.523  -4.913  0.00  0.00    -0.040 A 
ATOM     31  C   UNL     1       0.575   1.159  -4.860  0.00  0.00    +0.004 A 
ATOM     32  C   UNL     1       2.425   0.255  -6.260  0.00  0.00    +0.063 C 
ATOM     33  C   UNL     1       3.530  -0.793  -6.122  0.00  0.00    +0.165 C 
ATOM     34  O   UNL     1       4.387  -0.410  -5.040  0.00  0.00    -0.370 OA
ATOM     35  C   UNL     1       3.771  -0.548  -3.760  0.00  0.00    +0.165 C 
ENDBRANCH  25  35
ENDBRANCH  21  25
ENDBRANCH   1  22
TORSDOF 4
