REMARK  Name = ZINC02768811
REMARK  10 active torsions:
REMARK  status: ('A' for Active; 'I' for Inactive)
REMARK    1  A    between atoms: C_1  and  C_2
REMARK    2  A    between atoms: C_2  and  C_3
REMARK    3  A    between atoms: C_3  and  C_4
REMARK    4  A    between atoms: C_3  and  C_5
REMARK    5  A    between atoms: C_3  and  C_6
REMARK    6  A    between atoms: C_13  and  N_17
REMARK    7  A    between atoms: C_14  and  C_15
REMARK    8  A    between atoms: C_18  and  C_20
REMARK    9  A    between atoms: C_24  and  C_32
REMARK   10  A    between atoms: C_26  and  C_29
REMARK                            x       y       z     vdW  Elec       q    Type
REMARK                         _______ _______ _______ _____ _____    ______ ____
ROOT
ATOM      1  N   UNL     1       1.839  -3.303  -3.443  0.00  0.00    -0.272 N 
ATOM      2  C   UNL     1       2.735  -3.398  -4.446  0.00  0.00    +0.288 C 
ATOM      3  O   UNL     1       3.415  -2.436  -4.746  0.00  0.00    -0.266 OA
ATOM      4  H   UNL     1       1.296  -4.070  -3.204  0.00  0.00    +0.156 HD
ENDROOT
BRANCH   2   5
ATOM      5  C   UNL     1       2.889  -4.673  -5.182  0.00  0.00    +0.239 A 
ATOM      6  N   UNL     1       2.204  -5.792  -4.939  0.00  0.00    -0.185 NA
ATOM      7  C   UNL     1       2.586  -6.742  -5.781  0.00  0.00    +0.254 A 
ATOM      8  N   UNL     1       2.202  -8.016  -5.937  0.00  0.00    -0.216 NA
ATOM      9  C   UNL     1       2.746  -8.775  -6.859  0.00  0.00    +0.044 A 
ATOM     10  C   UNL     1       3.744  -8.263  -7.701  0.00  0.00    +0.052 A 
ATOM     11  C   UNL     1       4.140  -6.974  -7.551  0.00  0.00    +0.113 A 
ATOM     12  N   UNL     1       3.557  -6.211  -6.585  0.00  0.00    -0.195 N 
ATOM     13  N   UNL     1       3.731  -4.882  -6.178  0.00  0.00    -0.138 NA
ATOM     14  C   UNL     1       2.297 -10.205  -7.015  0.00  0.00    +0.066 C 
BRANCH  11  15
ATOM     15  C   UNL     1       5.211  -6.395  -8.440  0.00  0.00    +0.390 C 
ATOM     16  F   UNL     1       4.691  -5.306  -9.147  0.00  0.00    -0.202 F 
ATOM     17  F   UNL     1       6.289  -5.971  -7.657  0.00  0.00    -0.202 F 
ENDBRANCH  11  15
ENDBRANCH   2   5
BRANCH   1  24
ATOM     18  C   UNL     1       1.414   2.066  -0.000  0.00  0.00    -0.000 C 
ATOM     19  C   UNL     1      -0.019   1.526   0.010  0.00  0.00    +0.009 C 
ATOM     20  C   UNL     1       0.002  -0.004   0.002  0.00  0.00    +0.037 C 
ATOM     21  C   UNL     1       0.880  -0.476  -1.150  0.00  0.00    -0.018 A 
ATOM     22  C   UNL     1       1.771   0.357  -1.732  0.00  0.00    -0.004 A 
ATOM     23  S   UNL     1       2.542  -0.617  -2.995  0.00  0.00    -0.077 S 
ATOM     24  C   UNL     1       1.694  -2.108  -2.754  0.00  0.00    +0.090 A 
ATOM     25  C   UNL     1       0.836  -1.818  -1.703  0.00  0.00    +0.084 A 
ATOM     26  C   UNL     1       2.038   1.787  -1.376  0.00  0.00    +0.047 C 
BRANCH  18  27
ATOM     27  C   UNL     1       1.395   3.574   0.257  0.00  0.00    -0.032 C 
ATOM     28  C   UNL     1       0.582   4.268  -0.837  0.00  0.00    +0.011 C 
ATOM     29  C   UNL     1       0.758   3.851   1.620  0.00  0.00    +0.011 C 
BRANCH  27  31
ATOM     30  C   UNL     1       2.809   5.619   0.504  0.00  0.00    +0.004 C 
ATOM     31  C   UNL     1       2.828   4.111   0.246  0.00  0.00    +0.003 C 
ENDBRANCH  27  31
ENDBRANCH  18  27
BRANCH  25  32
ATOM     32  C   UNL     1      -0.061  -2.806  -1.183  0.00  0.00    +0.102 C 
ATOM     33  N   UNL     1      -0.772  -3.590  -0.770  0.00  0.00    -0.191 NA
ENDBRANCH  25  32
ENDBRANCH   1  24
TORSDOF 6
