REMARK  Name = ZINC19740345
REMARK  9 active torsions:
REMARK  status: ('A' for Active; 'I' for Inactive)
REMARK    1  A    between atoms: C_1  and  C_2
REMARK    2  A    between atoms: C_5  and  C_32
REMARK    3  A    between atoms: C_6  and  C_8
REMARK    4  A    between atoms: C_8  and  N_9
REMARK    5  A    between atoms: C_15  and  C_19
REMARK    6  A    between atoms: C_19  and  C_21
REMARK    7  A    between atoms: C_19  and  N_22
REMARK    8  A    between atoms: C_23  and  C_25
REMARK    9  A    between atoms: N_28  and  C_31
REMARK                            x       y       z     vdW  Elec       q    Type
REMARK                         _______ _______ _______ _____ _____    ______ ____
ROOT
ATOM      1  N   UNL     1       0.262  -0.498   1.361  0.00  0.00    -0.296 NA
ATOM      2  C   UNL     1      -0.846  -0.169   2.260  0.00  0.00    +0.092 C 
ATOM      3  C   UNL     1      -0.828  -1.112   3.467  0.00  0.00    +0.091 C 
ATOM      4  C   UNL     1      -1.624  -2.347   3.133  0.00  0.00    +0.135 A 
ATOM      5  N   UNL     1      -2.521  -2.939   3.866  0.00  0.00    -0.134 NA
ATOM      6  N   UNL     1      -2.962  -3.980   3.249  0.00  0.00    -0.132 NA
ATOM      7  C   UNL     1      -2.368  -4.090   2.090  0.00  0.00    +0.154 A 
ATOM      8  N   UNL     1      -1.517  -3.049   1.978  0.00  0.00    -0.312 N 
ATOM      9  C   UNL     1      -0.655  -2.714   0.845  0.00  0.00    +0.140 C 
ATOM     10  C   UNL     1       0.562  -1.934   1.350  0.00  0.00    +0.106 C 
ENDROOT
BRANCH   7  11
ATOM     11  C   UNL     1      -2.592  -5.176   1.069  0.00  0.00    +0.138 C 
ATOM     12  C   UNL     1      -1.912  -6.465   1.537  0.00  0.00    +0.036 C 
BRANCH  11  13
ATOM     13  N   UNL     1      -4.030  -5.412   0.914  0.00  0.00    -0.305 N 
ATOM     14  C   UNL     1      -4.508  -5.929  -0.235  0.00  0.00    +0.217 C 
ATOM     15  O   UNL     1      -3.749  -6.200  -1.141  0.00  0.00    -0.276 OA
ATOM     16  H   UNL     1      -4.719  -5.166   1.736  0.00  0.00    +0.149 HD
BRANCH  14  17
ATOM     17  C   UNL     1      -5.987  -6.171  -0.394  0.00  0.00    +0.071 C 
ATOM     18  C   UNL     1      -6.462  -7.160   0.674  0.00  0.00    -0.006 C 
ATOM     19  C   UNL     1      -7.951  -7.449   0.470  0.00  0.00    -0.078 C 
ATOM     20  N   UNL     1      -8.162  -8.010  -0.871  0.00  0.00    +0.378 N 
ATOM     21  C   UNL     1      -7.758  -7.060  -1.914  0.00  0.00    -0.078 C 
ATOM     22  C   UNL     1      -6.263  -6.759  -1.781  0.00  0.00    -0.006 C 
ATOM     23  C   UNL     1      -9.559  -8.428  -1.052  0.00  0.00    -0.096 C 
ATOM     24  H   UNL     1      -7.526  -8.902  -0.965  0.00  0.00    -0.082 HD
ENDBRANCH  14  17
ENDBRANCH  11  13
ENDBRANCH   7  11
BRANCH   1  25
ATOM     25  C   UNL     1       0.002  -0.004   0.002  0.00  0.00    +0.120 C 
BRANCH  25  31
ATOM     26  C   UNL     1      -2.559   4.295   0.048  0.00  0.00    +0.044 C 
ATOM     27  C   UNL     1      -1.244   3.560   0.032  0.00  0.00    -0.050 A 
ATOM     28  C   UNL     1      -0.056   4.267   0.025  0.00  0.00    +0.003 A 
ATOM     29  C   UNL     1       1.150   3.592   0.010  0.00  0.00    +0.004 A 
ATOM     30  C   UNL     1       1.169   2.210   0.003  0.00  0.00    -0.046 A 
ATOM     31  C   UNL     1      -0.018   1.503   0.010  0.00  0.00    -0.030 A 
ATOM     32  C   UNL     1      -1.225   2.178   0.020  0.00  0.00    +0.008 A 
ATOM     33  C   UNL     1       2.484   1.474  -0.014  0.00  0.00    +0.044 C 
ENDBRANCH  25  31
ENDBRANCH   1  25
TORSDOF 5
