REMARK  Name = ZINC08791791
REMARK  9 active torsions:
REMARK  status: ('A' for Active; 'I' for Inactive)
REMARK    1  A    between atoms: C_1  and  C_2
REMARK    2  A    between atoms: C_7  and  N_69
REMARK    3  A    between atoms: C_16  and  O_25
REMARK    4  A    between atoms: C_18  and  O_23
REMARK    5  A    between atoms: O_23  and  C_24
REMARK    6  A    between atoms: O_25  and  C_26
REMARK    7  A    between atoms: C_27  and  C_28
REMARK    8  A    between atoms: C_27  and  N_69
REMARK    9  A    between atoms: C_28  and  C_29
REMARK                            x       y       z     vdW  Elec       q    Type
REMARK                         _______ _______ _______ _____ _____    ______ ____
ROOT
ATOM      1  C   UNL     1      -3.101   0.100  -2.054  0.00  0.00    +0.052 C 
ATOM      2  C   UNL     1      -3.057   0.770  -0.683  0.00  0.00    +0.174 C 
ATOM      3  C   UNL     1      -2.956  -0.243   0.448  0.00  0.00    +0.044 C 
ATOM      4  C   UNL     1      -2.596  -1.648  -0.031  0.00  0.00    +0.002 C 
ATOM      5  C   UNL     1      -2.445  -2.571   1.182  0.00  0.00    -0.016 C 
ATOM      6  C   UNL     1      -1.056  -3.209   1.227  0.00  0.00    -0.072 C 
ATOM      7  C   UNL     1      -0.028  -2.185   1.699  0.00  0.00    -0.015 C 
ATOM      8  C   UNL     1       1.377  -2.561   1.232  0.00  0.00    +0.002 C 
ATOM      9  C   UNL     1       2.404  -1.629   1.893  0.00  0.00    +0.027 C 
ATOM     10  C   UNL     1       2.552  -0.381   1.059  0.00  0.00    -0.026 C 
ATOM     11  C   UNL     1       1.540   0.479   0.995  0.00  0.00    +0.005 C 
ATOM     12  C   UNL     1       1.618   1.698   0.174  0.00  0.00    -0.004 A 
ATOM     13  C   UNL     1       2.785   2.457   0.107  0.00  0.00    +0.054 A 
ATOM     14  C   UNL     1       2.772   3.670  -0.571  0.00  0.00    +0.124 A 
ATOM     15  C   UNL     1       1.604   4.143  -1.164  0.00  0.00    +0.092 A 
ATOM     16  C   UNL     1       0.446   3.379  -1.134  0.00  0.00    +0.138 A 
ATOM     17  C   UNL     1       0.458   2.128  -0.506  0.00  0.00    +0.108 A 
ATOM     18  C   UNL     1      -0.711   1.242  -0.505  0.00  0.00    +0.344 C 
ATOM     19  O   UNL     1      -0.528   0.047  -0.373  0.00  0.00    -0.245 OA
ATOM     20  O   UNL     1      -1.960   1.720  -0.629  0.00  0.00    -0.458 OA
ENDROOT
BRANCH   6  21
ATOM     21  N   UNL     1      -0.688  -3.739  -0.095  0.00  0.00    +0.381 N 
ATOM     22  H   UNL     1       0.327  -3.890  -0.128  0.00  0.00    -0.086 HD
ATOM     23  H   UNL     1      -0.958  -3.062  -0.818  0.00  0.00    -0.086 HD
BRANCH  21  24
ATOM     24  C   UNL     1      -1.379  -5.018  -0.344  0.00  0.00    -0.078 C 
BRANCH  24  25
ATOM     25  C   UNL     1      -1.058  -5.493  -1.763  0.00  0.00    +0.016 C 
BRANCH  25  26
ATOM     26  C   UNL     1      -1.760  -6.800  -2.026  0.00  0.00    -0.049 A 
ATOM     27  C   UNL     1      -1.127  -7.995  -1.737  0.00  0.00    +0.003 A 
ATOM     28  C   UNL     1      -1.772  -9.194  -1.975  0.00  0.00    +0.000 A 
ATOM     29  C   UNL     1      -3.047  -9.198  -2.510  0.00  0.00    +0.000 A 
ATOM     30  C   UNL     1      -3.678  -8.004  -2.803  0.00  0.00    +0.000 A 
ATOM     31  C   UNL     1      -3.034  -6.805  -2.562  0.00  0.00    +0.003 A 
ENDBRANCH  25  26
ENDBRANCH  24  25
ENDBRANCH  21  24
ENDBRANCH   6  21
BRANCH  16  32
ATOM     32  O   UNL     1      -0.687   3.851  -1.714  0.00  0.00    -0.494 OA
ATOM     33  C   UNL     1      -0.612   5.137  -2.332  0.00  0.00    +0.277 C 
ENDBRANCH  16  32
BRANCH  14  34
ATOM     34  O   UNL     1       3.907   4.410  -0.641  0.00  0.00    -0.495 OA
ATOM     35  C   UNL     1       3.827   5.656  -1.335  0.00  0.00    +0.277 C 
ENDBRANCH  14  34
TORSDOF 6
