REMARK  Name = ZINC07562849
REMARK  8 active torsions:
REMARK  status: ('A' for Active; 'I' for Inactive)
REMARK    1  A    between atoms: C_1  and  C_2
REMARK    2  A    between atoms: C_2  and  C_4
REMARK    3  A    between atoms: C_2  and  O_11
REMARK    4  A    between atoms: N_9  and  C_10
REMARK    5  A    between atoms: O_11  and  C_12
REMARK    6  A    between atoms: C_12  and  C_14
REMARK    7  A    between atoms: C_18  and  S_20
REMARK    8  A    between atoms: S_20  and  N_23
REMARK                            x       y       z     vdW  Elec       q    Type
REMARK                         _______ _______ _______ _____ _____    ______ ____
ROOT
ATOM      1  C   UNL     1      -0.369  -3.730  -0.441  0.00  0.00    +0.061 A 
ATOM      2  C   UNL     1       0.509  -3.570  -1.515  0.00  0.00    +0.015 A 
ATOM      3  C   UNL     1       0.245  -2.623  -2.482  0.00  0.00    +0.003 A 
ATOM      4  C   UNL     1      -0.890  -1.836  -2.393  0.00  0.00    +0.028 A 
ATOM      5  C   UNL     1      -1.761  -1.986  -1.329  0.00  0.00    +0.106 A 
ATOM      6  C   UNL     1      -1.509  -2.929  -0.354  0.00  0.00    +0.043 A 
ENDROOT
BRANCH   5   7
ATOM      7  S   UNL     1      -3.200  -0.975  -1.222  0.00  0.00    +0.061 S 
ATOM      8  O   UNL     1      -4.139  -1.686  -0.427  0.00  0.00    -0.153 OA
ATOM      9  O   UNL     1      -3.493  -0.544  -2.544  0.00  0.00    -0.153 OA
BRANCH   7  10
ATOM     10  N   UNL     1      -2.784   0.380  -0.365  0.00  0.00    -0.177 NA
ATOM     11  C   UNL     1      -2.281   1.542  -1.038  0.00  0.00    +0.109 C 
ATOM     12  C   UNL     1      -0.749   1.592  -1.257  0.00  0.00    +0.017 C 
ATOM     13  C   UNL     1      -0.013   1.086   0.008  0.00  0.00    +0.001 C 
ATOM     14  C   UNL     1      -0.703   1.564   1.253  0.00  0.00    +0.001 C 
ATOM     15  C   UNL     1      -1.581   0.401   1.701  0.00  0.00    +0.017 C 
ATOM     16  C   UNL     1      -2.928   0.411   1.129  0.00  0.00    +0.109 C 
ENDBRANCH   7  10
ENDBRANCH   5   7
BRANCH   1  17
ATOM     17  C   UNL     1      -0.092  -4.742   0.599  0.00  0.00    +0.340 C 
ATOM     18  O   UNL     1      -0.858  -4.879   1.532  0.00  0.00    -0.245 OA
BRANCH  17  19
ATOM     19  O   UNL     1       1.009  -5.513   0.513  0.00  0.00    -0.449 OA
BRANCH  19  21
ATOM     20  C   UNL     1       2.034  -5.850   2.696  0.00  0.00    +0.062 C 
ATOM     21  C   UNL     1       1.216  -6.487   1.570  0.00  0.00    +0.259 C 
BRANCH  21  22
ATOM     22  C   UNL     1       1.961  -7.675   1.019  0.00  0.00    +0.261 C 
ATOM     23  O   UNL     1       2.364  -7.661  -0.124  0.00  0.00    -0.271 OA
ATOM     24  N   UNL     1       2.179  -8.754   1.797  0.00  0.00    -0.237 N 
ATOM     25  C   UNL     1       2.845  -9.817   1.304  0.00  0.00    +0.306 C 
ATOM     26  O   UNL     1       3.249  -9.803   0.158  0.00  0.00    -0.252 OA
ATOM     27  N   UNL     1       3.063 -10.896   2.083  0.00  0.00    -0.302 N 
ATOM     28  C   UNL     1       3.787 -12.051   1.547  0.00  0.00    +0.129 C 
ATOM     29  H   UNL     1       1.857  -8.765   2.712  0.00  0.00    +0.159 HD
ATOM     30  H   UNL     1       2.740 -10.907   2.997  0.00  0.00    +0.150 HD
ENDBRANCH  21  22
ENDBRANCH  19  21
ENDBRANCH  17  19
ENDBRANCH   1  17
TORSDOF 6
