REMARK  Name = ZINC14456580
REMARK  5 active torsions:
REMARK  status: ('A' for Active; 'I' for Inactive)
REMARK    1  A    between atoms: C_1  and  C_2
REMARK    2  A    between atoms: C_5  and  C_7
REMARK    3  A    between atoms: C_20  and  C_23
REMARK    4  A    between atoms: N_25  and  C_26
REMARK    5  A    between atoms: C_26  and  C_27
REMARK                            x       y       z     vdW  Elec       q    Type
REMARK                         _______ _______ _______ _____ _____    ______ ____
ROOT
ATOM      1  C   UNL     1       2.565   1.272  -0.015  0.00  0.00    +0.112 C 
ATOM      2  C   UNL     1       3.167   1.378   1.371  0.00  0.00    +0.029 C 
ATOM      3  C   UNL     1       2.555   0.527   2.489  0.00  0.00    +0.033 C 
ATOM      4  C   UNL     1       3.767   0.303   3.398  0.00  0.00    -0.030 C 
ATOM      5  C   UNL     1       4.886   0.381   2.686  0.00  0.00    -0.023 C 
ATOM      6  C   UNL     1       4.527   0.620   1.267  0.00  0.00    +0.049 C 
ATOM      7  C   UNL     1       5.381   1.405   0.348  0.00  0.00    -0.019 A 
ATOM      8  C   UNL     1       6.749   1.458   0.500  0.00  0.00    +0.006 A 
ATOM      9  C   UNL     1       7.535   2.169  -0.392  0.00  0.00    +0.001 A 
ATOM     10  C   UNL     1       6.946   2.831  -1.448  0.00  0.00    +0.015 A 
ATOM     11  C   UNL     1       5.564   2.792  -1.613  0.00  0.00    +0.058 A 
ATOM     12  C   UNL     1       4.755   2.081  -0.702  0.00  0.00    +0.044 A 
ATOM     13  N   UNL     1       3.386   2.105  -0.908  0.00  0.00    -0.335 N 
ATOM     14  H   UNL     1       3.162   1.927  -1.876  0.00  0.00    +0.147 HD
ENDROOT
BRANCH   1  19
ATOM     15  C   UNL     1      -2.355   4.080   0.046  0.00  0.00    +0.051 C 
ATOM     16  C   UNL     1      -1.196   3.116   0.030  0.00  0.00    -0.013 A 
ATOM     17  C   UNL     1      -1.213   1.761   0.017  0.00  0.00    +0.011 A 
ATOM     18  C   UNL     1      -0.013   1.076   0.008  0.00  0.00    +0.013 A 
ATOM     19  C   UNL     1       1.146   1.780   0.001  0.00  0.00    +0.010 A 
ATOM     20  S   UNL     1       0.555   3.464   0.015  0.00  0.00    -0.097 S 
ENDBRANCH   1  19
BRANCH  11  21
ATOM     21  C   UNL     1       4.942   3.499  -2.748  0.00  0.00    +0.246 C 
ATOM     22  O   UNL     1       3.735   3.467  -2.897  0.00  0.00    -0.270 OA
ATOM     23  N   UNL     1       5.711   4.179  -3.622  0.00  0.00    -0.307 N 
ATOM     24  H   UNL     1       6.673   4.205  -3.503  0.00  0.00    +0.149 HD
BRANCH  23  25
ATOM     25  C   UNL     1       5.093   4.881  -4.749  0.00  0.00    +0.139 C 
BRANCH  25  26
ATOM     26  C   UNL     1       6.163   5.558  -5.567  0.00  0.00    -0.030 A 
ATOM     27  C   UNL     1       6.541   6.854  -5.274  0.00  0.00    +0.005 A 
ATOM     28  C   UNL     1       7.526   7.473  -6.020  0.00  0.00    +0.000 A 
ATOM     29  C   UNL     1       8.125   6.799  -7.068  0.00  0.00    +0.000 A 
ATOM     30  C   UNL     1       7.743   5.504  -7.365  0.00  0.00    +0.000 A 
ATOM     31  C   UNL     1       6.762   4.883  -6.614  0.00  0.00    +0.005 A 
ENDBRANCH  25  26
ENDBRANCH  23  25
ENDBRANCH  11  21
TORSDOF 4
