REMARK  Name = ZINC58902966
REMARK  7 active torsions:
REMARK  status: ('A' for Active; 'I' for Inactive)
REMARK    1  A    between atoms: C_1  and  C_2
REMARK    2  A    between atoms: N_5  and  C_7
REMARK    3  A    between atoms: C_14  and  N_29
REMARK    4  A    between atoms: C_15  and  C_25
REMARK    5  A    between atoms: C_16  and  C_18
REMARK    6  A    between atoms: C_25  and  O_27
REMARK    7  A    between atoms: O_27  and  C_28
REMARK                            x       y       z     vdW  Elec       q    Type
REMARK                         _______ _______ _______ _____ _____    ______ ____
ROOT
ATOM      1  C   UNL     1       0.517   1.529  -0.093  0.00  0.00    +0.068 C 
ATOM      2  C   UNL     1       0.296   0.039  -0.055  0.00  0.00    +0.068 A 
ATOM      3  C   UNL     1       0.170  -0.793  -1.159  0.00  0.00    +0.049 A 
ATOM      4  C   UNL     1      -0.018  -2.070  -0.708  0.00  0.00    +0.230 A 
ATOM      5  N   UNL     1      -0.007  -2.030   0.642  0.00  0.00    -0.200 N 
ATOM      6  N   UNL     1       0.196  -0.696   1.028  0.00  0.00    -0.168 NA
ATOM      7  O   UNL     1      -0.180  -3.127  -1.543  0.00  0.00    -0.423 OA
ATOM      8  C   UNL     1      -0.428  -2.864  -2.841  0.00  0.00    +0.197 C 
ATOM      9  C   UNL     1      -0.266  -1.644  -3.407  0.00  0.00    +0.105 C 
ATOM     10  C   UNL     1       0.217  -0.448  -2.625  0.00  0.00    +0.098 C 
ENDROOT
BRANCH  10  11
ATOM     11  C   UNL     1       1.632  -0.118  -3.024  0.00  0.00    -0.035 A 
ATOM     12  C   UNL     1       2.629  -1.065  -2.881  0.00  0.00    +0.005 A 
ATOM     13  C   UNL     1       3.927  -0.763  -3.248  0.00  0.00    +0.015 A 
ATOM     14  C   UNL     1       4.228   0.487  -3.758  0.00  0.00    +0.018 A 
ATOM     15  C   UNL     1       3.230   1.434  -3.901  0.00  0.00    +0.015 A 
ATOM     16  C   UNL     1       1.931   1.130  -3.539  0.00  0.00    +0.005 A 
ATOM     17 BR   UNL     1       6.004   0.901  -4.259  0.00  0.00    -0.050 Br
ENDBRANCH  10  11
BRANCH   5  18
ATOM     18  C   UNL     1      -0.166  -3.124   1.503  0.00  0.00    +0.069 A 
ATOM     19  C   UNL     1      -1.014  -4.167   1.154  0.00  0.00    +0.028 A 
ATOM     20  C   UNL     1      -1.169  -5.244   2.005  0.00  0.00    +0.002 A 
ATOM     21  C   UNL     1      -0.480  -5.285   3.203  0.00  0.00    +0.000 A 
ATOM     22  C   UNL     1       0.364  -4.248   3.554  0.00  0.00    +0.002 A 
ATOM     23  C   UNL     1       0.528  -3.171   2.704  0.00  0.00    +0.028 A 
ENDBRANCH   5  18
BRANCH   8  24
ATOM     24  N   UNL     1      -0.868  -3.890  -3.634  0.00  0.00    -0.329 N 
ATOM     25  H   UNL     1      -0.909  -4.792  -3.281  0.00  0.00    +0.145 HD
ATOM     26  H   UNL     1      -1.137  -3.714  -4.549  0.00  0.00    +0.145 HD
ENDBRANCH   8  24
BRANCH   9  27
ATOM     27  C   UNL     1      -0.558  -1.487  -4.769  0.00  0.00    +0.341 C 
ATOM     28  O   UNL     1      -1.611  -0.980  -5.112  0.00  0.00    -0.245 OA
BRANCH  27  29
ATOM     29  O   UNL     1       0.329  -1.898  -5.702  0.00  0.00    -0.465 OA
ATOM     30  C   UNL     1      -0.034  -1.707  -7.071  0.00  0.00    +0.280 C 
ENDBRANCH  27  29
ENDBRANCH   9  27
TORSDOF 5
