REMARK  Name = ZINC35381986
REMARK  3 active torsions:
REMARK  status: ('A' for Active; 'I' for Inactive)
REMARK    1  A    between atoms: C_5  and  C_6
REMARK    2  A    between atoms: C_6  and  C_8
REMARK    3  A    between atoms: C_6  and  N_19
REMARK                            x       y       z     vdW  Elec       q    Type
REMARK                         _______ _______ _______ _____ _____    ______ ____
ROOT
ATOM      1  C   UNL     1      -1.156  -0.969   0.009  0.00  0.00    -0.005 C 
ENDROOT
BRANCH   1   2
ATOM      2  C   UNL     1      -1.369  -1.487   1.407  0.00  0.00    -0.039 A 
ATOM      3  C   UNL     1      -0.792  -2.682   1.796  0.00  0.00    +0.052 A 
ATOM      4  C   UNL     1      -0.986  -3.161   3.083  0.00  0.00    +0.162 A 
ATOM      5  C   UNL     1      -1.761  -2.436   3.981  0.00  0.00    +0.163 A 
ATOM      6  C   UNL     1      -2.339  -1.240   3.585  0.00  0.00    +0.065 A 
ATOM      7  C   UNL     1      -2.138  -0.765   2.302  0.00  0.00    +0.023 A 
ATOM      8 BR   UNL     1      -2.920   0.872   1.767  0.00  0.00    -0.050 Br
ATOM      9  O   UNL     1      -1.958  -2.885   5.251  0.00  0.00    -0.485 OA
ATOM     10  C   UNL     1      -1.673  -4.266   5.497  0.00  0.00    +0.270 C 
ATOM     11  C   UNL     1      -0.320  -4.600   4.854  0.00  0.00    +0.270 C 
ATOM     12  O   UNL     1      -0.415  -4.340   3.450  0.00  0.00    -0.485 OA
ENDBRANCH   1   2
BRANCH   1  17
ATOM     13  C   UNL     1      -0.016   1.351   0.009  0.00  0.00    +0.011 A 
ATOM     14  C   UNL     1       1.183   2.038   0.002  0.00  0.00    +0.023 A 
ATOM     15  C   UNL     1       2.343   1.335  -0.013  0.00  0.00    +0.055 A 
ATOM     16  S   UNL     1       1.753  -0.350  -0.017  0.00  0.00    -0.088 S 
ATOM     17  C   UNL     1       0.002  -0.004   0.002  0.00  0.00    -0.019 A 
ATOM     18 BR   UNL     1       4.123   1.974  -0.027  0.00  0.00    -0.043 Br
ENDBRANCH   1  17
BRANCH   1  19
ATOM     19  N   UNL     1      -0.862  -2.092  -0.891  0.00  0.00    +0.386 N 
ATOM     20  H   UNL     1      -0.719  -1.745  -1.827  0.00  0.00    -0.089 HD
ATOM     21  H   UNL     1      -0.028  -2.566  -0.576  0.00  0.00    -0.089 HD
ATOM     22  H   UNL     1      -1.637  -2.738  -0.886  0.00  0.00    -0.089 HD
ENDBRANCH   1  19
TORSDOF 3
