REMARK  Name = ZINC04241693
REMARK  3 active torsions:
REMARK  status: ('A' for Active; 'I' for Inactive)
REMARK    1  A    between atoms: C_1  and  N_2
REMARK    2  A    between atoms: N_2  and  C_3
REMARK    3  A    between atoms: C_8  and  C_9
REMARK                            x       y       z     vdW  Elec       q    Type
REMARK                         _______ _______ _______ _____ _____    ______ ____
ROOT
ATOM      1  C   UNL     1      -0.017  -0.011  -0.143  0.00  0.00    +0.039 A 
ATOM      2  C   UNL     1       1.188  -0.691  -0.262  0.00  0.00    +0.023 A 
ATOM      3  C   UNL     1       1.223  -2.065  -0.125  0.00  0.00    +0.002 A 
ATOM      4  C   UNL     1       0.061  -2.774   0.130  0.00  0.00    +0.001 A 
ATOM      5  C   UNL     1      -1.144  -2.115   0.251  0.00  0.00    +0.015 A 
ATOM      6  C   UNL     1      -1.195  -0.726   0.121  0.00  0.00    +0.058 A 
ENDROOT
BRANCH   6   7
ATOM      7  C   UNL     1      -2.481  -0.014   0.256  0.00  0.00    +0.230 A 
ATOM      8  N   UNL     1      -3.600  -0.369  -0.325  0.00  0.00    -0.209 NA
ATOM      9  C   UNL     1      -4.571   0.513   0.024  0.00  0.00    +0.110 A 
ATOM     10  C   UNL     1      -5.928   0.628  -0.289  0.00  0.00    +0.031 A 
ATOM     11  C   UNL     1      -6.665   1.664   0.239  0.00  0.00    +0.002 A 
ATOM     12  C   UNL     1      -6.070   2.593   1.079  0.00  0.00    +0.004 A 
ATOM     13  C   UNL     1      -4.731   2.493   1.397  0.00  0.00    +0.048 A 
ATOM     14  C   UNL     1      -3.973   1.457   0.875  0.00  0.00    +0.156 A 
ATOM     15  O   UNL     1      -2.677   1.092   0.998  0.00  0.00    -0.435 OA
ENDBRANCH   6   7
BRANCH   1  17
ATOM     16  C   UNL     1       1.191   2.129  -0.430  0.00  0.00    +0.125 C 
ATOM     17  N   UNL     1      -0.055   1.373  -0.280  0.00  0.00    -0.346 N 
ATOM     18  H   UNL     1      -0.907   1.837  -0.281  0.00  0.00    +0.146 HD
ENDBRANCH   1  17
TORSDOF 2
