REMARK  Name = ZINC08429113
REMARK  8 active torsions:
REMARK  status: ('A' for Active; 'I' for Inactive)
REMARK    1  A    between atoms: C_1  and  C_2
REMARK    2  A    between atoms: C_2  and  C_23
REMARK    3  A    between atoms: N_5  and  C_9
REMARK    4  A    between atoms: C_9  and  C_10
REMARK    5  A    between atoms: C_10  and  C_12
REMARK    6  A    between atoms: C_23  and  C_24
REMARK    7  A    between atoms: C_29  and  O_30
REMARK    8  A    between atoms: O_30  and  C_31
REMARK                            x       y       z     vdW  Elec       q    Type
REMARK                         _______ _______ _______ _____ _____    ______ ____
ROOT
ATOM      1  C   UNL     1      -0.013   1.086   0.008  0.00  0.00    +0.042 C 
ATOM      2  C   UNL     1      -0.729   1.579   1.267  0.00  0.00    +0.114 C 
ATOM      3  C   UNL     1      -2.112   0.968   1.368  0.00  0.00    +0.247 C 
ATOM      4  O   UNL     1      -3.029   1.097   0.585  0.00  0.00    -0.273 OA
ATOM      5  N   UNL     1      -2.112   0.252   2.509  0.00  0.00    -0.217 N 
ATOM      6  C   UNL     1      -0.933   0.325   3.137  0.00  0.00    +0.310 C 
ATOM      7  O   UNL     1      -0.690  -0.237   4.187  0.00  0.00    -0.252 OA
ATOM      8  N   UNL     1      -0.045   1.091   2.477  0.00  0.00    -0.285 N 
ATOM      9  H   UNL     1       0.867   1.283   2.745  0.00  0.00    +0.151 HD
ENDROOT
BRANCH   5  10
ATOM     10  C   UNL     1      -3.261  -0.512   3.002  0.00  0.00    +0.197 C 
BRANCH  10  11
ATOM     11  C   UNL     1      -4.106   0.368   3.887  0.00  0.00    +0.181 C 
ATOM     12  O   UNL     1      -3.781   1.519   4.086  0.00  0.00    -0.290 OA
BRANCH  11  13
ATOM     13  C   UNL     1      -5.324  -0.169   4.508  0.00  0.00    +0.019 A 
ATOM     14  C   UNL     1      -5.705  -1.496   4.275  0.00  0.00    +0.013 A 
ATOM     15  C   UNL     1      -6.834  -1.996   4.858  0.00  0.00    +0.024 A 
ATOM     16  C   UNL     1      -7.618  -1.187   5.676  0.00  0.00    +0.037 A 
ATOM     17  C   UNL     1      -7.251   0.136   5.909  0.00  0.00    -0.025 A 
ATOM     18  C   UNL     1      -6.111   0.646   5.331  0.00  0.00    +0.017 A 
ATOM     19  C   UNL     1      -8.104   1.006   6.795  0.00  0.00    +0.046 C 
ATOM     20  C   UNL     1      -9.573   0.619   6.627  0.00  0.00    +0.101 C 
ATOM     21  C   UNL     1      -9.724  -0.875   6.735  0.00  0.00    +0.218 C 
ATOM     22  O   UNL     1     -10.716  -1.341   7.256  0.00  0.00    -0.275 OA
ATOM     23  N   UNL     1      -8.772  -1.700   6.263  0.00  0.00    -0.285 N 
ATOM     24  H   UNL     1      -8.890  -2.660   6.332  0.00  0.00    +0.155 HD
ENDBRANCH  11  13
ENDBRANCH  10  11
ENDBRANCH   5  10
BRANCH   2  25
ATOM     25  C   UNL     1      -0.810   3.107   1.274  0.00  0.00    +0.073 C 
BRANCH  25  26
ATOM     26  C   UNL     1       0.581   3.684   1.228  0.00  0.00    -0.003 A 
ATOM     27  C   UNL     1       1.221   4.042   2.399  0.00  0.00    +0.007 A 
ATOM     28  C   UNL     1       2.497   4.572   2.357  0.00  0.00    +0.000 A 
ATOM     29  C   UNL     1       3.137   4.744   1.144  0.00  0.00    +0.004 A 
ATOM     30  C   UNL     1       2.503   4.387  -0.030  0.00  0.00    +0.046 A 
ATOM     31  C   UNL     1       1.223   3.852   0.010  0.00  0.00    +0.123 A 
BRANCH  31  32
ATOM     32  O   UNL     1       0.599   3.495  -1.143  0.00  0.00    -0.495 OA
ATOM     33  C   UNL     1       1.320   3.696  -2.361  0.00  0.00    +0.277 C 
ENDBRANCH  31  32
ENDBRANCH  25  26
ENDBRANCH   2  25
TORSDOF 6
