REMARK  Name = ZINC39688791
REMARK  7 active torsions:
REMARK  status: ('A' for Active; 'I' for Inactive)
REMARK    1  A    between atoms: C_1  and  C_2
REMARK    2  A    between atoms: C_2  and  C_4
REMARK    3  A    between atoms: C_2  and  N_12
REMARK    4  A    between atoms: C_4  and  C_5
REMARK    5  A    between atoms: C_13  and  C_15
REMARK    6  A    between atoms: C_26  and  C_28
REMARK    7  A    between atoms: N_32  and  C_33
REMARK                            x       y       z     vdW  Elec       q    Type
REMARK                         _______ _______ _______ _____ _____    ______ ____
ROOT
ATOM      1  C   UNL     1       2.657  -0.579   2.331  0.00  0.00    +0.100 C 
ATOM      2  C   UNL     1       2.788   0.343   3.563  0.00  0.00    +0.121 C 
ATOM      3  N   UNL     1       4.034  -0.099   4.232  0.00  0.00    -0.295 N 
ATOM      4  C   UNL     1       4.968  -0.387   3.117  0.00  0.00    +0.115 C 
ATOM      5  C   UNL     1       4.090  -1.056   2.041  0.00  0.00    -0.004 C 
ATOM      6  C   UNL     1       4.176  -2.575   2.159  0.00  0.00    -0.010 C 
ATOM      7  C   UNL     1       5.596  -3.030   1.810  0.00  0.00    -0.082 C 
ATOM      8  N   UNL     1       5.926  -2.606   0.445  0.00  0.00    +0.379 N 
ATOM      9  C   UNL     1       5.932  -1.140   0.362  0.00  0.00    -0.082 C 
ATOM     10  C   UNL     1       4.526  -0.605   0.650  0.00  0.00    -0.010 C 
ATOM     11  C   UNL     1       4.267  -0.214   5.554  0.00  0.00    +0.265 C 
ATOM     12  O   UNL     1       5.397  -0.411   5.958  0.00  0.00    -0.268 OA
ATOM     13  H   UNL     1       6.838  -2.959   0.195  0.00  0.00    -0.086 HD
ATOM     14  H   UNL     1       5.239  -2.974  -0.196  0.00  0.00    -0.086 HD
ENDROOT
BRANCH  11  15
ATOM     15  C   UNL     1       3.156  -0.100   6.507  0.00  0.00    +0.124 A 
ATOM     16  C   UNL     1       1.822  -0.201   6.226  0.00  0.00    +0.143 A 
ATOM     17  N   UNL     1       1.153  -0.039   7.368  0.00  0.00    -0.243 NA
ATOM     18  C   UNL     1       1.996   0.158   8.349  0.00  0.00    +0.199 A 
ATOM     19  N   UNL     1       3.251   0.124   7.867  0.00  0.00    -0.330 N 
ATOM     20  C   UNL     1       4.485   0.295   8.637  0.00  0.00    +0.150 C 
ENDBRANCH  11  15
BRANCH   1  22
ATOM     21  N   UNL     1       1.336  -0.431   0.245  0.00  0.00    -0.312 N 
ATOM     22  C   UNL     1       2.112   0.190   1.155  0.00  0.00    +0.218 C 
ATOM     23  O   UNL     1       2.372   1.368   1.028  0.00  0.00    -0.275 OA
ATOM     24  H   UNL     1       1.128  -1.373   0.347  0.00  0.00    +0.149 HD
BRANCH  21  26
ATOM     25  C   UNL     1      -0.490   1.021  -0.490  0.00  0.00    +0.028 C 
ATOM     26  C   UNL     1       0.806   0.317  -0.898  0.00  0.00    +0.074 C 
BRANCH  26  27
ATOM     27  C   UNL     1       0.521  -0.648  -2.051  0.00  0.00    +0.057 C 
BRANCH  27  28
ATOM     28  C   UNL     1       1.815  -1.250  -2.534  0.00  0.00    -0.045 A 
ATOM     29  C   UNL     1       2.537  -0.625  -3.534  0.00  0.00    +0.006 A 
ATOM     30  C   UNL     1       3.724  -1.176  -3.977  0.00  0.00    +0.038 A 
ATOM     31  C   UNL     1       4.191  -2.354  -3.420  0.00  0.00    +0.123 A 
ATOM     32  C   UNL     1       3.467  -2.979  -2.418  0.00  0.00    +0.038 A 
ATOM     33  C   UNL     1       2.283  -2.424  -1.973  0.00  0.00    +0.006 A 
ATOM     34  F   UNL     1       5.351  -2.894  -3.853  0.00  0.00    -0.205 F 
ENDBRANCH  27  28
ENDBRANCH  26  27
ENDBRANCH  21  26
ENDBRANCH   1  22
TORSDOF 5
