REMARK  Name = ZINC35110228
REMARK  9 active torsions:
REMARK  status: ('A' for Active; 'I' for Inactive)
REMARK    1  A    between atoms: C_1  and  C_2
REMARK    2  A    between atoms: C_3  and  C_14
REMARK    3  A    between atoms: C_14  and  C_15
REMARK    4  A    between atoms: C_15  and  N_16
REMARK    5  A    between atoms: N_16  and  C_17
REMARK    6  A    between atoms: C_17  and  N_19
REMARK    7  A    between atoms: N_19  and  C_20
REMARK    8  A    between atoms: C_23  and  O_26
REMARK    9  A    between atoms: O_26  and  C_27
REMARK                            x       y       z     vdW  Elec       q    Type
REMARK                         _______ _______ _______ _____ _____    ______ ____
ROOT
ATOM      1  C   UNL     1       1.332   0.449  -2.912  0.00  0.00    +0.108 C 
ENDROOT
BRANCH   1   2
ATOM      2  N   UNL     1       1.364   0.642  -4.364  0.00  0.00    -0.326 N 
ATOM      3  H   UNL     1       0.540   0.613  -4.875  0.00  0.00    +0.148 HD
BRANCH   2   4
ATOM      4  C   UNL     1       2.538   0.861  -4.989  0.00  0.00    +0.135 C 
ATOM      5  S   UNL     1       3.992   0.913  -4.087  0.00  0.00    -0.019 S 
BRANCH   4   6
ATOM      6  N   UNL     1       2.567   1.038  -6.325  0.00  0.00    -0.297 N 
ATOM      7  H   UNL     1       1.757   0.929  -6.846  0.00  0.00    +0.154 HD
BRANCH   6   8
ATOM      8  C   UNL     1       3.768   1.380  -6.960  0.00  0.00    +0.033 A 
ATOM      9  C   UNL     1       4.109   0.785  -8.167  0.00  0.00    +0.027 A 
ATOM     10  C   UNL     1       5.293   1.123  -8.793  0.00  0.00    +0.047 A 
ATOM     11  C   UNL     1       6.141   2.056  -8.215  0.00  0.00    +0.120 A 
ATOM     12  C   UNL     1       5.802   2.650  -7.009  0.00  0.00    +0.047 A 
ATOM     13  C   UNL     1       4.615   2.318  -6.385  0.00  0.00    +0.027 A 
BRANCH  11  14
ATOM     14  O   UNL     1       7.307   2.388  -8.832  0.00  0.00    -0.495 OA
ATOM     15  C   UNL     1       8.133   3.356  -8.181  0.00  0.00    +0.277 C 
ENDBRANCH  11  14
ENDBRANCH   6   8
ENDBRANCH   4   6
ENDBRANCH   2   4
ENDBRANCH   1   2
BRANCH   1  16
ATOM     16  C   UNL     1      -0.111   0.222  -2.459  0.00  0.00    +0.056 C 
BRANCH  16  19
ATOM     17  C   UNL     1      -0.440   2.452  -0.326  0.00  0.00    +0.063 C 
ATOM     18  C   UNL     1      -0.286   0.981  -0.036  0.00  0.00    +0.017 A 
ATOM     19  C   UNL     1      -0.144   0.023  -0.966  0.00  0.00    -0.018 A 
ATOM     20  C   UNL     1      -0.027  -1.251  -0.253  0.00  0.00    +0.007 A 
ATOM     21  C   UNL     1       0.136  -2.578  -0.659  0.00  0.00    +0.025 A 
ATOM     22  C   UNL     1       0.212  -3.570   0.278  0.00  0.00    +0.021 A 
ATOM     23  C   UNL     1       0.127  -3.270   1.632  0.00  0.00    +0.055 A 
ATOM     24  C   UNL     1      -0.034  -1.967   2.054  0.00  0.00    +0.148 A 
ATOM     25  C   UNL     1      -0.113  -0.941   1.115  0.00  0.00    +0.083 A 
ATOM     26  N   UNL     1      -0.264   0.425   1.214  0.00  0.00    -0.356 N 
ATOM     27  H   UNL     1      -0.345   0.919   2.045  0.00  0.00    +0.166 HD
ATOM     28  F   UNL     1      -0.116  -1.687   3.373  0.00  0.00    -0.203 F 
ATOM     29 BR   UNL     1       0.433  -5.366  -0.273  0.00  0.00    -0.050 Br
ENDBRANCH  16  19
ENDBRANCH   1  16
TORSDOF 7
