REMARK  Name = ZINC01060137
REMARK  6 active torsions:
REMARK  status: ('A' for Active; 'I' for Inactive)
REMARK    1  A    between atoms: C_1  and  N_2
REMARK    2  A    between atoms: N_5  and  C_38
REMARK    3  A    between atoms: C_6  and  C_32
REMARK    4  A    between atoms: C_7  and  C_26
REMARK    5  A    between atoms: C_13  and  C_14
REMARK    6  A    between atoms: C_17  and  N_20
REMARK                            x       y       z     vdW  Elec       q    Type
REMARK                         _______ _______ _______ _____ _____    ______ ____
ROOT
ATOM      1  C   UNL     1     -10.597   1.325   0.627  0.00  0.00    +0.136 C 
ATOM      2  N   UNL     1      -9.616   2.360   0.292  0.00  0.00    -0.259 N 
ATOM      3  C   UNL     1      -9.741   3.288  -0.673  0.00  0.00    +0.308 C 
ATOM      4  O   UNL     1     -10.634   3.277  -1.498  0.00  0.00    -0.252 OA
ATOM      5  N   UNL     1      -8.781   4.232  -0.636  0.00  0.00    -0.257 N 
ATOM      6  C   UNL     1      -8.014   4.029   0.603  0.00  0.00    +0.202 C 
ATOM      7  C   UNL     1      -8.304   2.571   0.956  0.00  0.00    +0.189 C 
ATOM      8  N   UNL     1      -7.369   1.601   0.419  0.00  0.00    -0.248 N 
ATOM      9  N   UNL     1      -6.057   2.010   0.338  0.00  0.00    -0.203 N 
ATOM     10  C   UNL     1      -5.044   1.141   0.248  0.00  0.00    +0.284 A 
ATOM     11  O   UNL     1      -5.246  -0.059   0.267  0.00  0.00    -0.265 OA
ATOM     12  C   UNL     1      -3.676   1.677   0.131  0.00  0.00    +0.082 A 
ATOM     13  C   UNL     1      -2.499   1.014   0.019  0.00  0.00    +0.028 C 
ATOM     14  S   UNL     1      -3.988   3.437   0.167  0.00  0.00    -0.045 S 
ATOM     15  C   UNL     1      -5.751   3.364   0.335  0.00  0.00    +0.192 A 
ATOM     16  N   UNL     1      -6.605   4.324   0.424  0.00  0.00    -0.224 NA
ATOM     17  C   UNL     1      -8.545   5.269  -1.643  0.00  0.00    +0.136 C 
ATOM     18  H   UNL     1      -7.443   0.719   0.904  0.00  0.00    +0.169 HD
ENDROOT
BRANCH  13  19
ATOM     19  C   UNL     1      -1.230   1.755   0.075  0.00  0.00    -0.024 A 
ATOM     20  C   UNL     1      -1.198   3.057   0.586  0.00  0.00    +0.010 A 
ATOM     21  C   UNL     1      -0.003   3.743   0.639  0.00  0.00    +0.033 A 
ATOM     22  C   UNL     1       1.161   3.148   0.185  0.00  0.00    +0.126 A 
ATOM     23  C   UNL     1       1.137   1.862  -0.326  0.00  0.00    +0.033 A 
ATOM     24  C   UNL     1      -0.050   1.163  -0.387  0.00  0.00    +0.010 A 
BRANCH  22  25
ATOM     25  N   UNL     1       2.440   3.892   0.247  0.00  0.00    +0.056 N 
ATOM     26  O   UNL     1       2.466   5.023   0.697  0.00  0.00    -0.126 OA
ATOM     27  O   UNL     1       3.467   3.372  -0.152  0.00  0.00    -0.126 OA
ENDBRANCH  22  25
ENDBRANCH  13  19
BRANCH   7  28
ATOM     28  C   UNL     1      -8.424   2.408   2.449  0.00  0.00    -0.000 A 
ATOM     29  C   UNL     1      -7.304   2.112   3.204  0.00  0.00    +0.007 A 
ATOM     30  C   UNL     1      -7.413   1.968   4.575  0.00  0.00    +0.000 A 
ATOM     31  C   UNL     1      -8.644   2.110   5.189  0.00  0.00    +0.000 A 
ATOM     32  C   UNL     1      -9.764   2.402   4.434  0.00  0.00    +0.000 A 
ATOM     33  C   UNL     1      -9.654   2.550   3.064  0.00  0.00    +0.007 A 
ENDBRANCH   7  28
BRANCH   6  34
ATOM     34  C   UNL     1      -8.579   4.924   1.676  0.00  0.00    +0.002 A 
ATOM     35  C   UNL     1      -7.775   5.347   2.717  0.00  0.00    +0.008 A 
ATOM     36  C   UNL     1      -8.292   6.170   3.700  0.00  0.00    +0.000 A 
ATOM     37  C   UNL     1      -9.616   6.564   3.645  0.00  0.00    +0.000 A 
ATOM     38  C   UNL     1     -10.422   6.137   2.607  0.00  0.00    +0.000 A 
ATOM     39  C   UNL     1      -9.903   5.316   1.622  0.00  0.00    +0.008 A 
ENDBRANCH   6  34
TORSDOF 4
