REMARK  Name = ZINC12316246
REMARK  4 active torsions:
REMARK  status: ('A' for Active; 'I' for Inactive)
REMARK    1  A    between atoms: C_4  and  C_7
REMARK    2  A    between atoms: C_7  and  C_8
REMARK    3  A    between atoms: C_8  and  N_64
REMARK    4  A    between atoms: C_18  and  C_20
REMARK                            x       y       z     vdW  Elec       q    Type
REMARK                         _______ _______ _______ _____ _____    ______ ____
ROOT
ATOM      1  C   UNL     1      -3.956   8.977   6.265  0.00  0.00    -0.079 C 
ATOM      2  C   UNL     1      -2.766   8.857   5.311  0.00  0.00    -0.018 C 
ATOM      3  C   UNL     1      -3.284   8.688   3.878  0.00  0.00    +0.005 C 
ATOM      4  C   UNL     1      -4.207   7.477   3.818  0.00  0.00    -0.027 C 
ATOM      5  C   UNL     1      -5.340   7.604   4.826  0.00  0.00    -0.070 C 
ATOM      6  C   UNL     1      -4.775   7.309   2.392  0.00  0.00    +0.025 C 
ATOM      7  C   UNL     1      -3.624   6.536   1.692  0.00  0.00    +0.108 C 
ATOM      8  N   UNL     1      -3.102   5.622   2.725  0.00  0.00    -0.296 N 
ATOM      9  C   UNL     1      -3.416   6.180   4.050  0.00  0.00    +0.113 C 
ATOM     10  C   UNL     1      -2.441   4.470   2.493  0.00  0.00    +0.267 C 
ATOM     11  O   UNL     1      -2.050   3.796   3.426  0.00  0.00    -0.268 OA
ATOM     12  N   UNL     1      -4.767   7.744   6.183  0.00  0.00    +0.380 N 
ATOM     13  H   UNL     1      -4.165   6.935   6.375  0.00  0.00    -0.082 HD
ENDROOT
BRANCH  10  14
ATOM     14  C   UNL     1      -2.193   4.027   1.107  0.00  0.00    +0.150 A 
ATOM     15  C   UNL     1      -1.520   2.850   0.706  0.00  0.00    +0.005 A 
ATOM     16  C   UNL     1      -1.533   2.860  -0.644  0.00  0.00    +0.040 A 
ATOM     17  N   UNL     1      -2.181   3.985  -1.026  0.00  0.00    -0.281 N 
ATOM     18  H   UNL     1      -2.343   4.257  -1.975  0.00  0.00    +0.189 HD
ATOM     19  N   UNL     1      -2.559   4.652   0.005  0.00  0.00    -0.169 NA
ATOM     20  C   UNL     1      -0.832   1.633  -1.182  0.00  0.00    +0.055 C 
ATOM     21  C   UNL     1      -0.013   1.086   0.008  0.00  0.00    +0.011 C 
ATOM     22  C   UNL     1      -0.809   1.620   1.219  0.00  0.00    +0.039 C 
ENDBRANCH  10  14
BRANCH  12  23
ATOM     23  C   UNL     1      -5.851   7.784   7.187  0.00  0.00    -0.079 C 
BRANCH  23  24
ATOM     24  C   UNL     1      -5.267   8.202   8.538  0.00  0.00    -0.015 C 
BRANCH  24  28
ATOM     25  C   UNL     1      -7.904   9.618  11.664  0.00  0.00    +0.000 C 
ATOM     26  C   UNL     1      -6.884   8.534  12.017  0.00  0.00    +0.000 C 
ATOM     27  C   UNL     1      -5.773   8.516  10.964  0.00  0.00    +0.003 C 
ATOM     28  C   UNL     1      -6.377   8.220   9.590  0.00  0.00    -0.013 C 
ATOM     29  C   UNL     1      -7.397   9.305   9.237  0.00  0.00    +0.003 C 
ATOM     30  C   UNL     1      -8.508   9.322  10.289  0.00  0.00    +0.000 C 
ENDBRANCH  24  28
ENDBRANCH  23  24
ENDBRANCH  12  23
TORSDOF 4
