REMARK  Name = ZINC12893399
REMARK  8 active torsions:
REMARK  status: ('A' for Active; 'I' for Inactive)
REMARK    1  A    between atoms: C_1  and  C_2
REMARK    2  A    between atoms: C_9  and  O_19
REMARK    3  A    between atoms: C_15  and  C_17
REMARK    4  A    between atoms: C_15  and  C_18
REMARK    5  A    between atoms: O_19  and  C_20
REMARK    6  A    between atoms: C_20  and  C_21
REMARK    7  A    between atoms: N_23  and  C_24
REMARK    8  A    between atoms: C_31  and  O_33
REMARK                            x       y       z     vdW  Elec       q    Type
REMARK                         _______ _______ _______ _____ _____    ______ ____
ROOT
ATOM      1  C   UNL     1       3.734   2.105  -0.021  0.00  0.00    +0.045 C 
ATOM      2  C   UNL     1       2.423   1.361  -0.013  0.00  0.00    -0.030 A 
ATOM      3  C   UNL     1       2.388   0.024   0.228  0.00  0.00    +0.096 A 
ATOM      4  C   UNL     1       1.155  -0.656   0.231  0.00  0.00    +0.337 A 
ATOM      5  O   UNL     1       1.132  -1.855   0.447  0.00  0.00    -0.245 OA
ATOM      6  O   UNL     1       0.002  -0.004   0.000  0.00  0.00    -0.422 OA
ATOM      7  C   UNL     1      -0.005   1.325  -0.243  0.00  0.00    +0.149 A 
ATOM      8  C   UNL     1       1.204   2.043  -0.257  0.00  0.00    +0.063 A 
ATOM      9  C   UNL     1       1.191   3.425  -0.512  0.00  0.00    +0.136 A 
ATOM     10  C   UNL     1      -0.011   4.062  -0.743  0.00  0.00    +0.092 A 
ATOM     11  C   UNL     1      -1.209   3.346  -0.728  0.00  0.00    +0.131 A 
ATOM     12  C   UNL     1      -1.204   1.984  -0.486  0.00  0.00    +0.038 A 
ATOM     13  C   UNL     1      -2.482   1.183  -0.471  0.00  0.00    +0.046 C 
ATOM     14  C   UNL     1      -3.680   2.122  -0.312  0.00  0.00    +0.052 C 
ATOM     15  C   UNL     1      -3.523   3.274  -1.313  0.00  0.00    +0.105 C 
ATOM     16  O   UNL     1      -2.362   4.026  -0.956  0.00  0.00    -0.486 OA
ATOM     17  C   UNL     1      -4.758   4.176  -1.260  0.00  0.00    +0.055 C 
ATOM     18  C   UNL     1      -3.357   2.711  -2.726  0.00  0.00    +0.055 C 
ENDROOT
BRANCH   9  19
ATOM     19  O   UNL     1       2.351   4.128  -0.530  0.00  0.00    -0.482 OA
BRANCH  19  20
ATOM     20  C   UNL     1       2.257   5.529  -0.796  0.00  0.00    +0.324 C 
BRANCH  20  21
ATOM     21  C   UNL     1       3.636   6.138  -0.777  0.00  0.00    +0.251 C 
ATOM     22  O   UNL     1       4.604   5.440  -0.557  0.00  0.00    -0.272 OA
ATOM     23  N   UNL     1       3.794   7.457  -1.004  0.00  0.00    -0.306 N 
ATOM     24  H   UNL     1       3.020   8.014  -1.180  0.00  0.00    +0.149 HD
BRANCH  23  25
ATOM     25  C   UNL     1       5.134   8.048  -0.986  0.00  0.00    +0.124 C 
ATOM     26  C   UNL     1       5.544   8.294   0.484  0.00  0.00    +0.190 C 
ATOM     27  S   UNL     1       6.478   9.879   0.337  0.00  0.00    -0.027 S 
ATOM     28  O   UNL     1       7.806   9.605  -0.087  0.00  0.00    -0.174 OA
ATOM     29  O   UNL     1       6.256  10.667   1.499  0.00  0.00    -0.174 OA
ATOM     30  C   UNL     1       5.520  10.588  -1.073  0.00  0.00    +0.199 C 
ATOM     31  C   UNL     1       5.121   9.307  -1.840  0.00  0.00    +0.157 C 
BRANCH  31  32
ATOM     32  O   UNL     1       3.805   9.487  -2.367  0.00  0.00    -0.388 OA
ATOM     33  H   UNL     1       3.709  10.270  -2.926  0.00  0.00    +0.210 HD
ENDBRANCH  31  32
ENDBRANCH  23  25
ENDBRANCH  20  21
ENDBRANCH  19  20
ENDBRANCH   9  19
TORSDOF 5
