REMARK  Name = ZINC14749335
REMARK  9 active torsions:
REMARK  status: ('A' for Active; 'I' for Inactive)
REMARK    1  A    between atoms: C_1  and  C_2
REMARK    2  A    between atoms: C_2  and  C_3
REMARK    3  A    between atoms: C_2  and  C_4
REMARK    4  A    between atoms: C_4  and  C_5
REMARK    5  A    between atoms: C_5  and  N_6
REMARK    6  A    between atoms: N_9  and  C_28
REMARK    7  A    between atoms: C_17  and  C_18
REMARK    8  A    between atoms: C_17  and  N_61
REMARK    9  A    between atoms: C_28  and  C_29
REMARK                            x       y       z     vdW  Elec       q    Type
REMARK                         _______ _______ _______ _____ _____    ______ ____
ROOT
ATOM      1  N   UNL     1      -1.997   2.179   3.188  0.00  0.00    -0.271 N 
ATOM      2  C   UNL     1      -1.271   1.730   2.147  0.00  0.00    +0.312 C 
ATOM      3  O   UNL     1      -1.435   0.644   1.626  0.00  0.00    -0.252 OA
ATOM      4  N   UNL     1      -0.346   2.614   1.750  0.00  0.00    -0.215 N 
ATOM      5  C   UNL     1      -0.375   3.734   2.502  0.00  0.00    +0.247 C 
ATOM      6  O   UNL     1       0.337   4.709   2.393  0.00  0.00    -0.273 OA
ATOM      7  C   UNL     1      -1.483   3.517   3.506  0.00  0.00    +0.112 C 
ATOM      8  C   UNL     1      -0.925   3.553   4.926  0.00  0.00    +0.017 C 
ATOM      9  C   UNL     1      -2.070   3.356   5.924  0.00  0.00    -0.076 C 
ATOM     10  C   UNL     1      -3.667   4.336   4.386  0.00  0.00    -0.076 C 
ATOM     11  C   UNL     1      -2.577   4.566   3.335  0.00  0.00    +0.017 C 
ATOM     12  N   UNL     1      -3.063   4.435   5.732  0.00  0.00    +0.383 N 
ATOM     13  H   UNL     1      -2.591   5.342   5.819  0.00  0.00    -0.081 HD
ENDROOT
BRANCH   1  14
ATOM     14  C   UNL     1      -3.086   1.474   3.868  0.00  0.00    +0.110 C 
BRANCH  14  15
ATOM     15  C   UNL     1      -4.267   1.313   2.909  0.00  0.00    +0.022 C 
BRANCH  15  17
ATOM     16  C   UNL     1      -6.601   0.449   2.685  0.00  0.00    +0.007 C 
ATOM     17  C   UNL     1      -5.362   0.483   3.582  0.00  0.00    -0.016 C 
ATOM     18  C   UNL     1      -4.856  -0.942   3.808  0.00  0.00    +0.007 C 
ENDBRANCH  15  17
ENDBRANCH  14  15
ENDBRANCH   1  14
BRANCH  12  19
ATOM     19  C   UNL     1      -4.115   4.341   6.765  0.00  0.00    -0.041 C 
BRANCH  19  20
ATOM     20  C   UNL     1      -3.542   4.799   8.081  0.00  0.00    -0.042 A 
ATOM     21  C   UNL     1      -3.174   3.868   9.035  0.00  0.00    +0.052 A 
ATOM     22  C   UNL     1      -2.646   4.287  10.245  0.00  0.00    +0.167 A 
ATOM     23  C   UNL     1      -2.487   5.648  10.498  0.00  0.00    +0.168 A 
ATOM     24  C   UNL     1      -2.857   6.575   9.539  0.00  0.00    +0.069 A 
ATOM     25  C   UNL     1      -3.378   6.150   8.330  0.00  0.00    +0.046 A 
ATOM     26 CL   UNL     1      -3.834   7.314   7.125  0.00  0.00    -0.083 Cl
ATOM     27  O   UNL     1      -1.954   5.800  11.746  0.00  0.00    -0.453 OA
ATOM     28  C   UNL     1      -2.168   4.541  12.412  0.00  0.00    +0.466 C 
ATOM     29  O   UNL     1      -2.213   3.587  11.334  0.00  0.00    -0.453 OA
ENDBRANCH  19  20
ENDBRANCH  12  19
BRANCH   4  30
ATOM     30  C   UNL     1       0.584   2.390   0.641  0.00  0.00    +0.213 C 
BRANCH  30  31
ATOM     31  C   UNL     1      -0.032   2.888  -0.641  0.00  0.00    +0.228 C 
ATOM     32  O   UNL     1      -1.140   3.381  -0.629  0.00  0.00    -0.274 OA
ATOM     33  N   UNL     1       0.647   2.785  -1.800  0.00  0.00    -0.328 N 
ATOM     34  H   UNL     1       1.534   2.390  -1.809  0.00  0.00    +0.145 HD
ATOM     35  H   UNL     1       0.251   3.105  -2.625  0.00  0.00    +0.145 HD
ENDBRANCH  30  31
ENDBRANCH   4  30
TORSDOF 7
