REMARK  Name = ZINC39601756
REMARK  9 active torsions:
REMARK  status: ('A' for Active; 'I' for Inactive)
REMARK    1  A    between atoms: C_1  and  C_2
REMARK    2  A    between atoms: C_6  and  C_9
REMARK    3  A    between atoms: C_13  and  C_22
REMARK    4  A    between atoms: N_24  and  C_25
REMARK    5  A    between atoms: C_25  and  C_26
REMARK    6  A    between atoms: C_26  and  O_27
REMARK    7  A    between atoms: O_27  and  C_28
REMARK    8  A    between atoms: C_28  and  C_29
REMARK    9  A    between atoms: C_29  and  O_30
REMARK                            x       y       z     vdW  Elec       q    Type
REMARK                         _______ _______ _______ _____ _____    ______ ____
ROOT
ATOM      1  C   UNL     1       0.088  -2.900   2.608  0.00  0.00    +0.251 C 
ATOM      2  O   UNL     1       1.132  -3.256   3.121  0.00  0.00    -0.270 OA
ATOM      3  N   UNL     1      -1.089  -3.272   3.148  0.00  0.00    -0.296 N 
ATOM      4  C   UNL     1      -2.452  -2.946   2.668  0.00  0.00    +0.121 C 
ATOM      5  C   UNL     1      -3.264  -4.243   2.884  0.00  0.00    +0.100 C 
ATOM      6  C   UNL     1      -2.512  -4.996   3.994  0.00  0.00    -0.004 C 
ATOM      7  C   UNL     1      -1.313  -4.107   4.354  0.00  0.00    +0.115 C 
ATOM      8  C   UNL     1      -2.024  -6.347   3.480  0.00  0.00    -0.010 C 
ATOM      9  C   UNL     1      -1.329  -7.100   4.618  0.00  0.00    -0.082 C 
ATOM     10  N   UNL     1      -2.271  -7.288   5.728  0.00  0.00    +0.379 N 
ATOM     11  C   UNL     1      -2.664  -5.985   6.278  0.00  0.00    -0.082 C 
ATOM     12  C   UNL     1      -3.414  -5.184   5.210  0.00  0.00    -0.010 C 
ATOM     13  H   UNL     1      -3.091  -7.772   5.394  0.00  0.00    -0.086 HD
ATOM     14  H   UNL     1      -1.831  -7.837   6.451  0.00  0.00    -0.086 HD
ENDROOT
BRANCH   1  20
ATOM     15  C   UNL     1       0.155   1.616   0.479  0.00  0.00    +0.047 C 
ATOM     16  C   UNL     1       0.143   0.114   0.364  0.00  0.00    -0.014 A 
ATOM     17  C   UNL     1       0.153  -0.482  -0.884  0.00  0.00    +0.007 A 
ATOM     18  C   UNL     1       0.141  -1.861  -1.001  0.00  0.00    +0.021 A 
ATOM     19  C   UNL     1       0.120  -2.653   0.130  0.00  0.00    +0.056 A 
ATOM     20  C   UNL     1       0.111  -2.060   1.395  0.00  0.00    +0.091 A 
ATOM     21  C   UNL     1       0.128  -0.665   1.505  0.00  0.00    +0.140 A 
ATOM     22  F   UNL     1       0.124  -0.082   2.724  0.00  0.00    -0.204 F 
ATOM     23 CL   UNL     1       0.105  -4.383  -0.020  0.00  0.00    -0.083 Cl
ENDBRANCH   1  20
BRANCH   5  24
ATOM     24  C   UNL     1      -4.667  -3.917   3.325  0.00  0.00    +0.218 C 
ATOM     25  O   UNL     1      -4.881  -2.917   3.977  0.00  0.00    -0.275 OA
ATOM     26  N   UNL     1      -5.685  -4.737   2.994  0.00  0.00    -0.313 N 
ATOM     27  H   UNL     1      -5.514  -5.536   2.473  0.00  0.00    +0.149 HD
BRANCH  26  28
ATOM     28  C   UNL     1      -7.049  -4.420   3.423  0.00  0.00    +0.132 C 
BRANCH  28  29
ATOM     29  C   UNL     1      -8.006  -5.503   2.920  0.00  0.00    +0.178 C 
BRANCH  29  30
ATOM     30  O   UNL     1      -7.692  -6.746   3.550  0.00  0.00    -0.376 OA
BRANCH  30  31
ATOM     31  C   UNL     1      -8.531  -7.830   3.147  0.00  0.00    +0.187 C 
BRANCH  31  32
ATOM     32  C   UNL     1      -8.106  -9.104   3.880  0.00  0.00    +0.184 C 
BRANCH  32  33
ATOM     33  O   UNL     1      -8.336  -8.947   5.282  0.00  0.00    -0.393 OA
ATOM     34  H   UNL     1      -8.089  -9.719   5.810  0.00  0.00    +0.209 HD
ENDBRANCH  32  33
ENDBRANCH  31  32
ENDBRANCH  30  31
ENDBRANCH  29  30
ENDBRANCH  28  29
ENDBRANCH  26  28
ENDBRANCH   5  24
TORSDOF 8
