REMARK  Name = ZINC12943188
REMARK  10 active torsions:
REMARK  status: ('A' for Active; 'I' for Inactive)
REMARK    1  A    between atoms: C_1  and  C_2
REMARK    2  A    between atoms: C_2  and  O_3
REMARK    3  A    between atoms: O_3  and  C_4
REMARK    4  A    between atoms: C_9  and  O_10
REMARK    5  A    between atoms: O_10  and  C_11
REMARK    6  A    between atoms: C_11  and  C_12
REMARK    7  A    between atoms: C_16  and  C_17
REMARK    8  A    between atoms: C_16  and  N_67
REMARK    9  A    between atoms: N_19  and  N_20
REMARK   10  A    between atoms: C_26  and  C_29
REMARK                            x       y       z     vdW  Elec       q    Type
REMARK                         _______ _______ _______ _____ _____    ______ ____
ROOT
ATOM      1  C   UNL     1      -3.724   6.218   0.389  0.00  0.00    +0.021 C 
ENDROOT
BRANCH   1  11
ATOM      2  C   UNL     1       1.177   2.071   0.002  0.00  0.00    +0.162 A 
ATOM      3  C   UNL     1       1.147   3.454   0.011  0.00  0.00    +0.053 A 
ATOM      4  C   UNL     1      -0.064   4.129   0.028  0.00  0.00    -0.044 A 
ATOM      5  C   UNL     1      -1.247   3.421   0.032  0.00  0.00    -0.057 A 
ATOM      6  C   UNL     1      -1.222   2.034   0.019  0.00  0.00    +0.051 A 
ATOM      7  C   UNL     1      -0.016   1.356   0.009  0.00  0.00    +0.162 A 
ATOM      8  C   UNL     1      -2.586   4.112   0.043  0.00  0.00    -0.042 C 
ATOM      9  C   UNL     1      -1.416   6.182  -0.349  0.00  0.00    -0.073 C 
ATOM     10  C   UNL     1      -0.044   5.637   0.048  0.00  0.00    +0.017 C 
ATOM     11  N   UNL     1      -2.430   5.507   0.487  0.00  0.00    +0.388 N 
ATOM     12  H   UNL     1      -2.117   5.515   1.465  0.00  0.00    -0.081 HD
BRANCH   2  13
ATOM     13  O   UNL     1       2.368   1.413  -0.015  0.00  0.00    -0.489 OA
BRANCH  13  15
ATOM     14  C   UNL     1       4.782   1.306  -0.041  0.00  0.00    +0.048 C 
ATOM     15  C   UNL     1       3.551   2.214  -0.022  0.00  0.00    +0.226 C 
ENDBRANCH  13  15
ENDBRANCH   2  13
BRANCH   7  16
ATOM     16  O   UNL     1       0.002  -0.004   0.002  0.00  0.00    -0.489 OA
BRANCH  16  17
ATOM     17  C   UNL     1      -1.262  -0.670   0.011  0.00  0.00    +0.226 C 
ATOM     18  C   UNL     1      -1.041  -2.184   0.000  0.00  0.00    +0.048 C 
ENDBRANCH  16  17
ENDBRANCH   7  16
ENDBRANCH   1  11
BRANCH   1  19
ATOM     19  C   UNL     1      -4.681   5.636   1.398  0.00  0.00    +0.213 C 
ATOM     20  O   UNL     1      -4.327   4.720   2.110  0.00  0.00    -0.276 OA
ATOM     21  N   UNL     1      -5.928   6.133   1.509  0.00  0.00    -0.225 N 
ATOM     22  H   UNL     1      -6.211   6.866   0.939  0.00  0.00    +0.173 HD
BRANCH  21  23
ATOM     23  N   UNL     1      -6.817   5.593   2.447  0.00  0.00    -0.137 N 
ATOM     24  C   UNL     1      -7.154   6.194   3.607  0.00  0.00    +0.263 C 
ATOM     25  O   UNL     1      -6.761   7.263   4.020  0.00  0.00    -0.271 OA
ATOM     26  C   UNL     1      -8.126   5.253   4.282  0.00  0.00    +0.114 C 
ATOM     27  C   UNL     1      -9.479   5.931   4.469  0.00  0.00    +0.035 C 
ATOM     28  C   UNL     1     -10.456   4.953   5.128  0.00  0.00    +0.006 C 
ATOM     29  C   UNL     1      -9.896   4.510   6.481  0.00  0.00    -0.014 C 
ATOM     30  C   UNL     1      -8.552   3.810   6.274  0.00  0.00    +0.006 C 
ATOM     31  C   UNL     1      -7.567   4.783   5.620  0.00  0.00    +0.035 C 
ATOM     32  C   UNL     1     -10.878   3.542   7.146  0.00  0.00    +0.007 C 
ATOM     33  N   UNL     1      -8.239   4.126   3.346  0.00  0.00    -0.284 N 
ATOM     34  C   UNL     1      -7.442   4.418   2.301  0.00  0.00    +0.326 C 
ATOM     35  O   UNL     1      -7.303   3.693   1.335  0.00  0.00    -0.251 OA
ATOM     36  H   UNL     1      -8.784   3.332   3.458  0.00  0.00    +0.151 HD
ENDBRANCH  21  23
ENDBRANCH   1  19
TORSDOF 7
