REMARK  Name = ZINC04827739
REMARK  5 active torsions:
REMARK  status: ('A' for Active; 'I' for Inactive)
REMARK    1  A    between atoms: C_4  and  C_7
REMARK    2  A    between atoms: C_7  and  N_8
REMARK    3  A    between atoms: C_9  and  C_11
REMARK    4  A    between atoms: C_11  and  N_12
REMARK    5  A    between atoms: C_13  and  C_23
REMARK                            x       y       z     vdW  Elec       q    Type
REMARK                         _______ _______ _______ _____ _____    ______ ____
ROOT
ATOM      1  N   UNL     1      -0.721   1.571  -1.179  0.00  0.00    -0.278 N 
ATOM      2  C   UNL     1      -0.459   2.837  -1.872  0.00  0.00    +0.140 C 
ATOM      3  C   UNL     1      -1.430   2.896  -3.025  0.00  0.00    -0.010 A 
ATOM      4  C   UNL     1      -1.663   3.822  -4.016  0.00  0.00    +0.006 A 
ATOM      5  C   UNL     1      -2.649   3.592  -4.960  0.00  0.00    +0.000 A 
ATOM      6  C   UNL     1      -3.403   2.433  -4.910  0.00  0.00    +0.001 A 
ATOM      7  C   UNL     1      -3.179   1.498  -3.921  0.00  0.00    +0.013 A 
ATOM      8  C   UNL     1      -2.185   1.722  -2.966  0.00  0.00    +0.042 A 
ATOM      9  C   UNL     1      -1.715   0.927  -1.815  0.00  0.00    +0.248 C 
ATOM     10  O   UNL     1      -2.163  -0.155  -1.489  0.00  0.00    -0.270 OA
ENDROOT
BRANCH   2  11
ATOM     11  C   UNL     1       0.957   2.863  -2.385  0.00  0.00    +0.002 A 
ATOM     12  C   UNL     1       1.722   1.798  -2.674  0.00  0.00    +0.089 A 
ATOM     13  N   UNL     1       2.949   2.211  -3.117  0.00  0.00    -0.360 N 
ATOM     14  H   UNL     1       3.671   1.622  -3.387  0.00  0.00    +0.165 HD
ATOM     15  C   UNL     1       3.009   3.587  -3.116  0.00  0.00    +0.047 A 
ATOM     16  C   UNL     1       1.764   4.056  -2.658  0.00  0.00    +0.005 A 
ATOM     17  C   UNL     1       1.532   5.428  -2.553  0.00  0.00    +0.010 A 
ATOM     18  C   UNL     1       2.518   6.311  -2.895  0.00  0.00    +0.001 A 
ATOM     19  C   UNL     1       3.748   5.853  -3.348  0.00  0.00    +0.002 A 
ATOM     20  C   UNL     1       3.997   4.503  -3.459  0.00  0.00    +0.026 A 
ENDBRANCH   2  11
BRANCH   1  21
ATOM     21  C   UNL     1      -0.013   1.086   0.008  0.00  0.00    +0.204 C 
BRANCH  21  23
ATOM     22  N   UNL     1      -0.242   1.246   2.466  0.00  0.00    -0.310 N 
ATOM     23  C   UNL     1      -0.718   1.572   1.248  0.00  0.00    +0.231 C 
ATOM     24  O   UNL     1      -1.714   2.256   1.150  0.00  0.00    -0.274 OA
ATOM     25  H   UNL     1       0.555   0.699   2.544  0.00  0.00    +0.149 HD
BRANCH  22  26
ATOM     26  C   UNL     1      -0.927   1.718   3.671  0.00  0.00    +0.139 C 
BRANCH  26  30
ATOM     27  C   UNL     1       1.139   0.303   7.132  0.00  0.00    +0.000 A 
ATOM     28  C   UNL     1       1.482   1.519   6.571  0.00  0.00    +0.000 A 
ATOM     29  C   UNL     1       0.814   1.977   5.451  0.00  0.00    +0.005 A 
ATOM     30  C   UNL     1      -0.198   1.219   4.892  0.00  0.00    -0.030 A 
ATOM     31  C   UNL     1      -0.546   0.006   5.457  0.00  0.00    +0.005 A 
ATOM     32  C   UNL     1       0.126  -0.454   6.574  0.00  0.00    +0.000 A 
ENDBRANCH  26  30
ENDBRANCH  22  26
ENDBRANCH  21  23
ENDBRANCH   1  21
TORSDOF 5
