REMARK  Name = ZINC64185777
REMARK  9 active torsions:
REMARK  status: ('A' for Active; 'I' for Inactive)
REMARK    1  A    between atoms: C_1  and  C_2
REMARK    2  A    between atoms: N_5  and  C_8
REMARK    3  A    between atoms: C_8  and  C_9
REMARK    4  A    between atoms: C_11  and  N_15
REMARK    5  A    between atoms: C_16  and  C_18
REMARK    6  A    between atoms: C_18  and  C_20
REMARK    7  A    between atoms: C_18  and  N_30
REMARK    8  A    between atoms: C_20  and  C_21
REMARK    9  A    between atoms: C_31  and  C_33
REMARK                            x       y       z     vdW  Elec       q    Type
REMARK                         _______ _______ _______ _____ _____    ______ ____
ROOT
ATOM      1  N   UNL     1       0.106  -3.023   5.978  0.00  0.00    -0.284 N 
ATOM      2  C   UNL     1       0.660  -3.003   7.207  0.00  0.00    +0.236 C 
ATOM      3  O   UNL     1       1.646  -3.670   7.439  0.00  0.00    -0.274 OA
ATOM      4  H   UNL     1      -0.683  -2.490   5.793  0.00  0.00    +0.152 HD
ENDROOT
BRANCH   1   7
ATOM      5  C   UNL     1      -0.233  -4.346   2.792  0.00  0.00    +0.040 C 
ATOM      6  N   UNL     1       0.177  -3.469   3.593  0.00  0.00    -0.258 NA
ATOM      7  C   UNL     1       0.696  -3.851   4.923  0.00  0.00    +0.251 C 
ATOM      8  S   UNL     1       0.102  -5.597   5.033  0.00  0.00    -0.109 S 
ATOM      9  C   UNL     1      -0.192  -5.806   3.223  0.00  0.00    +0.124 C 
BRANCH   5  10
ATOM     10  C   UNL     1      -0.760  -3.960   1.435  0.00  0.00    +0.135 C 
BRANCH  10  15
ATOM     11  C   UNL     1      -0.019   1.526   0.010  0.00  0.00    +0.007 C 
ATOM     12  C   UNL     1       0.002  -0.004   0.002  0.00  0.00    -0.012 C 
ATOM     13  C   UNL     1      -1.434  -0.535   0.021  0.00  0.00    +0.018 C 
ATOM     14  C   UNL     1      -1.406  -2.065   0.074  0.00  0.00    +0.085 C 
ATOM     15  N   UNL     1      -0.688  -2.501   1.278  0.00  0.00    -0.297 NA
ATOM     16  C   UNL     1       0.707  -2.042   1.260  0.00  0.00    +0.085 C 
ATOM     17  C   UNL     1       0.742  -0.513   1.242  0.00  0.00    +0.018 C 
ENDBRANCH  10  15
ENDBRANCH   5  10
ENDBRANCH   1   7
BRANCH   2  18
ATOM     18  C   UNL     1       0.053  -2.151   8.292  0.00  0.00    +0.163 C 
BRANCH  18  19
ATOM     19  N   UNL     1       0.499  -2.637   9.600  0.00  0.00    -0.304 N 
ATOM     20  C   UNL     1       1.813  -2.659   9.899  0.00  0.00    +0.211 C 
ATOM     21  O   UNL     1       2.627  -2.276   9.085  0.00  0.00    -0.276 OA
ATOM     22  C   UNL     1       2.272  -3.159  11.245  0.00  0.00    +0.109 C 
ATOM     23  H   UNL     1      -0.151  -2.943  10.251  0.00  0.00    +0.149 HD
ENDBRANCH  18  19
BRANCH  18  24
ATOM     24  C   UNL     1       0.498  -0.699   8.109  0.00  0.00    +0.065 C 
BRANCH  24  25
ATOM     25  C   UNL     1      -0.204   0.173   9.119  0.00  0.00    -0.039 C 
ATOM     26  C   UNL     1       0.269   0.564  10.324  0.00  0.00    -0.001 A 
ATOM     27  C   UNL     1       1.530   0.305  11.029  0.00  0.00    +0.010 A 
ATOM     28  C   UNL     1       1.720   0.846  12.254  0.00  0.00    +0.001 A 
ATOM     29  C   UNL     1       0.745   1.646  12.865  0.00  0.00    +0.002 A 
ATOM     30  C   UNL     1      -0.439   1.929  12.280  0.00  0.00    +0.026 A 
ATOM     31  C   UNL     1      -0.744   1.412  10.991  0.00  0.00    +0.043 A 
ATOM     32  N   UNL     1      -1.803   1.540  10.228  0.00  0.00    -0.380 N 
ATOM     33  C   UNL     1      -1.578   0.791   8.986  0.00  0.00    +0.144 C 
ATOM     34  H   UNL     1      -2.600   2.048  10.446  0.00  0.00    +0.160 HD
ENDBRANCH  24  25
ENDBRANCH  18  24
ENDBRANCH   2  18
TORSDOF 7
