REMARK  Name = ZINC03298376
REMARK  9 active torsions:
REMARK  status: ('A' for Active; 'I' for Inactive)
REMARK    1  A    between atoms: C_1  and  C_2
REMARK    2  A    between atoms: C_5  and  C_8
REMARK    3  A    between atoms: C_9  and  C_14
REMARK    4  A    between atoms: C_14  and  C_15
REMARK    5  A    between atoms: C_15  and  O_17
REMARK    6  A    between atoms: O_17  and  C_18
REMARK    7  A    between atoms: C_18  and  C_19
REMARK    8  A    between atoms: C_31  and  C_32
REMARK    9  A    between atoms: C_31  and  C_33
REMARK                            x       y       z     vdW  Elec       q    Type
REMARK                         _______ _______ _______ _____ _____    ______ ____
ROOT
ATOM      1  C   UNL     1       0.647  -5.056   3.638  0.00  0.00    +0.312 C 
ATOM      2  O   UNL     1      -0.550  -5.096   3.479  0.00  0.00    -0.250 OA
ENDROOT
BRANCH   1   3
ATOM      3  C   UNL     1       1.566  -5.647   2.600  0.00  0.00    +0.165 C 
BRANCH   3   5
ATOM      4  C   UNL     1       0.308  -5.626   0.324  0.00  0.00    +0.084 A 
ATOM      5  C   UNL     1       0.747  -6.221   1.473  0.00  0.00    +0.030 A 
ATOM      6  S   UNL     1       0.082  -7.868   1.270  0.00  0.00    -0.056 S 
ATOM      7  C   UNL     1      -0.707  -7.600  -0.311  0.00  0.00    +0.156 A 
ATOM      8  N   UNL     1      -0.416  -6.333  -0.540  0.00  0.00    -0.225 NA
ATOM      9  N   UNL     1      -1.436  -8.486  -1.087  0.00  0.00    -0.337 N 
ATOM     10  H   UNL     1      -1.573  -9.397  -0.784  0.00  0.00    +0.144 HD
ATOM     11  H   UNL     1      -1.809  -8.195  -1.934  0.00  0.00    +0.144 HD
BRANCH   4  16
ATOM     12  C   UNL     1       1.557  -0.109  -0.756  0.00  0.00    +0.044 C 
ATOM     13  C   UNL     1       1.231  -1.553  -0.473  0.00  0.00    -0.050 A 
ATOM     14  C   UNL     1       1.163  -2.461  -1.515  0.00  0.00    +0.004 A 
ATOM     15  C   UNL     1       0.865  -3.784  -1.262  0.00  0.00    +0.010 A 
ATOM     16  C   UNL     1       0.631  -4.205   0.046  0.00  0.00    +0.001 A 
ATOM     17  C   UNL     1       0.700  -3.286   1.092  0.00  0.00    +0.010 A 
ATOM     18  C   UNL     1       1.005  -1.966   0.827  0.00  0.00    +0.004 A 
ENDBRANCH   4  16
ENDBRANCH   3   5
ENDBRANCH   1   3
BRANCH   1  19
ATOM     19  O   UNL     1       1.158  -4.484   4.740  0.00  0.00    -0.455 OA
BRANCH  19  20
ATOM     20  C   UNL     1       0.229  -3.944   5.682  0.00  0.00    +0.328 C 
BRANCH  20  21
ATOM     21  C   UNL     1       0.981  -3.349   6.844  0.00  0.00    +0.258 C 
ATOM     22  O   UNL     1       2.183  -3.204   6.779  0.00  0.00    -0.271 OA
ATOM     23  N   UNL     1       0.317  -2.977   7.957  0.00  0.00    -0.253 N 
ATOM     24  C   UNL     1      -1.052  -3.250   8.109  0.00  0.00    +0.059 A 
ATOM     25  C   UNL     1      -1.890  -3.336   7.011  0.00  0.00    +0.025 A 
ATOM     26  C   UNL     1      -3.235  -3.603   7.194  0.00  0.00    +0.002 A 
ATOM     27  C   UNL     1      -3.741  -3.783   8.468  0.00  0.00    +0.002 A 
ATOM     28  C   UNL     1      -2.909  -3.700   9.569  0.00  0.00    +0.025 A 
ATOM     29  C   UNL     1      -1.559  -3.436   9.396  0.00  0.00    +0.055 A 
ATOM     30  N   UNL     1      -0.698  -3.360  10.495  0.00  0.00    -0.282 N 
ATOM     31  C   UNL     1       0.537  -2.837  10.367  0.00  0.00    +0.241 C 
ATOM     32  O   UNL     1       1.283  -2.821  11.323  0.00  0.00    -0.273 OA
ATOM     33  C   UNL     1       1.004  -2.277   9.052  0.00  0.00    +0.113 C 
ATOM     34  C   UNL     1       2.515  -2.477   8.919  0.00  0.00    +0.042 C 
ATOM     35  C   UNL     1       0.676  -0.784   8.991  0.00  0.00    +0.042 C 
ATOM     36  H   UNL     1      -0.993  -3.687  11.360  0.00  0.00    +0.155 HD
ENDBRANCH  20  21
ENDBRANCH  19  20
ENDBRANCH   1  19
TORSDOF 6
