REMARK  Name = ZINC58990166
REMARK  8 active torsions:
REMARK  status: ('A' for Active; 'I' for Inactive)
REMARK    1  A    between atoms: C_3  and  O_27
REMARK    2  A    between atoms: C_4  and  C_8
REMARK    3  A    between atoms: N_9  and  N_10
REMARK    4  A    between atoms: C_11  and  C_13
REMARK    5  A    between atoms: C_13  and  S_14
REMARK    6  A    between atoms: S_14  and  C_15
REMARK    7  A    between atoms: C_18  and  C_21
REMARK    8  A    between atoms: N_19  and  N_20
REMARK                            x       y       z     vdW  Elec       q    Type
REMARK                         _______ _______ _______ _____ _____    ______ ____
ROOT
ATOM      1  C   UNL     1       8.502  -0.753  -0.086  0.00  0.00    +0.174 C 
ENDROOT
BRANCH   1   3
ATOM      2  N   UNL     1       6.029  -0.708  -0.061  0.00  0.00    -0.206 N 
ATOM      3  C   UNL     1       7.187  -0.018  -0.069  0.00  0.00    +0.242 C 
ATOM      4  O   UNL     1       7.170   1.195  -0.062  0.00  0.00    -0.273 OA
ATOM      5  H   UNL     1       6.043  -1.678  -0.066  0.00  0.00    +0.177 HD
BRANCH   2   7
ATOM      6  C   UNL     1       3.692  -0.690  -0.037  0.00  0.00    +0.142 C 
ATOM      7  N   UNL     1       4.806  -0.025  -0.045  0.00  0.00    -0.188 NA
BRANCH   6  11
ATOM      8  C   UNL     1      -0.017   1.381   0.010  0.00  0.00    +0.019 A 
ATOM      9  C   UNL     1       1.166   2.096   0.002  0.00  0.00    +0.047 A 
ATOM     10  C   UNL     1       2.381   1.430  -0.013  0.00  0.00    +0.126 A 
ATOM     11  C   UNL     1       2.405   0.028  -0.021  0.00  0.00    +0.037 A 
ATOM     12  C   UNL     1       1.204  -0.683  -0.013  0.00  0.00    +0.028 A 
ATOM     13  C   UNL     1       0.002  -0.004   0.002  0.00  0.00    +0.019 A 
ATOM     14 BR   UNL     1      -1.625  -0.968   0.012  0.00  0.00    -0.050 Br
BRANCH  10  15
ATOM     15  O   UNL     1       3.543   2.132  -0.021  0.00  0.00    -0.506 OA
ATOM     16  H   UNL     1       3.888   2.331   0.860  0.00  0.00    +0.292 HD
ENDBRANCH  10  15
ENDBRANCH   6  11
ENDBRANCH   2   7
ENDBRANCH   1   3
BRANCH   1  17
ATOM     17  S   UNL     1       9.864   0.446  -0.093  0.00  0.00    -0.075 S 
BRANCH  17  18
ATOM     18  C   UNL     1      11.313  -0.556  -0.113  0.00  0.00    +0.209 A 
ATOM     19  N   UNL     1      11.353  -1.871  -0.126  0.00  0.00    -0.121 NA
ATOM     20  N   UNL     1      12.573  -2.276  -0.139  0.00  0.00    -0.127 NA
ATOM     21  C   UNL     1      13.386  -1.245  -0.135  0.00  0.00    +0.182 A 
ATOM     22  N   UNL     1      12.604  -0.113  -0.123  0.00  0.00    -0.224 N 
BRANCH  21  23
ATOM     23  C   UNL     1      14.863  -1.292  -0.145  0.00  0.00    +0.024 A 
ATOM     24  C   UNL     1      15.622  -0.160   0.177  0.00  0.00    +0.031 A 
ATOM     25  C   UNL     1      16.997  -0.248   0.154  0.00  0.00    +0.111 A 
ATOM     26  N   UNL     1      17.599  -1.379  -0.165  0.00  0.00    -0.263 NA
ATOM     27  C   UNL     1      16.922  -2.469  -0.476  0.00  0.00    +0.111 A 
ATOM     28  C   UNL     1      15.543  -2.471  -0.473  0.00  0.00    +0.031 A 
ENDBRANCH  21  23
BRANCH  22  29
ATOM     29  N   UNL     1      13.030   1.185  -0.119  0.00  0.00    -0.295 N 
ATOM     30  H   UNL     1      13.153   1.523   0.823  0.00  0.00    +0.163 HD
ATOM     31  H   UNL     1      13.880   1.288  -0.654  0.00  0.00    +0.163 HD
ENDBRANCH  22  29
ENDBRANCH  17  18
ENDBRANCH   1  17
TORSDOF 8
