REMARK  Name = ZINC25755124
REMARK  9 active torsions:
REMARK  status: ('A' for Active; 'I' for Inactive)
REMARK    1  A    between atoms: C_1  and  C_2
REMARK    2  A    between atoms: C_5  and  N_9
REMARK    3  A    between atoms: C_13  and  S_14
REMARK    4  A    between atoms: S_14  and  C_15
REMARK    5  A    between atoms: C_15  and  C_16
REMARK    6  A    between atoms: N_18  and  C_19
REMARK    7  A    between atoms: C_25  and  C_27
REMARK    8  A    between atoms: C_27  and  C_28
REMARK    9  A    between atoms: C_27  and  C_29
REMARK                            x       y       z     vdW  Elec       q    Type
REMARK                         _______ _______ _______ _____ _____    ______ ____
ROOT
ATOM      1  C   UNL     1       5.240   2.135  -2.781  0.00  0.00    +0.173 C 
ENDROOT
BRANCH   1   2
ATOM      2  C   UNL     1       5.526   3.065  -3.932  0.00  0.00    +0.224 C 
ATOM      3  O   UNL     1       4.689   3.868  -4.285  0.00  0.00    -0.275 OA
ATOM      4  N   UNL     1       6.713   3.005  -4.568  0.00  0.00    -0.312 N 
ATOM      5  H   UNL     1       7.472   2.276  -4.248  0.00  0.00    +0.149 HD
BRANCH   4   6
ATOM      6  C   UNL     1       6.990   3.909  -5.687  0.00  0.00    +0.076 C 
ATOM      7  C   UNL     1       6.431   3.309  -6.979  0.00  0.00    +0.041 C 
ATOM      8  C   UNL     1       6.692   4.274  -8.140  0.00  0.00    +0.109 C 
ATOM      9  N   UNL     1       8.129   4.576  -8.188  0.00  0.00    -0.301 N 
ATOM     10  C   UNL     1       8.788   5.073  -6.973  0.00  0.00    +0.109 C 
ATOM     11  C   UNL     1       8.502   4.100  -5.824  0.00  0.00    +0.041 C 
ATOM     12  C   UNL     1       8.830   4.401  -9.326  0.00  0.00    +0.218 C 
ATOM     13  O   UNL     1       9.995   4.734  -9.378  0.00  0.00    -0.275 OA
BRANCH  12  14
ATOM     14  C   UNL     1       8.166   3.792 -10.534  0.00  0.00    +0.069 C 
ATOM     15  C   UNL     1       8.896   4.243 -11.800  0.00  0.00    +0.017 C 
ATOM     16  C   UNL     1       8.220   2.266 -10.430  0.00  0.00    +0.017 C 
ENDBRANCH  12  14
ENDBRANCH   4   6
ENDBRANCH   1   2
BRANCH   1  17
ATOM     17  S   UNL     1       3.578   2.459  -2.142  0.00  0.00    -0.076 S 
BRANCH  17  22
ATOM     18  N   UNL     1       2.463   1.048   0.005  0.00  0.00    -0.277 N 
ATOM     19  C   UNL     1       2.864   0.032   0.832  0.00  0.00    +0.230 A 
ATOM     20  N   UNL     1       4.071  -0.303   0.475  0.00  0.00    -0.137 NA
ATOM     21  N   UNL     1       4.460   0.424  -0.510  0.00  0.00    -0.122 NA
ATOM     22  C   UNL     1       3.512   1.268  -0.845  0.00  0.00    +0.196 A 
BRANCH  18  27
ATOM     23  C   UNL     1      -2.521   3.766   0.082  0.00  0.00    +0.045 C 
ATOM     24  C   UNL     1      -1.198   3.045   0.061  0.00  0.00    -0.032 A 
ATOM     25  C   UNL     1      -1.165   1.662   0.048  0.00  0.00    +0.007 A 
ATOM     26  C   UNL     1       0.046   0.999   0.035  0.00  0.00    +0.026 A 
ATOM     27  C   UNL     1       1.232   1.720   0.024  0.00  0.00    +0.051 A 
ATOM     28  C   UNL     1       1.197   3.107   0.031  0.00  0.00    +0.046 A 
ATOM     29  C   UNL     1      -0.018   3.767   0.050  0.00  0.00    +0.046 A 
ATOM     30 CL   UNL     1      -0.063   5.502   0.059  0.00  0.00    -0.083 Cl
ENDBRANCH  18  27
ENDBRANCH  17  22
ENDBRANCH   1  17
TORSDOF 6
