REMARK  Name = ZINC39710369
REMARK  12 active torsions:
REMARK  status: ('A' for Active; 'I' for Inactive)
REMARK    1  A    between atoms: C_1  and  C_2
REMARK    2  A    between atoms: C_9  and  C_14
REMARK    3  A    between atoms: C_14  and  C_16
REMARK    4  A    between atoms: C_14  and  N_26
REMARK    5  A    between atoms: N_21  and  C_22
REMARK    6  A    between atoms: C_22  and  C_23
REMARK    7  A    between atoms: C_22  and  C_24
REMARK    8  A    between atoms: C_22  and  C_25
REMARK    9  A    between atoms: N_26  and  C_27
REMARK   10  A    between atoms: N_26  and  C_33
REMARK   11  A    between atoms: C_27  and  C_28
REMARK   12  A    between atoms: C_33  and  C_34
REMARK                            x       y       z     vdW  Elec       q    Type
REMARK                         _______ _______ _______ _____ _____    ______ ____
ROOT
ATOM      1  C   UNL     1       1.167  -4.931   2.713  0.00  0.00    -0.008 C 
ENDROOT
BRANCH   1  10
ATOM      2  C   UNL     1      -0.027   1.701   0.348  0.00  0.00    +0.044 C 
ATOM      3  C   UNL     1      -0.040   0.200   0.210  0.00  0.00    -0.050 A 
ATOM      4  C   UNL     1      -0.051  -0.369  -1.063  0.00  0.00    +0.005 A 
ATOM      5  C   UNL     1      -0.063  -1.712  -1.266  0.00  0.00    +0.024 A 
ATOM      6  C   UNL     1      -0.064  -2.599  -0.173  0.00  0.00    +0.040 A 
ATOM      7  N   UNL     1      -0.075  -3.915  -0.384  0.00  0.00    -0.285 N 
ATOM      8  C   UNL     1      -0.078  -4.803   0.596  0.00  0.00    +0.223 C 
ATOM      9  O   UNL     1      -0.088  -5.993   0.342  0.00  0.00    -0.275 OA
ATOM     10  C   UNL     1      -0.068  -4.334   2.033  0.00  0.00    +0.088 C 
ATOM     11  C   UNL     1      -0.054  -2.838   2.278  0.00  0.00    -0.006 C 
ATOM     12  C   UNL     1      -0.053  -2.026   1.183  0.00  0.00    -0.007 A 
ATOM     13  C   UNL     1      -0.035  -0.570   1.329  0.00  0.00    +0.012 A 
ATOM     14  H   UNL     1      -0.082  -4.237  -1.299  0.00  0.00    +0.155 HD
ENDBRANCH   1  10
BRANCH   1  15
ATOM     15  C   UNL     1       2.424  -4.507   1.951  0.00  0.00    +0.205 C 
ATOM     16  N   UNL     1       2.501  -5.206   0.661  0.00  0.00    -0.152 NA
ATOM     17  N   UNL     1       3.528  -5.889   0.639  0.00  0.00    -0.070 NA
ATOM     18  N   UNL     1       4.273  -5.787   1.813  0.00  0.00    -0.179 N 
ATOM     19  N   UNL     1       3.637  -4.933   2.680  0.00  0.00    -0.183 NA
ATOM     20  H   UNL     1       5.109  -6.246   1.989  0.00  0.00    +0.191 HD
BRANCH  19  21
ATOM     21  C   UNL     1       4.487  -3.780   3.006  0.00  0.00    +0.035 C 
ATOM     22  C   UNL     1       3.693  -2.785   3.855  0.00  0.00    +0.029 C 
ATOM     23  C   UNL     1       5.713  -4.255   3.788  0.00  0.00    +0.029 C 
ATOM     24  C   UNL     1       4.940  -3.099   1.713  0.00  0.00    +0.029 C 
ENDBRANCH  19  21
ENDBRANCH   1  15
BRANCH   1  25
ATOM     25  N   UNL     1       1.065  -6.397   2.713  0.00  0.00    +0.392 N 
ATOM     26  H   UNL     1       1.129  -6.738   1.766  0.00  0.00    -0.080 HD
BRANCH  25  27
ATOM     27  C   UNL     1       2.158  -6.964   3.514  0.00  0.00    -0.002 C 
BRANCH  27  28
ATOM     28  C   UNL     1       2.080  -8.468   3.477  0.00  0.00    +0.089 A 
ATOM     29  C   UNL     1       2.745  -9.270   2.625  0.00  0.00    +0.042 A 
ATOM     30  C   UNL     1       2.378 -10.598   2.943  0.00  0.00    +0.041 A 
ATOM     31  C   UNL     1       1.512 -10.528   3.970  0.00  0.00    +0.195 A 
ATOM     32  O   UNL     1       1.339  -9.236   4.292  0.00  0.00    -0.470 OA
ENDBRANCH  27  28
ENDBRANCH  25  27
BRANCH  25  33
ATOM     33  C   UNL     1      -0.225  -6.798   3.291  0.00  0.00    -0.034 C 
BRANCH  33  34
ATOM     34  C   UNL     1      -0.355  -6.220   4.677  0.00  0.00    -0.027 A 
ATOM     35  C   UNL     1      -0.957  -5.071   5.069  0.00  0.00    +0.009 A 
ATOM     36  C   UNL     1      -0.955  -4.737   6.411  0.00  0.00    +0.008 A 
ATOM     37  C   UNL     1      -0.351  -5.570   7.294  0.00  0.00    +0.045 A 
ATOM     38  S   UNL     1       0.235  -6.877   6.229  0.00  0.00    -0.103 S 
ENDBRANCH  33  34
ENDBRANCH  25  33
ENDBRANCH   1  25
TORSDOF 8
