REMARK  Name = ZINC39359449
REMARK  5 active torsions:
REMARK  status: ('A' for Active; 'I' for Inactive)
REMARK    1  A    between atoms: C_1  and  C_2
REMARK    2  A    between atoms: C_2  and  C_29
REMARK    3  A    between atoms: C_6  and  C_15
REMARK    4  A    between atoms: C_18  and  O_21
REMARK    5  A    between atoms: O_21  and  C_22
REMARK                            x       y       z     vdW  Elec       q    Type
REMARK                         _______ _______ _______ _____ _____    ______ ____
ROOT
ATOM      1  C   UNL     1      -0.019   1.526   0.010  0.00  0.00    +0.011 C 
ATOM      2  C   UNL     1       0.002  -0.004   0.002  0.00  0.00    -0.023 C 
ATOM      3  C   UNL     1      -1.430  -0.539   0.041  0.00  0.00    +0.058 C 
ATOM      4  C   UNL     1      -1.408  -2.051   0.064  0.00  0.00    +0.017 C 
ATOM      5  C   UNL     1      -0.396  -2.714   0.664  0.00  0.00    +0.024 C 
ATOM      6  C   UNL     1      -0.347  -4.228   0.721  0.00  0.00    +0.092 C 
ATOM      7  C   UNL     1      -1.355  -4.788  -0.230  0.00  0.00    +0.071 C 
ATOM      8  C   UNL     1      -2.336  -4.040  -0.812  0.00  0.00    +0.152 C 
ATOM      9  N   UNL     1      -2.452  -2.696  -0.552  0.00  0.00    -0.301 N 
ATOM     10  N   UNL     1      -3.064  -4.881  -1.611  0.00  0.00    -0.141 NA
ATOM     11  N   UNL     1      -2.633  -6.040  -1.576  0.00  0.00    -0.074 NA
ATOM     12  C   UNL     1      -1.562  -6.137  -0.753  0.00  0.00    +0.285 C 
ATOM     13  O   UNL     1      -0.913  -7.131  -0.504  0.00  0.00    -0.267 OA
ATOM     14  C   UNL     1       0.671  -2.019   1.265  0.00  0.00    +0.162 C 
ATOM     15  O   UNL     1       1.555  -2.647   1.813  0.00  0.00    -0.292 OA
ATOM     16  C   UNL     1       0.742  -0.517   1.242  0.00  0.00    +0.086 C 
ATOM     17  C   UNL     1       0.705  -0.503  -1.262  0.00  0.00    +0.011 C 
ATOM     18  H   UNL     1      -3.255  -2.212  -0.799  0.00  0.00    +0.153 HD
ENDROOT
BRANCH   6  19
ATOM     19  C   UNL     1      -0.662  -4.690   2.120  0.00  0.00    -0.035 A 
ATOM     20  C   UNL     1      -1.882  -4.378   2.692  0.00  0.00    +0.008 A 
ATOM     21  C   UNL     1      -2.172  -4.800   3.974  0.00  0.00    +0.046 A 
ATOM     22  C   UNL     1      -1.240  -5.537   4.689  0.00  0.00    +0.130 A 
ATOM     23  C   UNL     1      -0.016  -5.849   4.113  0.00  0.00    +0.046 A 
ATOM     24  C   UNL     1       0.268  -5.429   2.828  0.00  0.00    +0.008 A 
BRANCH  22  25
ATOM     25  O   UNL     1      -1.523  -5.953   5.952  0.00  0.00    -0.406 OA
BRANCH  25  26
ATOM     26  C   UNL     1      -0.515  -6.708   6.628  0.00  0.00    +0.575 C 
ATOM     27  F   UNL     1       0.648  -5.939   6.738  0.00  0.00    -0.133 F 
ATOM     28  F   UNL     1      -0.969  -7.052   7.906  0.00  0.00    -0.133 F 
ATOM     29  F   UNL     1      -0.239  -7.871   5.902  0.00  0.00    -0.133 F 
ENDBRANCH  25  26
ENDBRANCH  22  25
ENDBRANCH   6  19
TORSDOF 3
