REMARK  Name = ZINC25421904
REMARK  8 active torsions:
REMARK  status: ('A' for Active; 'I' for Inactive)
REMARK    1  A    between atoms: C_1  and  C_2
REMARK    2  A    between atoms: C_2  and  O_3
REMARK    3  A    between atoms: O_3  and  C_4
REMARK    4  A    between atoms: C_4  and  C_6
REMARK    5  A    between atoms: C_7  and  C_15
REMARK    6  A    between atoms: C_12  and  C_14
REMARK    7  A    between atoms: C_15  and  N_16
REMARK    8  A    between atoms: C_20  and  C_22
REMARK                            x       y       z     vdW  Elec       q    Type
REMARK                         _______ _______ _______ _____ _____    ______ ____
ROOT
ATOM      1  C   UNL     1       2.620   0.143   2.283  0.00  0.00    -0.026 C 
ENDROOT
BRANCH   1   3
ATOM      2  C   UNL     1       1.029  -1.226   3.583  0.00  0.00    +0.072 C 
ATOM      3  C   UNL     1       2.274  -1.088   3.079  0.00  0.00    +0.007 C 
ATOM      4  N   UNL     1       3.227  -2.045   3.285  0.00  0.00    -0.274 N 
ATOM      5  C   UNL     1       3.013  -3.169   3.979  0.00  0.00    +0.304 C 
ATOM      6  O   UNL     1       3.924  -3.963   4.109  0.00  0.00    -0.253 OA
ATOM      7  N   UNL     1       1.819  -3.451   4.538  0.00  0.00    -0.292 N 
ATOM      8  C   UNL     1       0.722  -2.482   4.373  0.00  0.00    +0.110 C 
ATOM      9  C   UNL     1      -0.444  -3.201   3.692  0.00  0.00    +0.033 C 
ATOM     10  H   UNL     1       4.237  -1.912   2.870  0.00  0.00    +0.156 HD
ATOM     11  H   UNL     1       1.653  -4.378   5.106  0.00  0.00    +0.151 HD
BRANCH   2  12
ATOM     12  C   UNL     1       0.042  -0.233   3.375  0.00  0.00    +0.338 C 
ATOM     13  O   UNL     1       0.271   0.707   2.638  0.00  0.00    -0.245 OA
BRANCH  12  14
ATOM     14  O   UNL     1      -1.153  -0.330   3.995  0.00  0.00    -0.462 OA
BRANCH  14  16
ATOM     15  C   UNL     1      -3.385   0.429   4.523  0.00  0.00    +0.048 C 
ATOM     16  C   UNL     1      -2.101   0.708   3.740  0.00  0.00    +0.229 C 
ENDBRANCH  14  16
ENDBRANCH  12  14
ENDBRANCH   2  12
ENDBRANCH   1   3
BRANCH   1  17
ATOM     17  N   UNL     1       2.367  -0.108   0.858  0.00  0.00    +0.388 N 
ATOM     18  C   UNL     1       3.416  -0.986   0.278  0.00  0.00    -0.078 C 
ATOM     19  C   UNL     1       3.345  -0.725  -1.242  0.00  0.00    -0.020 C 
ATOM     20  C   UNL     1       2.719   0.678  -1.379  0.00  0.00    -0.013 C 
ATOM     21  C   UNL     1       2.465   1.147   0.070  0.00  0.00    -0.037 C 
ATOM     22  H   UNL     1       1.364  -0.559   0.817  0.00  0.00    -0.080 HD
BRANCH  21  23
ATOM     23  C   UNL     1       1.175   1.922   0.152  0.00  0.00    -0.057 A 
ATOM     24  C   UNL     1      -0.033   1.250   0.177  0.00  0.00    +0.006 A 
ATOM     25  C   UNL     1      -1.218   1.957   0.246  0.00  0.00    +0.049 A 
ATOM     26  C   UNL     1      -1.198   3.343   0.303  0.00  0.00    +0.162 A 
ATOM     27  C   UNL     1       0.016   4.018   0.281  0.00  0.00    +0.162 A 
ATOM     28  C   UNL     1       1.202   3.303   0.204  0.00  0.00    +0.051 A 
ATOM     29  O   UNL     1       0.058   5.377   0.339  0.00  0.00    -0.485 OA
ATOM     30  C   UNL     1      -1.157   6.073   0.040  0.00  0.00    +0.270 C 
ATOM     31  C   UNL     1      -2.302   5.390   0.800  0.00  0.00    +0.270 C 
ATOM     32  O   UNL     1      -2.374   4.026   0.371  0.00  0.00    -0.485 OA
ENDBRANCH  21  23
ENDBRANCH   1  17
TORSDOF 6
