REMARK  Name = ZINC39448981
REMARK  8 active torsions:
REMARK  status: ('A' for Active; 'I' for Inactive)
REMARK    1  A    between atoms: C_1  and  C_2
REMARK    2  A    between atoms: C_4  and  S_16
REMARK    3  A    between atoms: C_7  and  C_8
REMARK    4  A    between atoms: C_8  and  C_9
REMARK    5  A    between atoms: C_12  and  O_15
REMARK    6  A    between atoms: S_16  and  C_17
REMARK    7  A    between atoms: C_17  and  C_18
REMARK    8  A    between atoms: N_23  and  C_26
REMARK                            x       y       z     vdW  Elec       q    Type
REMARK                         _______ _______ _______ _____ _____    ______ ____
ROOT
ATOM      1  C   UNL     1       4.200  -2.568  -0.970  0.00  0.00    +0.225 C 
ATOM      2  O   UNL     1       4.221  -3.554  -1.676  0.00  0.00    -0.275 OA
ATOM      3  N   UNL     1       5.355  -1.998  -0.574  0.00  0.00    -0.304 N 
ATOM      4  C   UNL     1       5.354  -0.806   0.288  0.00  0.00    +0.089 C 
ATOM      5  C   UNL     1       6.266   0.251  -0.342  0.00  0.00    -0.059 C 
ATOM      6  N   UNL     1       7.596  -0.328  -0.575  0.00  0.00    +0.385 N 
ATOM      7  C   UNL     1       7.505  -1.411  -1.562  0.00  0.00    -0.059 C 
ATOM      8  C   UNL     1       6.653  -2.553  -0.987  0.00  0.00    +0.089 C 
ATOM      9  H   UNL     1       7.958  -0.695   0.293  0.00  0.00    -0.081 HD
ENDROOT
BRANCH   6  10
ATOM     10  C   UNL     1       8.501   0.715  -1.077  0.00  0.00    -0.065 C 
ATOM     11  C   UNL     1       7.952   1.278  -2.389  0.00  0.00    -0.009 C 
ATOM     12  C   UNL     1       8.894   2.364  -2.912  0.00  0.00    -0.012 C 
ATOM     13  C   UNL     1      10.280   1.763  -3.155  0.00  0.00    +0.007 C 
ATOM     14  C   UNL     1      10.829   1.200  -1.842  0.00  0.00    -0.012 C 
ATOM     15  C   UNL     1       9.887   0.114  -1.319  0.00  0.00    -0.009 C 
ATOM     16  C   UNL     1      10.934   2.324  -0.810  0.00  0.00    +0.007 C 
ATOM     17  C   UNL     1       9.548   2.925  -0.567  0.00  0.00    -0.012 C 
ATOM     18  C   UNL     1       8.999   3.488  -1.880  0.00  0.00    +0.007 C 
ATOM     19  C   UNL     1       8.606   1.839  -0.044  0.00  0.00    -0.009 C 
ENDBRANCH   6  10
BRANCH   1  20
ATOM     20  C   UNL     1       2.882  -1.982  -0.534  0.00  0.00    +0.169 C 
BRANCH  20  21
ATOM     21  S   UNL     1       1.524  -2.967  -1.224  0.00  0.00    -0.102 S 
BRANCH  21  25
ATOM     22  C   UNL     1      -0.018   1.503   0.010  0.00  0.00    +0.067 C 
ATOM     23  C   UNL     1       0.002  -0.004   0.002  0.00  0.00    +0.057 C 
ATOM     24  N   UNL     1       0.008  -0.741  -1.058  0.00  0.00    -0.250 NA
ATOM     25  C   UNL     1       0.029  -2.140  -0.615  0.00  0.00    +0.280 C 
ATOM     26  N   UNL     1       0.034  -2.100   0.853  0.00  0.00    -0.250 NA
ATOM     27  C   UNL     1       0.025  -0.857   1.201  0.00  0.00    +0.064 C 
BRANCH  27  28
ATOM     28  C   UNL     1       0.033  -0.354   2.622  0.00  0.00    +0.092 C 
BRANCH  28  29
ATOM     29  C   UNL     1       0.057  -1.526   3.569  0.00  0.00    -0.041 A 
ATOM     30  C   UNL     1      -1.129  -2.082   4.010  0.00  0.00    +0.007 A 
ATOM     31  C   UNL     1      -1.110  -3.156   4.879  0.00  0.00    +0.045 A 
ATOM     32  C   UNL     1       0.102  -3.677   5.308  0.00  0.00    +0.117 A 
ATOM     33  C   UNL     1       1.292  -3.118   4.864  0.00  0.00    +0.045 A 
ATOM     34  C   UNL     1       1.266  -2.047   3.991  0.00  0.00    +0.007 A 
BRANCH  32  35
ATOM     35  O   UNL     1       0.125  -4.733   6.163  0.00  0.00    -0.507 OA
ATOM     36  H   UNL     1       0.135  -5.595   5.724  0.00  0.00    +0.292 HD
ENDBRANCH  32  35
ENDBRANCH  28  29
ENDBRANCH  27  28
ENDBRANCH  21  25
ENDBRANCH  20  21
ENDBRANCH   1  20
TORSDOF 7
