REMARK  Name = ZINC49152261
REMARK  5 active torsions:
REMARK  status: ('A' for Active; 'I' for Inactive)
REMARK    1  A    between atoms: C_3  and  N_12
REMARK    2  A    between atoms: C_4  and  N_11
REMARK    3  A    between atoms: C_6  and  S_7
REMARK    4  A    between atoms: S_7  and  N_10
REMARK    5  A    between atoms: N_12  and  C_13
REMARK                            x       y       z     vdW  Elec       q    Type
REMARK                         _______ _______ _______ _____ _____    ______ ____
ROOT
ATOM      1  C   UNL     1      -0.042   1.512  -0.075  0.00  0.00    +0.030 A 
ATOM      2  C   UNL     1       1.171   2.159   0.076  0.00  0.00    +0.027 A 
ATOM      3  C   UNL     1       2.354   1.482  -0.173  0.00  0.00    +0.052 A 
ATOM      4  C   UNL     1       2.317   0.147  -0.577  0.00  0.00    +0.048 A 
ATOM      5  C   UNL     1       1.097  -0.494  -0.727  0.00  0.00    +0.053 A 
ATOM      6  C   UNL     1      -0.079   0.189  -0.475  0.00  0.00    +0.107 A 
ENDROOT
BRANCH   6   7
ATOM      7  S   UNL     1      -1.628  -0.628  -0.666  0.00  0.00    +0.056 S 
ATOM      8  O   UNL     1      -1.374  -2.019  -0.521  0.00  0.00    -0.153 OA
ATOM      9  O   UNL     1      -2.557   0.066   0.156  0.00  0.00    -0.153 OA
BRANCH   7  10
ATOM     10  N   UNL     1      -2.115  -0.396  -2.231  0.00  0.00    -0.204 NA
ATOM     11  H   UNL     1      -2.661  -1.064  -2.673  0.00  0.00    +0.144 HD
ATOM     12  H   UNL     1      -1.854   0.408  -2.706  0.00  0.00    +0.144 HD
ENDBRANCH   7  10
ENDBRANCH   6   7
BRANCH   4  13
ATOM     13  N   UNL     1       3.508  -0.543  -0.832  0.00  0.00    -0.356 N 
ATOM     14  H   UNL     1       4.361  -0.093  -0.727  0.00  0.00    +0.142 HD
ATOM     15  H   UNL     1       3.481  -1.471  -1.113  0.00  0.00    +0.142 HD
ENDBRANCH   4  13
BRANCH   3  16
ATOM     16  N   UNL     1       3.583   2.135  -0.021  0.00  0.00    -0.312 N 
ATOM     17  H   UNL     1       4.405   1.688  -0.275  0.00  0.00    +0.152 HD
BRANCH  16  18
ATOM     18  C   UNL     1       3.625   3.433   0.497  0.00  0.00    +0.046 A 
ATOM     19  C   UNL     1       2.842   3.770   1.594  0.00  0.00    +0.025 A 
ATOM     20  C   UNL     1       2.886   5.053   2.103  0.00  0.00    +0.017 A 
ATOM     21  C   UNL     1       3.707   6.003   1.522  0.00  0.00    +0.019 A 
ATOM     22  C   UNL     1       4.488   5.671   0.428  0.00  0.00    +0.032 A 
ATOM     23  C   UNL     1       4.454   4.387  -0.082  0.00  0.00    +0.040 A 
ATOM     24 BR   UNL     1       5.527   3.932  -1.571  0.00  0.00    -0.048 Br
ATOM     25 BR   UNL     1       3.763   7.758   2.222  0.00  0.00    -0.050 Br
ENDBRANCH  16  18
ENDBRANCH   3  16
TORSDOF 5
