REMARK  Name = ZINC61613860
REMARK  5 active torsions:
REMARK  status: ('A' for Active; 'I' for Inactive)
REMARK    1  A    between atoms: C_4  and  C_7
REMARK    2  A    between atoms: C_7  and  C_9
REMARK    3  A    between atoms: C_7  and  C_11
REMARK    4  A    between atoms: C_9  and  N_10
REMARK    5  A    between atoms: C_14  and  C_17
REMARK                            x       y       z     vdW  Elec       q    Type
REMARK                         _______ _______ _______ _____ _____    ______ ____
ROOT
ATOM      1  C   UNL     1       3.711  -0.707  -0.038  0.00  0.00    +0.067 C 
ENDROOT
BRANCH   1   5
ATOM      2  C   UNL     1      -0.017   1.378   0.010  0.00  0.00    +0.000 A 
ATOM      3  C   UNL     1       1.171   2.086   0.002  0.00  0.00    +0.000 A 
ATOM      4  C   UNL     1       2.377   1.411  -0.013  0.00  0.00    +0.004 A 
ATOM      5  C   UNL     1       2.396   0.029  -0.020  0.00  0.00    -0.039 A 
ATOM      6  C   UNL     1       1.208  -0.679  -0.012  0.00  0.00    +0.004 A 
ATOM      7  C   UNL     1       0.002  -0.004   0.002  0.00  0.00    +0.000 A 
ENDBRANCH   1   5
BRANCH   1   8
ATOM      8  C   UNL     1       3.816  -1.579   1.188  0.00  0.00    +0.113 A 
ATOM      9  N   UNL     1       2.784  -2.233   1.781  0.00  0.00    -0.341 N 
ATOM     10  H   UNL     1       1.857  -2.226   1.498  0.00  0.00    +0.167 HD
ATOM     11  C   UNL     1       3.306  -2.910   2.862  0.00  0.00    +0.073 A 
ATOM     12  C   UNL     1       4.641  -2.636   2.881  0.00  0.00    +0.139 A 
ATOM     13  N   UNL     1       4.913  -1.831   1.848  0.00  0.00    -0.240 NA
BRANCH  11  14
ATOM     14  C   UNL     1       2.566  -3.760   3.810  0.00  0.00    +0.038 A 
ATOM     15  C   UNL     1       3.034  -4.448   4.900  0.00  0.00    +0.019 A 
ATOM     16  C   UNL     1       2.143  -5.186   5.649  0.00  0.00    +0.023 A 
ATOM     17  C   UNL     1       0.834  -5.209   5.286  0.00  0.00    +0.056 A 
ATOM     18  S   UNL     1       0.826  -4.157   3.844  0.00  0.00    -0.080 S 
ATOM     19 BR   UNL     1      -0.609  -6.118   6.103  0.00  0.00    -0.043 Br
ENDBRANCH  11  14
ENDBRANCH   1   8
BRANCH   1  20
ATOM     20  C   UNL     1       3.791  -1.579  -1.292  0.00  0.00    -0.071 C 
BRANCH  20  21
ATOM     21  N   UNL     1       3.810  -0.722  -2.485  0.00  0.00    +0.379 N 
ATOM     22  H   UNL     1       3.862  -1.297  -3.312  0.00  0.00    -0.090 HD
ATOM     23  H   UNL     1       2.967  -0.167  -2.513  0.00  0.00    -0.090 HD
ATOM     24  H   UNL     1       4.612  -0.111  -2.447  0.00  0.00    -0.090 HD
ENDBRANCH  20  21
ENDBRANCH   1  20
TORSDOF 5
