REMARK  Name = ZINC39926574
REMARK  4 active torsions:
REMARK  status: ('A' for Active; 'I' for Inactive)
REMARK    1  A    between atoms: C_5  and  C_7
REMARK    2  A    between atoms: C_11  and  S_25
REMARK    3  A    between atoms: N_13  and  N_14
REMARK    4  A    between atoms: C_15  and  C_16
REMARK                            x       y       z     vdW  Elec       q    Type
REMARK                         _______ _______ _______ _____ _____    ______ ____
ROOT
ATOM      1  C   UNL     1       1.229  -2.186  -0.022  0.00  0.00    +0.207 C 
ATOM      2  N   UNL     1       2.353  -2.683   0.803  0.00  0.00    -0.229 NA
ATOM      3  N   UNL     1       1.820  -3.886   1.462  0.00  0.00    -0.225 NA
ATOM      4  C   UNL     1       0.414  -3.507   1.761  0.00  0.00    +0.231 C 
ATOM      5  N   UNL     1      -0.006  -2.711   0.588  0.00  0.00    -0.205 N 
ATOM      6  H   UNL     1       3.151  -2.909   0.228  0.00  0.00    +0.143 HD
ATOM      7  H   UNL     1       2.327  -4.089   2.310  0.00  0.00    +0.143 HD
ENDROOT
BRANCH   1  12
ATOM      8  C   UNL     1      -0.017   1.378   0.010  0.00  0.00    +0.000 A 
ATOM      9  C   UNL     1       1.171   2.086   0.002  0.00  0.00    +0.001 A 
ATOM     10  C   UNL     1       2.377   1.412  -0.013  0.00  0.00    +0.020 A 
ATOM     11  C   UNL     1       2.397   0.029  -0.021  0.00  0.00    +0.047 A 
ATOM     12  C   UNL     1       1.208  -0.679  -0.013  0.00  0.00    +0.008 A 
ATOM     13  C   UNL     1       0.002  -0.004   0.002  0.00  0.00    +0.008 A 
ATOM     14 CL   UNL     1       3.912  -0.818  -0.041  0.00  0.00    -0.083 Cl
ENDBRANCH   1  12
BRANCH   5  15
ATOM     15  N   UNL     1      -1.213  -2.514   0.179  0.00  0.00    -0.188 NA
ATOM     16  C   UNL     1      -2.221  -3.049   0.827  0.00  0.00    +0.136 C 
BRANCH  16  17
ATOM     17  C   UNL     1      -3.529  -2.836   0.384  0.00  0.00    +0.000 C 
ATOM     18  C   UNL     1      -4.705  -3.324   0.958  0.00  0.00    +0.004 A 
ATOM     19  C   UNL     1      -4.950  -4.133   2.088  0.00  0.00    +0.010 A 
ATOM     20  C   UNL     1      -6.226  -4.458   2.420  0.00  0.00    +0.001 A 
ATOM     21  C   UNL     1      -7.314  -4.011   1.667  0.00  0.00    +0.002 A 
ATOM     22  C   UNL     1      -7.152  -3.231   0.569  0.00  0.00    +0.026 A 
ATOM     23  C   UNL     1      -5.848  -2.850   0.161  0.00  0.00    +0.043 A 
ATOM     24  N   UNL     1      -5.431  -2.112  -0.849  0.00  0.00    -0.380 N 
ATOM     25  C   UNL     1      -3.968  -2.023  -0.813  0.00  0.00    +0.150 C 
ATOM     26  H   UNL     1      -6.003  -1.692  -1.511  0.00  0.00    +0.160 HD
ENDBRANCH  16  17
ENDBRANCH   5  15
BRANCH   4  27
ATOM     27  S   UNL     1       0.333  -2.507   3.272  0.00  0.00    -0.138 S 
ATOM     28  H   UNL     1       0.814  -3.323   4.228  0.00  0.00    +0.105 HD
ENDBRANCH   4  27
TORSDOF 4
