REMARK  Name = ZINC63491240
REMARK  10 active torsions:
REMARK  status: ('A' for Active; 'I' for Inactive)
REMARK    1  A    between atoms: C_1  and  C_2
REMARK    2  A    between atoms: C_7  and  O_32
REMARK    3  A    between atoms: C_13  and  C_15
REMARK    4  A    between atoms: C_15  and  C_16
REMARK    5  A    between atoms: N_18  and  C_19
REMARK    6  A    between atoms: C_19  and  C_21
REMARK    7  A    between atoms: C_19  and  C_22
REMARK    8  A    between atoms: C_22  and  C_23
REMARK    9  A    between atoms: O_32  and  C_33
REMARK   10  A    between atoms: C_33  and  C_35
REMARK                            x       y       z     vdW  Elec       q    Type
REMARK                         _______ _______ _______ _____ _____    ______ ____
ROOT
ATOM      1  C   UNL     1       1.134  -1.994   0.943  0.00  0.00    +0.111 C 
ENDROOT
BRANCH   1  13
ATOM      2  C   UNL     1      -0.028   1.541   0.015  0.00  0.00    +0.013 C 
ATOM      3  C   UNL     1      -0.003   0.012  -0.038  0.00  0.00    +0.034 C 
ATOM      4  C   UNL     1      -1.416  -0.514  -0.021  0.00  0.00    +0.000 A 
ATOM      5  C   UNL     1      -2.137  -0.506  -1.206  0.00  0.00    +0.031 A 
ATOM      6  C   UNL     1      -3.437  -0.971  -1.237  0.00  0.00    +0.084 A 
ATOM      7  C   UNL     1      -4.030  -1.449  -0.076  0.00  0.00    +0.153 A 
ATOM      8  C   UNL     1      -3.312  -1.461   1.108  0.00  0.00    +0.094 A 
ATOM      9  C   UNL     1      -2.002  -0.996   1.136  0.00  0.00    +0.139 A 
ATOM     10  O   UNL     1      -1.326  -1.043   2.317  0.00  0.00    -0.425 OA
ATOM     11  C   UNL     1      -0.139  -0.408   2.381  0.00  0.00    +0.316 C 
ATOM     12  O   UNL     1       0.188   0.226   3.357  0.00  0.00    -0.250 OA
ATOM     13  C   UNL     1       0.765  -0.527   1.173  0.00  0.00    +0.114 C 
ATOM     14 CL   UNL     1      -4.329  -0.957  -2.726  0.00  0.00    -0.080 Cl
BRANCH   7  15
ATOM     15  O   UNL     1      -5.311  -1.903  -0.101  0.00  0.00    -0.424 OA
BRANCH  15  16
ATOM     16  C   UNL     1      -5.526  -3.159  -0.526  0.00  0.00    +0.309 C 
ATOM     17  O   UNL     1      -4.590  -3.880  -0.777  0.00  0.00    -0.251 OA
ATOM     18  C   UNL     1      -6.935  -3.667  -0.691  0.00  0.00    +0.136 C 
ENDBRANCH  15  16
ENDBRANCH   7  15
ENDBRANCH   1  13
BRANCH   1  19
ATOM     19  C   UNL     1       1.993  -2.480   2.081  0.00  0.00    +0.214 C 
ATOM     20  O   UNL     1       2.283  -1.728   2.987  0.00  0.00    -0.276 OA
ATOM     21  N   UNL     1       2.441  -3.752   2.092  0.00  0.00    -0.312 N 
ATOM     22  H   UNL     1       2.209  -4.354   1.368  0.00  0.00    +0.149 HD
BRANCH  21  23
ATOM     23  C   UNL     1       3.276  -4.224   3.199  0.00  0.00    +0.074 C 
ATOM     24  C   UNL     1       2.382  -4.684   4.353  0.00  0.00    +0.028 C 
BRANCH  23  25
ATOM     25  C   UNL     1       4.137  -5.396   2.723  0.00  0.00    +0.055 C 
BRANCH  25  26
ATOM     26  C   UNL     1       5.103  -4.916   1.671  0.00  0.00    -0.040 C 
ATOM     27  C   UNL     1       6.385  -4.527   1.861  0.00  0.00    -0.001 A 
ATOM     28  C   UNL     1       7.231  -4.439   3.058  0.00  0.00    +0.010 A 
ATOM     29  C   UNL     1       8.504  -4.003   2.930  0.00  0.00    +0.001 A 
ATOM     30  C   UNL     1       9.036  -3.634   1.687  0.00  0.00    +0.002 A 
ATOM     31  C   UNL     1       8.321  -3.688   0.543  0.00  0.00    +0.026 A 
ATOM     32  C   UNL     1       6.970  -4.132   0.560  0.00  0.00    +0.043 A 
ATOM     33  N   UNL     1       6.085  -4.270  -0.397  0.00  0.00    -0.380 N 
ATOM     34  C   UNL     1       4.838  -4.776   0.189  0.00  0.00    +0.144 C 
ATOM     35  H   UNL     1       6.231  -4.075  -1.336  0.00  0.00    +0.160 HD
ENDBRANCH  25  26
ENDBRANCH  23  25
ENDBRANCH  21  23
ENDBRANCH   1  19
TORSDOF 7
