REMARK  Name = ZINC67381100
REMARK  4 active torsions:
REMARK  status: ('A' for Active; 'I' for Inactive)
REMARK    1  A    between atoms: C_1  and  C_2
REMARK    2  A    between atoms: C_6  and  C_7
REMARK    3  A    between atoms: N_9  and  N_10
REMARK    4  A    between atoms: N_13  and  C_14
REMARK                            x       y       z     vdW  Elec       q    Type
REMARK                         _______ _______ _______ _____ _____    ______ ____
ROOT
ATOM      1  N   UNL     1       0.058  -0.732   4.900  0.00  0.00    -0.218 N 
ATOM      2  C   UNL     1       0.080  -1.625   5.909  0.00  0.00    +0.316 C 
ATOM      3  O   UNL     1       0.086  -1.239   7.062  0.00  0.00    -0.251 OA
ATOM      4  N   UNL     1       0.096  -2.945   5.640  0.00  0.00    -0.293 N 
ATOM      5  H   UNL     1       0.047   0.219   5.094  0.00  0.00    +0.174 HD
ATOM      6  H   UNL     1       0.091  -3.253   4.720  0.00  0.00    +0.151 HD
ENDROOT
BRANCH   4   7
ATOM      7  C   UNL     1       0.119  -3.916   6.737  0.00  0.00    +0.037 C 
ATOM      8  C   UNL     1       1.374  -3.697   7.585  0.00  0.00    +0.029 C 
ATOM      9  C   UNL     1       1.398  -4.711   8.731  0.00  0.00    -0.008 C 
ATOM     10  C   UNL     1       1.412  -6.129   8.156  0.00  0.00    +0.007 C 
ATOM     11  C   UNL     1       0.158  -6.348   7.308  0.00  0.00    -0.008 C 
ATOM     12  C   UNL     1       0.133  -5.334   6.163  0.00  0.00    +0.029 C 
ATOM     13  C   UNL     1      -1.086  -6.163   8.180  0.00  0.00    +0.007 C 
ATOM     14  C   UNL     1      -1.100  -4.745   8.754  0.00  0.00    -0.008 C 
ATOM     15  C   UNL     1       0.155  -4.526   9.602  0.00  0.00    +0.007 C 
ATOM     16  C   UNL     1      -1.125  -3.731   7.609  0.00  0.00    +0.029 C 
ENDBRANCH   4   7
BRANCH   1  19
ATOM     17  C   UNL     1       0.030  -0.283   2.562  0.00  0.00    +0.267 C 
ATOM     18  O   UNL     1       0.016   0.910   2.805  0.00  0.00    -0.268 OA
ATOM     19  N   UNL     1       0.052  -1.176   3.571  0.00  0.00    -0.229 N 
ATOM     20  H   UNL     1       0.063  -2.126   3.378  0.00  0.00    +0.173 HD
BRANCH  17  26
ATOM     21  C   UNL     1      -0.018   1.503   0.010  0.00  0.00    +0.045 C 
ATOM     22  C   UNL     1       0.002  -0.004   0.002  0.00  0.00    -0.031 A 
ATOM     23  C   UNL     1       0.007  -0.729  -1.166  0.00  0.00    +0.011 A 
ATOM     24  C   UNL     1       0.026  -2.083  -1.101  0.00  0.00    +0.046 A 
ATOM     25  S   UNL     1       0.038  -2.416   0.545  0.00  0.00    -0.092 S 
ATOM     26  C   UNL     1       0.023  -0.748   1.172  0.00  0.00    +0.078 A 
ENDBRANCH  17  26
ENDBRANCH   1  19
TORSDOF 3
