REMARK  Name = ZINC02719206
REMARK  4 active torsions:
REMARK  status: ('A' for Active; 'I' for Inactive)
REMARK    1  A    between atoms: C_4  and  C_7
REMARK    2  A    between atoms: C_7  and  S_8
REMARK    3  A    between atoms: S_8  and  C_9
REMARK    4  A    between atoms: C_16  and  C_26
REMARK                            x       y       z     vdW  Elec       q    Type
REMARK                         _______ _______ _______ _____ _____    ______ ____
ROOT
ATOM      1  C   UNL     1       5.786  -1.866   1.477  0.00  0.00    +0.172 A 
ATOM      2  N   UNL     1       6.475  -2.257   2.586  0.00  0.00    -0.322 N 
ATOM      3  C   UNL     1       7.665  -2.925   2.455  0.00  0.00    +0.112 A 
ATOM      4  C   UNL     1       8.145  -3.192   1.211  0.00  0.00    +0.069 A 
ATOM      5  C   UNL     1       7.403  -2.765   0.088  0.00  0.00    +0.280 A 
ATOM      6  N   UNL     1       6.240  -2.121   0.268  0.00  0.00    -0.185 NA
ATOM      7  O   UNL     1       7.816  -2.986  -1.041  0.00  0.00    -0.265 OA
ATOM      8  C   UNL     1       9.437  -3.931   1.025  0.00  0.00    +0.099 C 
ATOM      9  C   UNL     1      10.259  -3.924   2.289  0.00  0.00    +0.024 C 
ATOM     10  C   UNL     1      11.625  -4.240   2.190  0.00  0.00    +0.162 C 
ATOM     11  C   UNL     1      12.508  -4.280   3.407  0.00  0.00    +0.080 C 
ATOM     12  C   UNL     1      11.655  -4.638   4.629  0.00  0.00    +0.014 C 
ATOM     13  C   UNL     1      10.522  -3.615   4.745  0.00  0.00    +0.051 C 
ATOM     14  C   UNL     1       9.700  -3.624   3.480  0.00  0.00    +0.017 C 
ATOM     15  N   UNL     1       8.369  -3.318   3.569  0.00  0.00    -0.304 N 
ATOM     16  O   UNL     1      12.102  -4.488   1.100  0.00  0.00    -0.292 OA
ATOM     17  H   UNL     1       7.918  -3.379   4.425  0.00  0.00    +0.153 HD
ATOM     18  H   UNL     1       6.123  -2.063   3.469  0.00  0.00    +0.169 HD
ENDROOT
BRANCH   8  19
ATOM     19  C   UNL     1       9.139  -5.357   0.641  0.00  0.00    +0.002 A 
ATOM     20  C   UNL     1       9.499  -6.033  -0.478  0.00  0.00    +0.012 A 
ATOM     21  C   UNL     1       9.109  -7.351  -0.619  0.00  0.00    +0.008 A 
ATOM     22  C   UNL     1       8.379  -7.930   0.365  0.00  0.00    +0.045 A 
ATOM     23  S   UNL     1       8.226  -6.598   1.544  0.00  0.00    -0.101 S 
ENDBRANCH   8  19
BRANCH   1  24
ATOM     24  S   UNL     1       4.257  -1.011   1.666  0.00  0.00    -0.083 S 
BRANCH  24  25
ATOM     25  C   UNL     1       3.711  -0.707  -0.038  0.00  0.00    +0.112 C 
BRANCH  25  29
ATOM     26  C   UNL     1      -0.017   1.378   0.010  0.00  0.00    +0.000 A 
ATOM     27  C   UNL     1       1.171   2.086   0.002  0.00  0.00    +0.000 A 
ATOM     28  C   UNL     1       2.377   1.411  -0.013  0.00  0.00    +0.004 A 
ATOM     29  C   UNL     1       2.396   0.029  -0.020  0.00  0.00    -0.037 A 
ATOM     30  C   UNL     1       1.208  -0.679  -0.012  0.00  0.00    +0.004 A 
ATOM     31  C   UNL     1       0.002  -0.004   0.002  0.00  0.00    +0.000 A 
ENDBRANCH  25  29
ENDBRANCH  24  25
ENDBRANCH   1  24
TORSDOF 4
