REMARK  Name = ZINC45372409
REMARK  6 active torsions:
REMARK  status: ('A' for Active; 'I' for Inactive)
REMARK    1  A    between atoms: C_1  and  C_2
REMARK    2  A    between atoms: C_2  and  N_9
REMARK    3  A    between atoms: N_9  and  N_10
REMARK    4  A    between atoms: N_13  and  C_14
REMARK    5  A    between atoms: C_14  and  C_15
REMARK    6  A    between atoms: C_15  and  C_19
REMARK                            x       y       z     vdW  Elec       q    Type
REMARK                         _______ _______ _______ _____ _____    ______ ____
ROOT
ATOM      1  N   UNL     1      -1.721  -0.016   0.673  0.00  0.00    -0.234 N 
ATOM      2  C   UNL     1      -2.916  -0.249   0.095  0.00  0.00    +0.313 C 
ATOM      3  O   UNL     1      -3.228   0.348  -0.917  0.00  0.00    -0.252 OA
ATOM      4  N   UNL     1      -3.765  -1.143   0.639  0.00  0.00    -0.298 N 
ATOM      5  H   UNL     1      -1.110   0.628   0.281  0.00  0.00    +0.171 HD
ATOM      6  H   UNL     1      -3.516  -1.619   1.447  0.00  0.00    +0.150 HD
ENDROOT
BRANCH   1   7
ATOM      7  N   UNL     1      -1.370  -0.686   1.811  0.00  0.00    -0.232 NA
ATOM      8  H   UNL     1      -1.419  -1.684   1.672  0.00  0.00    +0.145 HD
BRANCH   7  10
ATOM      9  C   UNL     1      -0.045   1.224   2.540  0.00  0.00    +0.031 C 
ATOM     10  C   UNL     1      -0.035  -0.282   2.269  0.00  0.00    +0.054 C 
ATOM     11  C   UNL     1       0.970  -0.572   1.155  0.00  0.00    +0.047 C 
ATOM     12  C   UNL     1       2.376  -0.851   1.756  0.00  0.00    +0.168 C 
ATOM     13  S   UNL     1       1.887  -1.844   3.234  0.00  0.00    -0.029 S 
ATOM     14  O   UNL     1       2.792  -1.578   4.296  0.00  0.00    -0.174 OA
ATOM     15  O   UNL     1       1.645  -3.187   2.836  0.00  0.00    -0.174 OA
ATOM     16  C   UNL     1       0.279  -1.018   3.586  0.00  0.00    +0.189 C 
ENDBRANCH   7  10
ENDBRANCH   1   7
BRANCH   4  17
ATOM     17  C   UNL     1      -5.064  -1.396   0.011  0.00  0.00    +0.117 C 
BRANCH  17  18
ATOM     18  C   UNL     1      -5.776  -2.531   0.750  0.00  0.00    +0.011 C 
ATOM     19  C   UNL     1      -7.284  -2.603   0.463  0.00  0.00    +0.013 C 
ATOM     20  C   UNL     1      -7.476  -1.640   1.646  0.00  0.00    +0.002 C 
ATOM     21  C   UNL     1      -6.149  -2.183   2.201  0.00  0.00    +0.013 C 
BRANCH  18  22
ATOM     22  C   UNL     1      -5.069  -3.854   0.610  0.00  0.00    -0.040 A 
ATOM     23  C   UNL     1      -4.502  -4.456   1.718  0.00  0.00    +0.004 A 
ATOM     24  C   UNL     1      -3.853  -5.670   1.589  0.00  0.00    +0.000 A 
ATOM     25  C   UNL     1      -3.772  -6.283   0.353  0.00  0.00    +0.000 A 
ATOM     26  C   UNL     1      -4.340  -5.682  -0.755  0.00  0.00    +0.000 A 
ATOM     27  C   UNL     1      -4.992  -4.470  -0.626  0.00  0.00    +0.004 A 
ENDBRANCH  18  22
ENDBRANCH  17  18
ENDBRANCH   4  17
TORSDOF 5
