REMARK  Name = ZINC25436298
REMARK  6 active torsions:
REMARK  status: ('A' for Active; 'I' for Inactive)
REMARK    1  A    between atoms: C_1  and  O_2
REMARK    2  A    between atoms: O_2  and  C_3
REMARK    3  A    between atoms: C_8  and  O_9
REMARK    4  A    between atoms: O_9  and  C_10
REMARK    5  A    between atoms: C_18  and  C_20
REMARK    6  A    between atoms: C_25  and  N_26
REMARK                            x       y       z     vdW  Elec       q    Type
REMARK                         _______ _______ _______ _____ _____    ______ ____
ROOT
ATOM      1  C   UNL     1      -1.540   5.795  -0.969  0.00  0.00    +0.162 A 
ATOM      2  C   UNL     1      -1.184   5.091   0.169  0.00  0.00    +0.055 A 
ATOM      3  C   UNL     1      -0.925   3.730   0.100  0.00  0.00    -0.019 A 
ATOM      4  C   UNL     1      -1.026   3.072  -1.108  0.00  0.00    -0.031 A 
ATOM      5  C   UNL     1      -1.381   3.772  -2.251  0.00  0.00    +0.054 A 
ATOM      6  C   UNL     1      -1.639   5.130  -2.187  0.00  0.00    +0.162 A 
ATOM      7  C   UNL     1      -0.758   1.595  -1.222  0.00  0.00    +0.009 C 
ATOM      8  C   UNL     1      -2.083   0.835  -1.385  0.00  0.00    +0.013 C 
ATOM      9  C   UNL     1      -2.013   0.118  -2.750  0.00  0.00    +0.001 C 
ATOM     10  C   UNL     1      -0.495  -0.019  -3.029  0.00  0.00    +0.001 C 
ATOM     11  C   UNL     1       0.075   1.316  -2.488  0.00  0.00    +0.013 C 
ATOM     12  C   UNL     1      -0.013   1.086   0.008  0.00  0.00    +0.093 C 
ATOM     13  N   UNL     1      -0.709   1.564   1.214  0.00  0.00    -0.305 NA
ATOM     14  C   UNL     1      -0.532   3.011   1.364  0.00  0.00    +0.117 C 
ATOM     15  H   UNL     1      -1.783   1.341   1.130  0.00  0.00    +0.123 HD
ENDROOT
BRANCH  14  16
ATOM     16  C   UNL     1      -1.390   3.501   2.502  0.00  0.00    +0.004 A 
ATOM     17  C   UNL     1      -2.479   2.758   2.917  0.00  0.00    +0.008 A 
ATOM     18  C   UNL     1      -3.263   3.206   3.963  0.00  0.00    +0.000 A 
ATOM     19  C   UNL     1      -2.963   4.401   4.590  0.00  0.00    +0.002 A 
ATOM     20  C   UNL     1      -1.877   5.147   4.172  0.00  0.00    +0.033 A 
ATOM     21  C   UNL     1      -1.091   4.697   3.127  0.00  0.00    +0.131 A 
BRANCH  21  22
ATOM     22  N   UNL     1       0.072   5.496   2.680  0.00  0.00    +0.057 N 
ATOM     23  O   UNL     1       0.336   6.550   3.231  0.00  0.00    -0.126 OA
ATOM     24  O   UNL     1       0.766   5.099   1.760  0.00  0.00    -0.126 OA
ENDBRANCH  21  22
ENDBRANCH  14  16
BRANCH   1  26
ATOM     25  C   UNL     1      -1.672   7.742   0.390  0.00  0.00    +0.277 C 
ATOM     26  O   UNL     1      -1.793   7.129  -0.895  0.00  0.00    -0.491 OA
ENDBRANCH   1  26
BRANCH   6  27
ATOM     27  O   UNL     1      -1.986   5.813  -3.311  0.00  0.00    -0.491 OA
ATOM     28  C   UNL     1      -2.066   5.065  -4.526  0.00  0.00    +0.277 C 
ENDBRANCH   6  27
TORSDOF 4
