REMARK  Name = ZINC04551825
REMARK  11 active torsions:
REMARK  status: ('A' for Active; 'I' for Inactive)
REMARK    1  A    between atoms: C_1  and  C_2
REMARK    2  A    between atoms: C_7  and  C_8
REMARK    3  A    between atoms: C_8  and  O_10
REMARK    4  A    between atoms: O_10  and  C_11
REMARK    5  A    between atoms: C_14  and  C_17
REMARK    6  A    between atoms: C_17  and  C_18
REMARK    7  A    between atoms: C_17  and  C_26
REMARK    8  A    between atoms: C_19  and  C_25
REMARK    9  A    between atoms: C_23  and  O_24
REMARK   10  A    between atoms: C_27  and  C_33
REMARK   11  A    between atoms: C_31  and  O_32
REMARK                            x       y       z     vdW  Elec       q    Type
REMARK                         _______ _______ _______ _____ _____    ______ ____
ROOT
ATOM      1  C   UNL     1       0.152   1.936   8.623  0.00  0.00    +0.093 C 
ENDROOT
BRANCH   1   2
ATOM      2  C   UNL     1      -0.867   1.132   9.390  0.00  0.00    +0.048 A 
ATOM      3  C   UNL     1      -2.084   1.606   9.887  0.00  0.00    +0.068 A 
ATOM      4  N   UNL     1      -2.693   0.619  10.492  0.00  0.00    -0.176 NA
ATOM      5  N   UNL     1      -1.883  -0.520  10.401  0.00  0.00    -0.247 N 
ATOM      6  H   UNL     1      -2.088  -1.397  10.763  0.00  0.00    +0.192 HD
ATOM      7  C   UNL     1      -0.768  -0.184   9.715  0.00  0.00    +0.213 A 
ATOM      8  C   UNL     1      -2.606   3.013   9.751  0.00  0.00    +0.068 C 
BRANCH   7   9
ATOM      9  O   UNL     1       0.265  -1.010   9.409  0.00  0.00    -0.492 OA
ATOM     10  H   UNL     1       0.923  -1.095  10.113  0.00  0.00    +0.294 HD
ENDBRANCH   7   9
ENDBRANCH   1   2
BRANCH   1  11
ATOM     11  C   UNL     1       1.504   1.782   9.271  0.00  0.00    +0.048 A 
ATOM     12  C   UNL     1       1.746   1.703  10.600  0.00  0.00    +0.041 A 
ATOM     13  N   UNL     1       3.078   1.571  10.771  0.00  0.00    -0.278 N 
ATOM     14  N   UNL     1       3.679   1.568   9.505  0.00  0.00    -0.136 NA
ATOM     15  H   UNL     1       3.539   1.492  11.620  0.00  0.00    +0.189 HD
ATOM     16  C   UNL     1       2.734   1.689   8.604  0.00  0.00    +0.236 A 
ATOM     17  C   UNL     1       0.712   1.755  11.695  0.00  0.00    +0.065 C 
BRANCH  16  18
ATOM     18  O   UNL     1       2.916   1.721   7.256  0.00  0.00    -0.491 OA
ATOM     19  H   UNL     1       3.130   2.598   6.909  0.00  0.00    +0.294 HD
ENDBRANCH  16  18
ENDBRANCH   1  11
BRANCH   1  23
ATOM     20  C   UNL     1       0.338   0.530   4.592  0.00  0.00    +0.132 A 
ATOM     21  C   UNL     1      -0.239   1.760   4.873  0.00  0.00    +0.046 A 
ATOM     22  C   UNL     1      -0.298   2.212   6.177  0.00  0.00    +0.008 A 
ATOM     23  C   UNL     1       0.217   1.440   7.202  0.00  0.00    -0.035 A 
ATOM     24  C   UNL     1       0.793   0.214   6.925  0.00  0.00    +0.008 A 
ATOM     25  C   UNL     1       0.849  -0.245   5.623  0.00  0.00    +0.046 A 
BRANCH  20  26
ATOM     26  O   UNL     1       0.397   0.083   3.310  0.00  0.00    -0.422 OA
BRANCH  26  27
ATOM     27  C   UNL     1       1.293   0.653   2.482  0.00  0.00    +0.345 C 
ATOM     28  O   UNL     1       2.070   1.485   2.907  0.00  0.00    -0.245 OA
BRANCH  27  35
ATOM     29  C   UNL     1       3.029   2.082   0.660  0.00  0.00    +0.044 C 
ATOM     30  C   UNL     1       2.165   0.949   0.168  0.00  0.00    -0.036 A 
ATOM     31  C   UNL     1       2.201   0.580  -1.161  0.00  0.00    +0.004 A 
ATOM     32  C   UNL     1       1.409  -0.460  -1.615  0.00  0.00    +0.000 A 
ATOM     33  C   UNL     1       0.576  -1.136  -0.740  0.00  0.00    +0.001 A 
ATOM     34  C   UNL     1       0.531  -0.777   0.591  0.00  0.00    +0.015 A 
ATOM     35  C   UNL     1       1.332   0.267   1.057  0.00  0.00    +0.062 A 
ENDBRANCH  27  35
ENDBRANCH  26  27
ENDBRANCH  20  26
ENDBRANCH   1  23
TORSDOF 8
