REMARK  Name = ZINC01770477
REMARK  4 active torsions:
REMARK  status: ('A' for Active; 'I' for Inactive)
REMARK    1  A    between atoms: C_10  and  C_12
REMARK    2  A    between atoms: N_14  and  C_15
REMARK    3  A    between atoms: C_18  and  S_21
REMARK    4  A    between atoms: S_21  and  N_24
REMARK                            x       y       z     vdW  Elec       q    Type
REMARK                         _______ _______ _______ _____ _____    ______ ____
ROOT
ATOM      1  C   UNL     1       2.222   5.699   0.102  0.00  0.00    +0.034 A 
ATOM      2  C   UNL     1       0.986   6.325   0.207  0.00  0.00    +0.025 A 
ATOM      3  C   UNL     1       0.917   7.700   0.308  0.00  0.00    +0.030 A 
ATOM      4  C   UNL     1       2.075   8.455   0.296  0.00  0.00    +0.109 A 
ATOM      5  C   UNL     1       3.307   7.836   0.186  0.00  0.00    +0.030 A 
ATOM      6  C   UNL     1       3.384   6.461   0.089  0.00  0.00    +0.025 A 
ENDROOT
BRANCH   1   9
ATOM      7  C   UNL     1       3.321   3.644   0.575  0.00  0.00    +0.284 C 
ATOM      8  O   UNL     1       4.224   4.262   1.104  0.00  0.00    -0.266 OA
ATOM      9  N   UNL     1       2.296   4.307   0.003  0.00  0.00    -0.279 N 
ATOM     10  H   UNL     1       1.610   3.817  -0.477  0.00  0.00    +0.155 HD
BRANCH   7  20
ATOM     11  C   UNL     1       2.152  -2.611  -0.222  0.00  0.00    +0.001 A 
ATOM     12  C   UNL     1       1.144  -1.838  -0.782  0.00  0.00    +0.004 A 
ATOM     13  C   UNL     1       1.196  -0.462  -0.723  0.00  0.00    +0.047 A 
ATOM     14  C   UNL     1       2.269   0.164  -0.097  0.00  0.00    +0.139 A 
ATOM     15  C   UNL     1       3.285  -0.626   0.467  0.00  0.00    +0.064 A 
ATOM     16  C   UNL     1       3.216  -2.017   0.398  0.00  0.00    +0.015 A 
ATOM     17  C   UNL     1       4.417   0.054   1.127  0.00  0.00    +0.193 A 
ATOM     18  O   UNL     1       5.329  -0.573   1.636  0.00  0.00    -0.287 OA
ATOM     19  C   UNL     1       4.390   1.524   1.142  0.00  0.00    +0.103 A 
ATOM     20  C   UNL     1       3.347   2.163   0.559  0.00  0.00    +0.194 A 
ATOM     21  O   UNL     1       2.337   1.508  -0.031  0.00  0.00    -0.450 OA
ENDBRANCH   7  20
ENDBRANCH   1   9
BRANCH   4  22
ATOM     22  S   UNL     1       1.982  10.210   0.419  0.00  0.00    +0.074 S 
ATOM     23  O   UNL     1       0.749  10.507   1.060  0.00  0.00    -0.150 OA
ATOM     24  O   UNL     1       3.232  10.649   0.932  0.00  0.00    -0.150 OA
BRANCH  22  25
ATOM     25  N   UNL     1       1.868  10.805  -1.123  0.00  0.00    -0.194 N 
ATOM     26  C   UNL     1       0.754  10.519  -1.895  0.00  0.00    +0.177 A 
ATOM     27  N   UNL     1      -0.306   9.796  -1.587  0.00  0.00    -0.232 NA
ATOM     28  C   UNL     1      -1.291   9.625  -2.449  0.00  0.00    +0.120 A 
ATOM     29  C   UNL     1      -1.188  10.202  -3.670  0.00  0.00    +0.068 A 
ATOM     30  S   UNL     1       0.397  11.014  -3.521  0.00  0.00    -0.059 S 
ATOM     31  H   UNL     1       2.582  11.352  -1.485  0.00  0.00    +0.176 HD
ENDBRANCH  22  25
ENDBRANCH   4  22
TORSDOF 4
