REMARK  Name = ZINC39672876
REMARK  8 active torsions:
REMARK  status: ('A' for Active; 'I' for Inactive)
REMARK    1  A    between atoms: C_1  and  C_2
REMARK    2  A    between atoms: C_2  and  O_3
REMARK    3  A    between atoms: O_3  and  C_4
REMARK    4  A    between atoms: C_9  and  C_10
REMARK    5  A    between atoms: C_14  and  C_23
REMARK    6  A    between atoms: N_25  and  C_26
REMARK    7  A    between atoms: C_26  and  C_27
REMARK    8  A    between atoms: C_27  and  N_33
REMARK                            x       y       z     vdW  Elec       q    Type
REMARK                         _______ _______ _______ _____ _____    ______ ____
ROOT
ATOM      1  C   UNL     1       2.106  -1.001  -3.803  0.00  0.00    +0.250 C 
ATOM      2  O   UNL     1       2.029   0.212  -3.763  0.00  0.00    -0.270 OA
ATOM      3  N   UNL     1       2.815  -1.599  -4.781  0.00  0.00    -0.296 N 
ATOM      4  C   UNL     1       2.942  -3.051  -5.053  0.00  0.00    +0.121 C 
ATOM      5  C   UNL     1       2.914  -3.164  -6.593  0.00  0.00    +0.100 C 
ATOM      6  C   UNL     1       3.376  -1.786  -7.096  0.00  0.00    -0.004 C 
ATOM      7  C   UNL     1       3.638  -0.954  -5.832  0.00  0.00    +0.115 C 
ATOM      8  C   UNL     1       2.280  -1.133  -7.932  0.00  0.00    -0.010 C 
ATOM      9  C   UNL     1       2.784   0.209  -8.468  0.00  0.00    -0.082 C 
ATOM     10  N   UNL     1       3.985  -0.007  -9.284  0.00  0.00    +0.379 N 
ATOM     11  C   UNL     1       5.065  -0.549  -8.450  0.00  0.00    -0.082 C 
ATOM     12  C   UNL     1       4.657  -1.924  -7.913  0.00  0.00    -0.010 C 
ATOM     13  H   UNL     1       3.774  -0.659 -10.024  0.00  0.00    -0.086 HD
ATOM     14  H   UNL     1       4.280   0.870  -9.685  0.00  0.00    -0.086 HD
ENDROOT
BRANCH   1  20
ATOM     15  C   UNL     1       0.272  -1.334  -2.147  0.00  0.00    +0.133 A 
ATOM     16  C   UNL     1      -0.364  -2.113  -1.191  0.00  0.00    +0.046 A 
ATOM     17  C   UNL     1       0.140  -3.355  -0.863  0.00  0.00    +0.004 A 
ATOM     18  C   UNL     1       1.282  -3.834  -1.484  0.00  0.00    +0.001 A 
ATOM     19  C   UNL     1       1.927  -3.074  -2.436  0.00  0.00    +0.017 A 
ATOM     20  C   UNL     1       1.424  -1.817  -2.781  0.00  0.00    +0.078 A 
BRANCH  15  21
ATOM     21  O   UNL     1      -0.222  -0.113  -2.469  0.00  0.00    -0.491 OA
BRANCH  21  23
ATOM     22  C   UNL     1      -1.804   1.704  -2.275  0.00  0.00    +0.048 C 
ATOM     23  C   UNL     1      -1.399   0.314  -1.781  0.00  0.00    +0.226 C 
ENDBRANCH  21  23
ENDBRANCH  15  21
ENDBRANCH   1  20
BRANCH   5  24
ATOM     24  C   UNL     1       3.861  -4.240  -7.058  0.00  0.00    +0.218 C 
ATOM     25  O   UNL     1       4.813  -4.547  -6.372  0.00  0.00    -0.275 OA
ATOM     26  N   UNL     1       3.651  -4.860  -8.236  0.00  0.00    -0.313 N 
ATOM     27  H   UNL     1       2.890  -4.614  -8.784  0.00  0.00    +0.149 HD
BRANCH  26  28
ATOM     28  C   UNL     1       4.572  -5.906  -8.687  0.00  0.00    +0.126 C 
BRANCH  28  29
ATOM     29  C   UNL     1       4.043  -6.528  -9.981  0.00  0.00    +0.038 C 
ATOM     30  C   UNL     1       4.936  -7.702 -10.386  0.00  0.00    +0.024 C 
ATOM     31  C   UNL     1       6.365  -7.202 -10.608  0.00  0.00    +0.002 C 
ATOM     32  C   UNL     1       6.371  -6.150 -11.719  0.00  0.00    +0.000 C 
ATOM     33  C   UNL     1       5.477  -4.976 -11.314  0.00  0.00    +0.002 C 
ATOM     34  C   UNL     1       4.048  -5.476 -11.092  0.00  0.00    +0.024 C 
BRANCH  29  35
ATOM     35  N   UNL     1       2.671  -7.008  -9.768  0.00  0.00    -0.291 NA
ATOM     36  C   UNL     1       2.596  -7.883  -8.589  0.00  0.00    +0.113 C 
ATOM     37  C   UNL     1       1.142  -8.311  -8.369  0.00  0.00    +0.175 C 
ATOM     38  O   UNL     1       0.656  -8.953  -9.551  0.00  0.00    -0.377 OA
ATOM     39  C   UNL     1       0.714  -8.129 -10.719  0.00  0.00    +0.175 C 
ATOM     40  C   UNL     1       2.163  -7.699 -10.962  0.00  0.00    +0.113 C 
ENDBRANCH  29  35
ENDBRANCH  28  29
ENDBRANCH  26  28
ENDBRANCH   5  24
TORSDOF 7
