REMARK  Name = ZINC63373055
REMARK  12 active torsions:
REMARK  status: ('A' for Active; 'I' for Inactive)
REMARK    1  A    between atoms: C_1  and  C_2
REMARK    2  A    between atoms: C_2  and  N_3
REMARK    3  A    between atoms: N_3  and  C_4
REMARK    4  A    between atoms: N_3  and  C_6
REMARK    5  A    between atoms: C_4  and  C_5
REMARK    6  A    between atoms: C_6  and  C_7
REMARK    7  A    between atoms: C_7  and  C_8
REMARK    8  A    between atoms: C_8  and  N_9
REMARK    9  A    between atoms: C_15  and  C_31
REMARK   10  A    between atoms: C_27  and  C_30
REMARK   11  A    between atoms: C_36  and  O_37
REMARK   12  A    between atoms: O_37  and  C_38
REMARK                            x       y       z     vdW  Elec       q    Type
REMARK                         _______ _______ _______ _____ _____    ______ ____
ROOT
ATOM      1  N   UNL     1       2.127  -4.497  -3.857  0.00  0.00    -0.291 N 
ATOM      2  C   UNL     1       1.478  -4.565  -5.156  0.00  0.00    +0.203 C 
ATOM      3  C   UNL     1       2.397  -5.067  -6.219  0.00  0.00    +0.234 C 
ATOM      4  O   UNL     1       1.955  -5.166  -7.344  0.00  0.00    -0.274 OA
ATOM      5  N   UNL     1       3.674  -5.417  -6.023  0.00  0.00    -0.283 N 
ATOM      6  C   UNL     1       4.438  -5.932  -7.176  0.00  0.00    +0.121 C 
ATOM      7  C   UNL     1       5.668  -5.039  -7.411  0.00  0.00    +0.068 C 
ATOM      8  C   UNL     1       6.312  -4.825  -6.064  0.00  0.00    -0.027 C 
ATOM      9  C   UNL     1       7.560  -4.992  -5.647  0.00  0.00    -0.000 A 
ATOM     10  C   UNL     1       8.797  -5.333  -6.368  0.00  0.00    +0.010 A 
ATOM     11  C   UNL     1       9.920  -5.448  -5.611  0.00  0.00    +0.001 A 
ATOM     12  C   UNL     1       9.937  -5.259  -4.226  0.00  0.00    +0.002 A 
ATOM     13  C   UNL     1       8.849  -4.933  -3.483  0.00  0.00    +0.026 A 
ATOM     14  C   UNL     1       7.610  -4.776  -4.169  0.00  0.00    +0.043 A 
ATOM     15  N   UNL     1       6.435  -4.448  -3.718  0.00  0.00    -0.375 N 
ATOM     16  C   UNL     1       5.516  -4.352  -4.853  0.00  0.00    +0.139 C 
ATOM     17  C   UNL     1       4.327  -5.310  -4.717  0.00  0.00    +0.135 C 
ATOM     18  C   UNL     1       3.401  -4.823  -3.653  0.00  0.00    +0.242 C 
ATOM     19  O   UNL     1       3.838  -4.721  -2.526  0.00  0.00    -0.273 OA
ATOM     20  C   UNL     1       4.848  -6.690  -4.311  0.00  0.00    +0.044 C 
ATOM     21  H   UNL     1       6.206  -4.293  -2.788  0.00  0.00    +0.160 HD
ENDROOT
BRANCH   7  22
ATOM     22  C   UNL     1       5.242  -3.717  -7.997  0.00  0.00    +0.003 A 
ATOM     23  C   UNL     1       4.379  -2.897  -7.297  0.00  0.00    +0.008 A 
ATOM     24  C   UNL     1       3.987  -1.685  -7.834  0.00  0.00    +0.001 A 
ATOM     25  C   UNL     1       4.457  -1.290  -9.073  0.00  0.00    +0.004 A 
ATOM     26  C   UNL     1       5.321  -2.107  -9.777  0.00  0.00    +0.046 A 
ATOM     27  C   UNL     1       5.720  -3.322  -9.238  0.00  0.00    +0.124 A 
BRANCH  27  28
ATOM     28  O   UNL     1       6.573  -4.124  -9.926  0.00  0.00    -0.495 OA
ATOM     29  C   UNL     1       7.025  -3.652 -11.197  0.00  0.00    +0.277 C 
ENDBRANCH  27  28
ENDBRANCH   7  22
BRANCH   1  30
ATOM     30  C   UNL     1       1.336  -4.039  -2.711  0.00  0.00    +0.106 C 
BRANCH  30  31
ATOM     31  C   UNL     1       1.453  -2.519  -2.586  0.00  0.00    +0.000 C 
BRANCH  31  32
ATOM     32  C   UNL     1       0.628  -2.041  -1.389  0.00  0.00    -0.077 C 
BRANCH  32  33
ATOM     33  N   UNL     1       0.827  -0.598  -1.203  0.00  0.00    +0.379 N 
ATOM     34  H   UNL     1       1.813  -0.402  -1.119  0.00  0.00    -0.082 HD
BRANCH  33  36
ATOM     35  C   UNL     1       0.597   1.616  -2.224  0.00  0.00    -0.017 C 
ATOM     36  C   UNL     1       0.280   0.126  -2.359  0.00  0.00    -0.082 C 
ENDBRANCH  33  36
BRANCH  33  37
ATOM     37  C   UNL     1       0.136  -0.162   0.018  0.00  0.00    -0.082 C 
ATOM     38  C   UNL     1       0.810  -0.793   1.238  0.00  0.00    -0.017 C 
ENDBRANCH  33  37
ENDBRANCH  32  33
ENDBRANCH  31  32
ENDBRANCH  30  31
ENDBRANCH   1  30
TORSDOF 8
