REMARK  Name = ZINC58918852
REMARK  4 active torsions:
REMARK  status: ('A' for Active; 'I' for Inactive)
REMARK    1  A    between atoms: C_1  and  C_2
REMARK    2  A    between atoms: C_2  and  C_11
REMARK    3  A    between atoms: N_3  and  N_4
REMARK    4  A    between atoms: C_24  and  C_27
REMARK                            x       y       z     vdW  Elec       q    Type
REMARK                         _______ _______ _______ _____ _____    ______ ____
ROOT
ATOM      1  C   UNL     1      -0.000  -0.734  -1.279  0.00  0.00    -0.002 A 
ATOM      2  C   UNL     1      -0.015  -0.031  -2.486  0.00  0.00    +0.011 A 
ATOM      3  C   UNL     1      -0.023  -0.722  -3.676  0.00  0.00    +0.024 A 
ATOM      4  C   UNL     1      -0.014  -2.116  -3.682  0.00  0.00    +0.031 A 
ATOM      5  C   UNL     1       0.013  -2.820  -2.489  0.00  0.00    -0.019 A 
ATOM      6  C   UNL     1       0.019  -2.129  -1.289  0.00  0.00    +0.015 A 
ATOM      7  C   UNL     1       0.059  -4.322  -2.443  0.00  0.00    +0.049 C 
ATOM      8  C   UNL     1       1.205  -4.723  -1.528  0.00  0.00    -0.023 C 
ATOM      9  C   UNL     1       2.247  -5.090  -2.227  0.00  0.00    -0.030 C 
ATOM     10  C   UNL     1       1.960  -5.003  -3.711  0.00  0.00    +0.033 C 
ATOM     11  C   UNL     1       0.402  -4.952  -3.790  0.00  0.00    +0.029 C 
ATOM     12  C   UNL     1      -0.102  -4.228  -5.003  0.00  0.00    +0.106 C 
ATOM     13  N   UNL     1      -0.038  -2.783  -4.901  0.00  0.00    -0.336 N 
ATOM     14  H   UNL     1      -0.037  -2.259  -5.717  0.00  0.00    +0.147 HD
ENDROOT
BRANCH  12  15
ATOM     15  C   UNL     1       0.739  -4.636  -6.185  0.00  0.00    -0.009 A 
ATOM     16  C   UNL     1       1.823  -3.866  -6.561  0.00  0.00    +0.007 A 
ATOM     17  C   UNL     1       2.595  -4.241  -7.646  0.00  0.00    +0.000 A 
ATOM     18  C   UNL     1       2.282  -5.386  -8.354  0.00  0.00    +0.001 A 
ATOM     19  C   UNL     1       1.198  -6.156  -7.979  0.00  0.00    +0.020 A 
ATOM     20  C   UNL     1       0.429  -5.785  -6.890  0.00  0.00    +0.046 A 
ATOM     21 CL   UNL     1      -0.929  -6.757  -6.415  0.00  0.00    -0.083 Cl
ENDBRANCH  12  15
BRANCH   1  23
ATOM     22  C   UNL     1      -0.018   1.503   0.010  0.00  0.00    +0.068 C 
ATOM     23  C   UNL     1       0.002  -0.004   0.002  0.00  0.00    +0.063 C 
ATOM     24  N   UNL     1       0.022  -0.659   1.123  0.00  0.00    -0.184 NA
BRANCH  24  25
ATOM     25  N   UNL     1       0.024   0.035   2.340  0.00  0.00    -0.205 N 
ATOM     26  C   UNL     1       0.044  -0.664   3.534  0.00  0.00    +0.235 A 
ATOM     27  N   UNL     1       0.068  -1.989   3.509  0.00  0.00    -0.222 NA
ATOM     28  C   UNL     1       0.088  -2.686   4.633  0.00  0.00    +0.116 A 
ATOM     29  C   UNL     1       0.085  -2.015   5.846  0.00  0.00    +0.039 A 
ATOM     30  C   UNL     1       0.060  -0.628   5.836  0.00  0.00    +0.116 A 
ATOM     31  N   UNL     1       0.046   0.008   4.677  0.00  0.00    -0.222 NA
ATOM     32  H   UNL     1       0.011   1.005   2.345  0.00  0.00    +0.177 HD
ENDBRANCH  24  25
ENDBRANCH   1  23
TORSDOF 3
