REMARK  Name = ZINC09884501
REMARK  9 active torsions:
REMARK  status: ('A' for Active; 'I' for Inactive)
REMARK    1  A    between atoms: C_1  and  C_2
REMARK    2  A    between atoms: C_7  and  C_13
REMARK    3  A    between atoms: C_13  and  O_14
REMARK    4  A    between atoms: O_14  and  C_15
REMARK    5  A    between atoms: C_15  and  C_17
REMARK    6  A    between atoms: C_17  and  N_18
REMARK    7  A    between atoms: C_23  and  C_30
REMARK    8  A    between atoms: C_26  and  C_28
REMARK    9  A    between atoms: C_26  and  C_29
REMARK                            x       y       z     vdW  Elec       q    Type
REMARK                         _______ _______ _______ _____ _____    ______ ____
ROOT
ATOM      1  C   UNL     1      -5.649   4.461   8.212  0.00  0.00    +0.238 C 
ENDROOT
BRANCH   1   2
ATOM      2  N   UNL     1      -6.387   4.934   9.386  0.00  0.00    -0.213 N 
ATOM      3  C   UNL     1      -6.940   4.122  10.311  0.00  0.00    +0.247 C 
ATOM      4  O   UNL     1      -6.922   2.910  10.329  0.00  0.00    -0.273 OA
ATOM      5  C   UNL     1      -7.585   5.043  11.322  0.00  0.00    +0.113 C 
ATOM      6  C   UNL     1      -6.954   4.856  12.697  0.00  0.00    +0.038 C 
ATOM      7  C   UNL     1      -7.602   5.822  13.692  0.00  0.00    -0.011 C 
ATOM      8  C   UNL     1      -9.106   5.549  13.761  0.00  0.00    +0.009 C 
ATOM      9  C   UNL     1      -9.728   5.760  12.379  0.00  0.00    -0.032 C 
ATOM     10  C   UNL     1      -9.088   4.794  11.379  0.00  0.00    +0.041 C 
ATOM     11  C   UNL     1      -9.485   7.201  11.925  0.00  0.00    +0.011 C 
ATOM     12  C   UNL     1     -11.234   5.496  12.452  0.00  0.00    +0.011 C 
ATOM     13  C   UNL     1      -6.983   5.620  15.077  0.00  0.00    +0.007 C 
ATOM     14  N   UNL     1      -7.306   6.389  10.806  0.00  0.00    -0.285 N 
ATOM     15  C   UNL     1      -6.601   6.224   9.671  0.00  0.00    +0.310 C 
ATOM     16  O   UNL     1      -6.202   7.143   8.983  0.00  0.00    -0.252 OA
ATOM     17  H   UNL     1      -7.577   7.231  11.204  0.00  0.00    +0.151 HD
ENDBRANCH   1   2
BRANCH   1  18
ATOM     18  C   UNL     1      -4.187   4.334   8.555  0.00  0.00    +0.326 C 
ATOM     19  O   UNL     1      -3.801   4.610   9.666  0.00  0.00    -0.249 OA
BRANCH  18  20
ATOM     20  O   UNL     1      -3.314   3.914   7.626  0.00  0.00    -0.459 OA
BRANCH  20  21
ATOM     21  C   UNL     1      -1.922   3.816   8.026  0.00  0.00    +0.270 C 
BRANCH  21  28
ATOM     22  C   UNL     1       1.621   1.254   1.417  0.00  0.00    +0.044 C 
ATOM     23  C   UNL     1       0.749   1.734   2.549  0.00  0.00    -0.048 A 
ATOM     24  C   UNL     1      -0.619   1.893   2.340  0.00  0.00    +0.004 A 
ATOM     25  C   UNL     1      -1.434   2.320   3.343  0.00  0.00    +0.010 A 
ATOM     26  C   UNL     1      -0.888   2.615   4.603  0.00  0.00    +0.001 A 
ATOM     27  C   UNL     1      -1.696   3.064   5.665  0.00  0.00    +0.020 A 
ATOM     28  C   UNL     1      -1.097   3.332   6.862  0.00  0.00    +0.027 A 
ATOM     29  C   UNL     1       0.280   3.158   7.005  0.00  0.00    +0.136 A 
ATOM     30  N   UNL     1       1.029   2.739   6.013  0.00  0.00    -0.235 NA
ATOM     31  C   UNL     1       0.504   2.459   4.816  0.00  0.00    +0.073 A 
ATOM     32  C   UNL     1       1.312   2.011   3.757  0.00  0.00    +0.031 A 
ATOM     33 CL   UNL     1       1.020   3.505   8.537  0.00  0.00    -0.062 Cl
ENDBRANCH  21  28
ENDBRANCH  20  21
ENDBRANCH  18  20
ENDBRANCH   1  18
TORSDOF 5
