REMARK  Name = ZINC35877393
REMARK  9 active torsions:
REMARK  status: ('A' for Active; 'I' for Inactive)
REMARK    1  A    between atoms: C_1  and  C_2
REMARK    2  A    between atoms: C_2  and  C_4
REMARK    3  A    between atoms: C_2  and  N_12
REMARK    4  A    between atoms: C_4  and  C_5
REMARK    5  A    between atoms: C_5  and  C_6
REMARK    6  A    between atoms: C_15  and  C_22
REMARK    7  A    between atoms: C_29  and  O_30
REMARK    8  A    between atoms: O_30  and  C_31
REMARK    9  A    between atoms: N_37  and  C_38
REMARK                            x       y       z     vdW  Elec       q    Type
REMARK                         _______ _______ _______ _____ _____    ______ ____
ROOT
ATOM      1  N   UNL     1      -0.671  -1.124  -0.528  0.00  0.00    -0.258 N 
ATOM      2  C   UNL     1      -1.088  -1.575   0.672  0.00  0.00    +0.262 A 
ATOM      3  O   UNL     1      -0.279  -1.821   1.550  0.00  0.00    -0.267 OA
ATOM      4  C   UNL     1      -2.462  -1.759   0.905  0.00  0.00    +0.072 A 
ATOM      5  C   UNL     1      -3.347  -1.477  -0.093  0.00  0.00    +0.260 A 
ATOM      6  N   UNL     1      -2.880  -1.020  -1.300  0.00  0.00    -0.275 N 
ATOM      7  H   UNL     1      -3.505  -0.817  -2.013  0.00  0.00    +0.173 HD
ATOM      8  C   UNL     1      -1.560  -0.846  -1.499  0.00  0.00    +0.332 A 
ATOM      9  O   UNL     1      -1.165  -0.436  -2.573  0.00  0.00    -0.246 OA
ATOM     10  O   UNL     1      -4.671  -1.645   0.104  0.00  0.00    -0.267 OA
ENDROOT
BRANCH   4  11
ATOM     11  C   UNL     1      -2.951  -2.263   2.239  0.00  0.00    +0.008 C 
ATOM     12  C   UNL     1      -2.408  -3.647   2.476  0.00  0.00    -0.008 A 
ATOM     13  C   UNL     1      -1.943  -4.042   3.713  0.00  0.00    -0.040 A 
ATOM     14  C   UNL     1      -1.456  -5.327   3.894  0.00  0.00    +0.053 A 
ATOM     15  C   UNL     1      -1.428  -6.222   2.838  0.00  0.00    +0.170 A 
ATOM     16  C   UNL     1      -1.892  -5.828   1.587  0.00  0.00    +0.208 A 
ATOM     17  C   UNL     1      -2.381  -4.541   1.411  0.00  0.00    +0.167 A 
ATOM     18  O   UNL     1      -1.760  -6.876   0.722  0.00  0.00    -0.449 OA
ATOM     19  C   UNL     1      -0.835  -7.781   1.353  0.00  0.00    +0.467 C 
ATOM     20  O   UNL     1      -1.005  -7.518   2.758  0.00  0.00    -0.452 OA
ATOM     21  C   UNL     1      -1.946  -3.099   4.890  0.00  0.00    +0.017 C 
ATOM     22  C   UNL     1      -2.866  -1.913   4.602  0.00  0.00    -0.073 C 
ATOM     23  N   UNL     1      -2.505  -1.347   3.293  0.00  0.00    +0.386 N 
ATOM     24  C   UNL     1      -3.163  -0.044   3.123  0.00  0.00    -0.095 C 
ATOM     25  H   UNL     1      -1.504  -1.231   3.239  0.00  0.00    -0.081 HD
BRANCH  17  26
ATOM     26  O   UNL     1      -2.838  -4.152   0.190  0.00  0.00    -0.491 OA
ATOM     27  C   UNL     1      -4.188  -4.489  -0.135  0.00  0.00    +0.277 C 
ENDBRANCH  17  26
ENDBRANCH   4  11
BRANCH   1  29
ATOM     28  C   UNL     1       1.022   0.535  -1.131  0.00  0.00    +0.031 C 
ATOM     29  C   UNL     1       0.760  -0.930  -0.775  0.00  0.00    +0.092 C 
BRANCH  29  30
ATOM     30  C   UNL     1       1.203  -1.824  -1.935  0.00  0.00    +0.030 C 
BRANCH  30  31
ATOM     31  C   UNL     1       1.012  -3.292  -1.549  0.00  0.00    +0.037 C 
BRANCH  31  32
ATOM     32  C   UNL     1       1.562  -4.174  -2.640  0.00  0.00    -0.047 A 
ATOM     33  C   UNL     1       0.747  -4.576  -3.681  0.00  0.00    +0.003 A 
ATOM     34  C   UNL     1       1.252  -5.385  -4.682  0.00  0.00    +0.000 A 
ATOM     35  C   UNL     1       2.573  -5.791  -4.642  0.00  0.00    +0.000 A 
ATOM     36  C   UNL     1       3.388  -5.389  -3.601  0.00  0.00    +0.000 A 
ATOM     37  C   UNL     1       2.884  -4.576  -2.602  0.00  0.00    +0.003 A 
ENDBRANCH  31  32
ENDBRANCH  30  31
ENDBRANCH  29  30
ENDBRANCH   1  29
TORSDOF 6
