REMARK  Name = ZINC04682439
REMARK  7 active torsions:
REMARK  status: ('A' for Active; 'I' for Inactive)
REMARK    1  A    between atoms: C_3  and  N_8
REMARK    2  A    between atoms: C_12  and  N_44
REMARK    3  A    between atoms: C_16  and  C_17
REMARK    4  A    between atoms: C_16  and  N_44
REMARK    5  A    between atoms: C_17  and  C_18
REMARK    6  A    between atoms: C_21  and  S_24
REMARK    7  A    between atoms: S_24  and  N_27
REMARK                            x       y       z     vdW  Elec       q    Type
REMARK                         _______ _______ _______ _____ _____    ______ ____
ROOT
ATOM      1  N   UNL     1       1.761  -1.233   1.244  0.00  0.00    +0.387 N 
ATOM      2  H   UNL     1       1.240  -0.833   2.033  0.00  0.00    -0.085 HD
ATOM      3  H   UNL     1       2.769  -1.163   1.428  0.00  0.00    -0.085 HD
ENDROOT
BRANCH   1   8
ATOM      4  N   UNL     1      -0.016   1.335   0.009  0.00  0.00    -0.212 N 
ATOM      5  C   UNL     1       1.194   1.905  -0.043  0.00  0.00    +0.225 C 
ATOM      6  O   UNL     1       1.407   3.098  -0.084  0.00  0.00    -0.275 OA
ATOM      7  C   UNL     1       2.254   0.825  -0.045  0.00  0.00    +0.090 C 
ATOM      8  C   UNL     1       1.438  -0.482   0.016  0.00  0.00    +0.026 C 
ATOM      9  C   UNL     1       0.003  -0.004   0.046  0.00  0.00    +0.213 C 
ATOM     10  O   UNL     1      -0.975  -0.719   0.096  0.00  0.00    -0.277 OA
BRANCH   4  13
ATOM     11  C   UNL     1      -2.693   3.601   1.121  0.00  0.00    +0.003 A 
ATOM     12  C   UNL     1      -1.521   2.870   1.114  0.00  0.00    +0.024 A 
ATOM     13  C   UNL     1      -1.205   2.077   0.019  0.00  0.00    +0.045 A 
ATOM     14  C   UNL     1      -2.067   2.025  -1.068  0.00  0.00    +0.044 A 
ATOM     15  C   UNL     1      -3.240   2.755  -1.054  0.00  0.00    +0.043 A 
ATOM     16  C   UNL     1      -3.552   3.544   0.040  0.00  0.00    +0.020 A 
ATOM     17 CL   UNL     1      -4.322   2.686  -2.410  0.00  0.00    -0.083 Cl
ENDBRANCH   4  13
ENDBRANCH   1   8
BRANCH   1  18
ATOM     18  C   UNL     1       1.393  -2.653   1.087  0.00  0.00    -0.077 C 
BRANCH  18  19
ATOM     19  C   UNL     1       1.739  -3.406   2.374  0.00  0.00    +0.016 C 
BRANCH  19  20
ATOM     20  C   UNL     1       1.366  -4.858   2.222  0.00  0.00    -0.049 A 
ATOM     21  C   UNL     1       0.105  -5.290   2.589  0.00  0.00    +0.005 A 
ATOM     22  C   UNL     1      -0.238  -6.621   2.446  0.00  0.00    +0.029 A 
ATOM     23  C   UNL     1       0.682  -7.522   1.945  0.00  0.00    +0.105 A 
ATOM     24  C   UNL     1       1.945  -7.091   1.583  0.00  0.00    +0.029 A 
ATOM     25  C   UNL     1       2.287  -5.759   1.721  0.00  0.00    +0.005 A 
BRANCH  23  26
ATOM     26  S   UNL     1       0.246  -9.220   1.769  0.00  0.00    +0.056 S 
ATOM     27  O   UNL     1      -1.170  -9.268   1.666  0.00  0.00    -0.153 OA
ATOM     28  O   UNL     1       1.101  -9.757   0.768  0.00  0.00    -0.153 OA
BRANCH  26  29
ATOM     29  N   UNL     1       0.643  -9.977   3.187  0.00  0.00    -0.204 NA
ATOM     30  H   UNL     1       0.134 -10.748   3.485  0.00  0.00    +0.144 HD
ATOM     31  H   UNL     1       1.385  -9.651   3.720  0.00  0.00    +0.144 HD
ENDBRANCH  26  29
ENDBRANCH  23  26
ENDBRANCH  19  20
ENDBRANCH  18  19
ENDBRANCH   1  18
TORSDOF 7
