REMARK  Name = ZINC67560663
REMARK  4 active torsions:
REMARK  status: ('A' for Active; 'I' for Inactive)
REMARK    1  A    between atoms: C_3  and  C_8
REMARK    2  A    between atoms: C_11  and  N_13
REMARK    3  A    between atoms: C_19  and  N_22
REMARK    4  A    between atoms: C_23  and  C_25
REMARK                            x       y       z     vdW  Elec       q    Type
REMARK                         _______ _______ _______ _____ _____    ______ ____
ROOT
ATOM      1  N   UNL     1       5.552   2.155  -3.791  0.00  0.00    -0.296 N 
ATOM      2  C   UNL     1       5.824   3.171  -2.948  0.00  0.00    +0.302 C 
ATOM      3  O   UNL     1       5.354   3.173  -1.827  0.00  0.00    -0.253 OA
ATOM      4  N   UNL     1       6.618   4.184  -3.348  0.00  0.00    -0.286 N 
ATOM      5  C   UNL     1       7.018   5.238  -2.406  0.00  0.00    +0.111 C 
ATOM      6  C   UNL     1       8.545   5.356  -2.418  0.00  0.00    +0.041 C 
ATOM      7  C   UNL     1       9.024   5.581  -3.854  0.00  0.00    +0.076 C 
ATOM      8  C   UNL     1       8.625   4.385  -4.721  0.00  0.00    +0.041 C 
ATOM      9  C   UNL     1       7.104   4.252  -4.733  0.00  0.00    +0.111 C 
ATOM     10  H   UNL     1       5.865   2.189  -4.709  0.00  0.00    +0.151 HD
ENDROOT
BRANCH   7  11
ATOM     11  N   UNL     1      10.482   5.728  -3.865  0.00  0.00    -0.308 N 
ATOM     12  C   UNL     1      11.083   6.410  -4.860  0.00  0.00    +0.251 C 
ATOM     13  O   UNL     1      10.415   6.905  -5.749  0.00  0.00    -0.270 OA
ATOM     14  H   UNL     1      11.014   5.333  -3.157  0.00  0.00    +0.149 HD
BRANCH  12  15
ATOM     15  C   UNL     1      12.542   6.556  -4.871  0.00  0.00    +0.074 A 
ATOM     16  C   UNL     1      13.347   7.216  -5.787  0.00  0.00    +0.021 A 
ATOM     17  C   UNL     1      14.696   7.181  -5.529  0.00  0.00    +0.008 A 
ATOM     18  C   UNL     1      15.141   6.524  -4.430  0.00  0.00    +0.046 A 
ATOM     19  S   UNL     1      13.742   5.940  -3.706  0.00  0.00    -0.092 S 
ENDBRANCH  12  15
ENDBRANCH   7  11
BRANCH   1  22
ATOM     20  C   UNL     1       4.983  -0.328  -4.055  0.00  0.00    +0.041 C 
ATOM     21  C   UNL     1       3.685   0.461  -4.244  0.00  0.00    +0.033 C 
ATOM     22  C   UNL     1       4.782   1.000  -3.322  0.00  0.00    +0.082 C 
BRANCH  20  25
ATOM     23  C   UNL     1       5.949  -3.596  -2.431  0.00  0.00    +0.003 A 
ATOM     24  C   UNL     1       6.009  -2.437  -3.181  0.00  0.00    +0.004 A 
ATOM     25  C   UNL     1       4.917  -1.591  -3.236  0.00  0.00    -0.040 A 
ATOM     26  C   UNL     1       3.764  -1.904  -2.540  0.00  0.00    +0.042 A 
ATOM     27  C   UNL     1       3.704  -3.064  -1.788  0.00  0.00    +0.124 A 
ATOM     28  C   UNL     1       4.798  -3.911  -1.734  0.00  0.00    +0.038 A 
ATOM     29  F   UNL     1       2.578  -3.371  -1.107  0.00  0.00    -0.205 F 
ENDBRANCH  20  25
ENDBRANCH   1  22
TORSDOF 4
