REMARK  Name = ZINC36601024
REMARK  10 active torsions:
REMARK  status: ('A' for Active; 'I' for Inactive)
REMARK    1  A    between atoms: C_1  and  C_2
REMARK    2  A    between atoms: C_5  and  C_7
REMARK    3  A    between atoms: C_7  and  N_8
REMARK    4  A    between atoms: N_8  and  C_9
REMARK    5  A    between atoms: C_9  and  C_11
REMARK    6  A    between atoms: C_9  and  C_20
REMARK    7  A    between atoms: N_22  and  C_23
REMARK    8  A    between atoms: C_29  and  C_31
REMARK    9  A    between atoms: C_31  and  N_32
REMARK   10  A    between atoms: C_33  and  C_35
REMARK                            x       y       z     vdW  Elec       q    Type
REMARK                         _______ _______ _______ _____ _____    ______ ____
ROOT
ATOM      1  N   UNL     1       2.290  -4.105  -2.360  0.00  0.00    -0.277 N 
ATOM      2  C   UNL     1       1.031  -3.980  -2.824  0.00  0.00    +0.234 C 
ATOM      3  O   UNL     1       0.589  -2.883  -3.092  0.00  0.00    -0.274 OA
ENDROOT
BRANCH   1   4
ATOM      4  C   UNL     1       2.824  -5.430  -2.036  0.00  0.00    +0.183 C 
BRANCH   4   9
ATOM      5  C   UNL     1       2.298  -6.008   2.947  0.00  0.00    +0.086 C 
ATOM      6  C   UNL     1       2.055  -6.128   1.465  0.00  0.00    +0.102 A 
ATOM      7  C   UNL     1       1.065  -6.830   0.885  0.00  0.00    +0.045 A 
ATOM      8  C   UNL     1       1.213  -6.668  -0.512  0.00  0.00    +0.046 A 
ATOM      9  C   UNL     1       2.283  -5.877  -0.702  0.00  0.00    +0.122 A 
ATOM     10  O   UNL     1       2.786  -5.548   0.499  0.00  0.00    -0.463 OA
ENDBRANCH   4   9
ENDBRANCH   1   4
BRANCH   1  11
ATOM     11  C   UNL     1       3.125  -2.914  -2.179  0.00  0.00    +0.193 C 
BRANCH  11  12
ATOM     12  C   UNL     1       2.333  -1.849  -1.465  0.00  0.00    -0.015 A 
ATOM     13  C   UNL     1       1.621  -2.167  -0.324  0.00  0.00    +0.010 A 
ATOM     14  C   UNL     1       0.893  -1.194   0.334  0.00  0.00    +0.050 A 
ATOM     15  C   UNL     1       0.876   0.105  -0.149  0.00  0.00    +0.166 A 
ATOM     16  C   UNL     1       1.594   0.425  -1.298  0.00  0.00    +0.167 A 
ATOM     17  C   UNL     1       2.326  -0.554  -1.950  0.00  0.00    +0.055 A 
ATOM     18  O   UNL     1       1.419   1.752  -1.566  0.00  0.00    -0.453 OA
ATOM     19  C   UNL     1       0.262   2.148  -0.806  0.00  0.00    +0.466 C 
ATOM     20  O   UNL     1       0.252   1.231   0.304  0.00  0.00    -0.453 OA
ENDBRANCH  11  12
BRANCH  11  21
ATOM     21  C   UNL     1       4.338  -3.272  -1.360  0.00  0.00    +0.238 C 
ATOM     22  O   UNL     1       4.224  -3.986  -0.386  0.00  0.00    -0.273 OA
ATOM     23  N   UNL     1       5.551  -2.798  -1.710  0.00  0.00    -0.311 N 
ATOM     24  H   UNL     1       5.642  -2.227  -2.489  0.00  0.00    +0.149 HD
BRANCH  23  25
ATOM     25  C   UNL     1       6.731  -3.145  -0.914  0.00  0.00    +0.073 C 
ATOM     26  C   UNL     1       6.854  -2.177   0.264  0.00  0.00    +0.022 C 
ATOM     27  C   UNL     1       8.086  -2.539   1.096  0.00  0.00    +0.002 C 
ATOM     28  C   UNL     1       9.338  -2.442   0.222  0.00  0.00    +0.000 C 
ATOM     29  C   UNL     1       9.214  -3.410  -0.956  0.00  0.00    +0.002 C 
ATOM     30  C   UNL     1       7.982  -3.048  -1.788  0.00  0.00    +0.022 C 
ENDBRANCH  23  25
ENDBRANCH  11  21
ENDBRANCH   1  11
BRANCH   2  31
ATOM     31  C   UNL     1       0.172  -5.205  -3.010  0.00  0.00    +0.200 C 
BRANCH  31  32
ATOM     32  N   UNL     1      -1.142  -4.806  -3.521  0.00  0.00    -0.303 N 
ATOM     33  C   UNL     1      -2.082  -5.741  -3.765  0.00  0.00    +0.244 C 
ATOM     34  O   UNL     1      -1.839  -6.915  -3.561  0.00  0.00    -0.270 OA
ATOM     35  H   UNL     1      -1.335  -3.870  -3.684  0.00  0.00    +0.150 HD
BRANCH  33  36
ATOM     36  C   UNL     1      -3.407  -5.339  -4.281  0.00  0.00    +0.037 A 
ATOM     37  C   UNL     1      -3.687  -3.993  -4.523  0.00  0.00    +0.013 A 
ATOM     38  C   UNL     1      -4.926  -3.625  -5.005  0.00  0.00    +0.001 A 
ATOM     39  C   UNL     1      -5.891  -4.587  -5.248  0.00  0.00    +0.000 A 
ATOM     40  C   UNL     1      -5.620  -5.923  -5.011  0.00  0.00    +0.001 A 
ATOM     41  C   UNL     1      -4.383  -6.305  -4.535  0.00  0.00    +0.013 A 
ENDBRANCH  33  36
ENDBRANCH  31  32
ENDBRANCH   2  31
TORSDOF 9
