REMARK  Name = ZINC11967995
REMARK  10 active torsions:
REMARK  status: ('A' for Active; 'I' for Inactive)
REMARK    1  A    between atoms: C_1  and  C_2
REMARK    2  A    between atoms: C_2  and  C_3
REMARK    3  A    between atoms: C_3  and  C_4
REMARK    4  A    between atoms: C_4  and  C_19
REMARK    5  A    between atoms: N_7  and  C_11
REMARK    6  A    between atoms: C_11  and  C_12
REMARK    7  A    between atoms: C_12  and  C_13
REMARK    8  A    between atoms: C_18  and  N_71
REMARK    9  A    between atoms: C_25  and  C_27
REMARK   10  A    between atoms: C_27  and  C_28
REMARK                            x       y       z     vdW  Elec       q    Type
REMARK                         _______ _______ _______ _____ _____    ______ ____
ROOT
ATOM      1  C   UNL     1       3.761  -3.016   0.563  0.00  0.00    +0.115 C 
ATOM      2  C   UNL     1       2.511  -2.550   1.283  0.00  0.00    +0.247 C 
ATOM      3  O   UNL     1       2.019  -3.030   2.282  0.00  0.00    -0.273 OA
ATOM      4  N   UNL     1       2.061  -1.491   0.583  0.00  0.00    -0.224 N 
ATOM      5  C   UNL     1       2.841  -1.228  -0.472  0.00  0.00    +0.309 C 
ATOM      6  O   UNL     1       2.636  -0.323  -1.256  0.00  0.00    -0.252 OA
ATOM      7  N   UNL     1       3.881  -2.077  -0.566  0.00  0.00    -0.285 N 
ATOM      8  H   UNL     1       4.573  -2.074  -1.246  0.00  0.00    +0.151 HD
ENDROOT
BRANCH   1   9
ATOM      9  C   UNL     1       3.587  -4.449   0.055  0.00  0.00    +0.024 C 
ATOM     10  C   UNL     1       4.855  -4.887  -0.681  0.00  0.00    +0.025 C 
ATOM     11  C   UNL     1       4.690  -6.333  -1.158  0.00  0.00    +0.108 C 
ATOM     12  N   UNL     1       3.463  -6.430  -1.960  0.00  0.00    -0.301 N 
ATOM     13  C   UNL     1       2.200  -5.952  -1.381  0.00  0.00    +0.108 C 
ATOM     14  C   UNL     1       2.393  -4.509  -0.901  0.00  0.00    +0.025 C 
ATOM     15  C   UNL     1       3.495  -6.948  -3.204  0.00  0.00    +0.220 C 
ATOM     16  O   UNL     1       2.475  -7.022  -3.856  0.00  0.00    -0.275 OA
BRANCH  15  17
ATOM     17  C   UNL     1       4.798  -7.434  -3.784  0.00  0.00    +0.131 C 
BRANCH  17  18
ATOM     18  C   UNL     1       4.562  -7.962  -5.176  0.00  0.00    -0.039 A 
ATOM     19  C   UNL     1       4.252  -9.296  -5.366  0.00  0.00    +0.005 A 
ATOM     20  C   UNL     1       4.030  -9.779  -6.641  0.00  0.00    +0.020 A 
ATOM     21  C   UNL     1       4.129  -8.931  -7.730  0.00  0.00    +0.041 A 
ATOM     22  C   UNL     1       4.445  -7.597  -7.540  0.00  0.00    +0.020 A 
ATOM     23  C   UNL     1       4.661  -7.114  -6.263  0.00  0.00    +0.005 A 
ATOM     24 CL   UNL     1       3.858  -9.539  -9.333  0.00  0.00    -0.084 Cl
ENDBRANCH  17  18
ENDBRANCH  15  17
ENDBRANCH   1   9
BRANCH   1  25
ATOM     25  C   UNL     1       4.980  -2.917   1.482  0.00  0.00    +0.035 C 
BRANCH  25  27
ATOM     26  C   UNL     1       6.382  -1.368   2.851  0.00  0.00    +0.004 C 
ATOM     27  C   UNL     1       5.163  -1.467   1.932  0.00  0.00    -0.001 C 
ENDBRANCH  25  27
ENDBRANCH   1  25
BRANCH   4  28
ATOM     28  C   UNL     1       0.861  -0.724   0.929  0.00  0.00    +0.116 C 
BRANCH  28  29
ATOM     29  C   UNL     1       1.242   0.422   1.867  0.00  0.00    +0.004 C 
BRANCH  29  30
ATOM     30  C   UNL     1       0.015   1.298   2.128  0.00  0.00    -0.068 C 
ATOM     31  C   UNL     1      -1.050   0.492   2.902  0.00  0.00    -0.017 C 
ATOM     32  C   UNL     1      -1.632   1.540   3.888  0.00  0.00    -0.020 C 
ATOM     33  C   UNL     1      -0.376   2.377   4.232  0.00  0.00    -0.079 C 
ATOM     34  C   UNL     1       1.835   2.464   3.229  0.00  0.00    -0.096 C 
ATOM     35  N   UNL     1       0.372   2.458   2.964  0.00  0.00    +0.380 N 
ATOM     36  H   UNL     1       0.116   3.322   2.474  0.00  0.00    -0.082 HD
ENDBRANCH  29  30
ENDBRANCH  28  29
ENDBRANCH   4  28
TORSDOF 8
