REMARK  Name = ZINC67244672
REMARK  8 active torsions:
REMARK  status: ('A' for Active; 'I' for Inactive)
REMARK    1  A    between atoms: C_1  and  C_2
REMARK    2  A    between atoms: C_2  and  C_4
REMARK    3  A    between atoms: C_2  and  S_24
REMARK    4  A    between atoms: C_8  and  N_10
REMARK    5  A    between atoms: N_10  and  S_11
REMARK    6  A    between atoms: S_11  and  C_14
REMARK    7  A    between atoms: C_18  and  N_20
REMARK    8  A    between atoms: S_24  and  C_25
REMARK                            x       y       z     vdW  Elec       q    Type
REMARK                         _______ _______ _______ _____ _____    ______ ____
ROOT
ATOM      1  S   UNL     1       3.880  -3.879   2.990  0.00  0.00    +0.072 S 
ATOM      2  O   UNL     1       5.116  -4.462   2.601  0.00  0.00    -0.150 OA
ATOM      3  O   UNL     1       3.605  -3.501   4.332  0.00  0.00    -0.150 OA
ENDROOT
BRANCH   1   4
ATOM      4  C   UNL     1       2.617  -5.013   2.518  0.00  0.00    +0.111 A 
ATOM      5  C   UNL     1       1.393  -4.992   3.162  0.00  0.00    +0.033 A 
ATOM      6  C   UNL     1       0.402  -5.880   2.794  0.00  0.00    +0.055 A 
ATOM      7  C   UNL     1       0.634  -6.794   1.776  0.00  0.00    +0.209 A 
ATOM      8  C   UNL     1       1.862  -6.814   1.131  0.00  0.00    +0.174 A 
ATOM      9  C   UNL     1       2.849  -5.920   1.500  0.00  0.00    +0.065 A 
ATOM     10  O   UNL     1      -0.340  -7.670   1.412  0.00  0.00    -0.285 OA
BRANCH   8  11
ATOM     11  N   UNL     1       2.113  -7.788   0.046  0.00  0.00    +0.060 N 
ATOM     12  O   UNL     1       3.184  -7.805  -0.516  0.00  0.00    -0.126 OA
ATOM     13  O   UNL     1       1.248  -8.568  -0.279  0.00  0.00    -0.126 OA
ENDBRANCH   8  11
ENDBRANCH   1   4
BRANCH   1  14
ATOM     14  N   UNL     1       3.686  -2.518   2.066  0.00  0.00    -0.216 N 
ATOM     15  H   UNL     1       4.370  -2.265   1.427  0.00  0.00    +0.174 HD
BRANCH  14  20
ATOM     16  C   UNL     1       0.731  -0.503   1.223  0.00  0.00    -0.033 A 
ATOM     17  C   UNL     1       0.262  -0.187   2.485  0.00  0.00    +0.005 A 
ATOM     18  C   UNL     1       0.928  -0.642   3.608  0.00  0.00    +0.002 A 
ATOM     19  C   UNL     1       2.064  -1.416   3.472  0.00  0.00    +0.024 A 
ATOM     20  C   UNL     1       2.538  -1.736   2.206  0.00  0.00    +0.048 A 
ATOM     21  C   UNL     1       1.863  -1.281   1.080  0.00  0.00    +0.029 A 
BRANCH  16  23
ATOM     22  C   UNL     1      -0.019   1.526   0.010  0.00  0.00    +0.024 C 
ATOM     23  C   UNL     1       0.002  -0.004   0.002  0.00  0.00    +0.073 C 
BRANCH  23  24
ATOM     24  S   UNL     1      -1.700  -0.632   0.015  0.00  0.00    -0.156 S 
ATOM     25  C   UNL     1      -2.384  -0.077  -1.571  0.00  0.00    +0.085 C 
ENDBRANCH  23  24
ENDBRANCH  16  23
ENDBRANCH  14  20
ENDBRANCH   1  14
TORSDOF 6
