REMARK  Name = ZINC35577550
REMARK  5 active torsions:
REMARK  status: ('A' for Active; 'I' for Inactive)
REMARK    1  A    between atoms: C_1  and  C_2
REMARK    2  A    between atoms: C_6  and  N_8
REMARK    3  A    between atoms: C_9  and  N_29
REMARK    4  A    between atoms: C_11  and  C_24
REMARK    5  A    between atoms: N_17  and  C_18
REMARK                            x       y       z     vdW  Elec       q    Type
REMARK                         _______ _______ _______ _____ _____    ______ ____
ROOT
ATOM      1  N   UNL     1      -0.197  -2.786   2.554  0.00  0.00    -0.216 N 
ATOM      2  C   UNL     1      -0.591  -4.067   2.698  0.00  0.00    +0.131 A 
ATOM      3  C   UNL     1      -0.110  -4.518   3.919  0.00  0.00    +0.087 A 
ATOM      4  C   UNL     1      -0.170  -5.731   4.648  0.00  0.00    +0.095 A 
ATOM      5  N   UNL     1       0.436  -5.784   5.831  0.00  0.00    -0.213 NA
ATOM      6  C   UNL     1       1.087  -4.743   6.338  0.00  0.00    +0.218 A 
ATOM      7  N   UNL     1       1.191  -3.580   5.728  0.00  0.00    -0.193 NA
ATOM      8  C   UNL     1       0.623  -3.390   4.521  0.00  0.00    +0.189 A 
ATOM      9  N   UNL     1       0.547  -2.390   3.671  0.00  0.00    -0.144 NA
ATOM     10  N   UNL     1       1.689  -4.888   7.575  0.00  0.00    -0.311 N 
ATOM     11  H   UNL     1       1.629  -5.733   8.048  0.00  0.00    +0.149 HD
ENDROOT
BRANCH   1  17
ATOM     12  C   UNL     1      -1.233   1.657   0.719  0.00  0.00    +0.044 C 
ATOM     13  C   UNL     1      -0.990   0.181   0.531  0.00  0.00    -0.048 A 
ATOM     14  C   UNL     1      -1.051  -0.373  -0.735  0.00  0.00    +0.003 A 
ATOM     15  C   UNL     1      -0.829  -1.727  -0.911  0.00  0.00    +0.002 A 
ATOM     16  C   UNL     1      -0.546  -2.529   0.177  0.00  0.00    +0.028 A 
ATOM     17  C   UNL     1      -0.484  -1.976   1.449  0.00  0.00    +0.068 A 
ATOM     18  C   UNL     1      -0.701  -0.615   1.622  0.00  0.00    +0.031 A 
ENDBRANCH   1  17
BRANCH  10  19
ATOM     19  C   UNL     1       2.417  -3.766   8.172  0.00  0.00    +0.073 C 
ATOM     20  C   UNL     1       3.851  -3.748   7.640  0.00  0.00    +0.022 C 
ATOM     21  C   UNL     1       4.612  -2.575   8.263  0.00  0.00    +0.002 C 
ATOM     22  C   UNL     1       4.634  -2.733   9.785  0.00  0.00    +0.000 C 
ATOM     23  C   UNL     1       3.199  -2.751  10.317  0.00  0.00    +0.002 C 
ATOM     24  C   UNL     1       2.439  -3.923   9.694  0.00  0.00    +0.022 C 
ENDBRANCH  10  19
BRANCH   4  25
ATOM     25  C   UNL     1      -0.884  -6.900   4.111  0.00  0.00    +0.038 A 
ATOM     26  C   UNL     1      -0.854  -7.429   2.833  0.00  0.00    +0.017 A 
ATOM     27  C   UNL     1      -1.638  -8.542   2.627  0.00  0.00    +0.008 A 
ATOM     28  C   UNL     1      -2.366  -9.033   3.659  0.00  0.00    +0.046 A 
ATOM     29  S   UNL     1      -2.006  -8.008   4.941  0.00  0.00    -0.095 S 
ENDBRANCH   4  25
BRANCH   2  30
ATOM     30  N   UNL     1      -1.339  -4.799   1.794  0.00  0.00    -0.342 N 
ATOM     31  H   UNL     1      -1.526  -4.437   0.913  0.00  0.00    +0.144 HD
ATOM     32  H   UNL     1      -1.676  -5.675   2.039  0.00  0.00    +0.144 HD
ENDBRANCH   2  30
TORSDOF 4
