REMARK  Name = ZINC64426448
REMARK  8 active torsions:
REMARK  status: ('A' for Active; 'I' for Inactive)
REMARK    1  A    between atoms: C_1  and  C_2
REMARK    2  A    between atoms: C_2  and  C_3
REMARK    3  A    between atoms: C_3  and  C_4
REMARK    4  A    between atoms: C_4  and  N_5
REMARK    5  A    between atoms: N_8  and  N_9
REMARK    6  A    between atoms: C_10  and  C_12
REMARK    7  A    between atoms: C_12  and  N_13
REMARK    8  A    between atoms: C_14  and  C_16
REMARK                            x       y       z     vdW  Elec       q    Type
REMARK                         _______ _______ _______ _____ _____    ______ ____
ROOT
ATOM      1  C   UNL     1       4.016  -2.849   6.723  0.00  0.00    +0.202 C 
ENDROOT
BRANCH   1   3
ATOM      2  N   UNL     1       2.795  -3.384   4.639  0.00  0.00    -0.232 N 
ATOM      3  C   UNL     1       3.447  -3.831   5.731  0.00  0.00    +0.246 C 
ATOM      4  O   UNL     1       3.576  -5.023   5.915  0.00  0.00    -0.273 OA
ATOM      5  H   UNL     1       2.692  -2.431   4.491  0.00  0.00    +0.173 HD
BRANCH   2   9
ATOM      6  N   UNL     1       1.471  -2.526   2.420  0.00  0.00    -0.298 N 
ATOM      7  C   UNL     1       1.615  -3.850   2.625  0.00  0.00    +0.316 C 
ATOM      8  O   UNL     1       1.156  -4.643   1.825  0.00  0.00    -0.251 OA
ATOM      9  N   UNL     1       2.266  -4.297   3.717  0.00  0.00    -0.218 N 
ATOM     10  H   UNL     1       1.837  -1.894   3.058  0.00  0.00    +0.150 HD
ATOM     11  H   UNL     1       2.369  -5.250   3.864  0.00  0.00    +0.174 HD
BRANCH   6  12
ATOM     12  C   UNL     1       0.763  -2.041   1.233  0.00  0.00    +0.106 C 
BRANCH  12  13
ATOM     13  C   UNL     1       0.742  -0.511   1.242  0.00  0.00    +0.018 C 
BRANCH  13  15
ATOM     14  C   UNL     1      -0.019   1.526   0.010  0.00  0.00    +0.004 C 
ATOM     15  C   UNL     1       0.002  -0.004   0.002  0.00  0.00    -0.002 C 
ENDBRANCH  13  15
ENDBRANCH  12  13
ENDBRANCH   6  12
ENDBRANCH   2   9
ENDBRANCH   1   3
BRANCH   1  16
ATOM     16  N   UNL     1       4.671  -3.579   7.811  0.00  0.00    -0.302 N 
ATOM     17  C   UNL     1       5.255  -2.902   8.820  0.00  0.00    +0.253 C 
ATOM     18  O   UNL     1       5.238  -1.686   8.827  0.00  0.00    -0.270 OA
ATOM     19  H   UNL     1       4.684  -4.549   7.806  0.00  0.00    +0.150 HD
BRANCH  17  20
ATOM     20  C   UNL     1       5.911  -3.634   9.911  0.00  0.00    +0.093 A 
ATOM     21  C   UNL     1       6.543  -3.133  11.008  0.00  0.00    +0.068 A 
ATOM     22  C   UNL     1       7.114  -4.011  11.949  0.00  0.00    +0.008 A 
ATOM     23  C   UNL     1       7.808  -3.686  13.143  0.00  0.00    +0.010 A 
ATOM     24  C   UNL     1       8.302  -4.663  13.946  0.00  0.00    +0.001 A 
ATOM     25  C   UNL     1       8.150  -6.009  13.635  0.00  0.00    +0.001 A 
ATOM     26  C   UNL     1       7.481  -6.369  12.483  0.00  0.00    +0.016 A 
ATOM     27  C   UNL     1       6.974  -5.388  11.657  0.00  0.00    +0.021 A 
ATOM     28  S   UNL     1       6.069  -5.398  10.130  0.00  0.00    -0.082 S 
ATOM     29 CL   UNL     1       6.645  -1.417  11.245  0.00  0.00    -0.082 Cl
ENDBRANCH  17  20
ENDBRANCH   1  16
TORSDOF 7
