REMARK  Name = ZINC21780852
REMARK  10 active torsions:
REMARK  status: ('A' for Active; 'I' for Inactive)
REMARK    1  A    between atoms: C_1  and  C_2
REMARK    2  A    between atoms: C_5  and  C_39
REMARK    3  A    between atoms: N_8  and  C_10
REMARK    4  A    between atoms: C_10  and  C_11
REMARK    5  A    between atoms: C_11  and  C_12
REMARK    6  A    between atoms: C_12  and  N_13
REMARK    7  A    between atoms: C_19  and  C_34
REMARK    8  A    between atoms: C_22  and  C_23
REMARK    9  A    between atoms: C_22  and  C_24
REMARK   10  A    between atoms: N_26  and  C_27
REMARK                            x       y       z     vdW  Elec       q    Type
REMARK                         _______ _______ _______ _____ _____    ______ ____
ROOT
ATOM      1  N   UNL     1      -5.736   4.718   0.559  0.00  0.00    -0.281 N 
ATOM      2  C   UNL     1      -4.961   5.779   0.239  0.00  0.00    +0.264 C 
ATOM      3  O   UNL     1      -5.437   6.881   0.035  0.00  0.00    -0.268 OA
ATOM      4  C   UNL     1      -3.520   5.529   0.135  0.00  0.00    +0.105 A 
ATOM      5  C   UNL     1      -2.469   6.392   0.002  0.00  0.00    +0.033 A 
ATOM      6  C   UNL     1      -1.304   5.625  -0.057  0.00  0.00    +0.032 A 
ATOM      7  C   UNL     1      -1.671   4.291   0.039  0.00  0.00    +0.085 A 
ATOM      8  N   UNL     1      -3.021   4.230   0.141  0.00  0.00    -0.331 N 
ATOM      9  C   UNL     1      -3.908   3.066   0.238  0.00  0.00    +0.157 C 
ATOM     10  C   UNL     1      -5.163   3.457   1.018  0.00  0.00    +0.128 C 
ATOM     11  C   UNL     1      -6.209   2.352   0.859  0.00  0.00    +0.043 C 
ENDROOT
BRANCH   7  12
ATOM     12  C   UNL     1      -0.755   3.142   0.025  0.00  0.00    +0.151 A 
ATOM     13  C   UNL     1       0.608   3.204   0.013  0.00  0.00    +0.051 A 
ATOM     14  C   UNL     1       1.073   1.877   0.002  0.00  0.00    +0.042 A 
ATOM     15  C   UNL     1      -0.013   1.076   0.008  0.00  0.00    +0.196 A 
ATOM     16  O   UNL     1      -1.114   1.843   0.017  0.00  0.00    -0.461 OA
ENDBRANCH   7  12
BRANCH  10  17
ATOM     17  C   UNL     1      -4.810   3.588   2.477  0.00  0.00    +0.238 C 
ATOM     18  O   UNL     1      -4.979   2.651   3.228  0.00  0.00    -0.273 OA
ATOM     19  N   UNL     1      -4.305   4.745   2.947  0.00  0.00    -0.311 N 
ATOM     20  H   UNL     1      -4.151   5.595   2.266  0.00  0.00    +0.149 HD
BRANCH  19  21
ATOM     21  C   UNL     1      -3.961   4.872   4.366  0.00  0.00    +0.073 C 
ATOM     22  C   UNL     1      -5.235   5.232   5.158  0.00  0.00    +0.022 C 
ATOM     23  C   UNL     1      -5.018   4.865   6.602  0.00  0.00    +0.002 C 
ATOM     24  C   UNL     1      -4.508   6.053   7.440  0.00  0.00    +0.000 C 
ATOM     25  C   UNL     1      -3.439   6.886   6.707  0.00  0.00    +0.000 C 
ATOM     26  C   UNL     1      -2.446   6.028   5.971  0.00  0.00    +0.002 C 
ATOM     27  C   UNL     1      -2.918   5.876   4.510  0.00  0.00    +0.022 C 
ENDBRANCH  19  21
ENDBRANCH  10  17
BRANCH   1  28
ATOM     28  C   UNL     1      -7.192   4.840   0.451  0.00  0.00    +0.107 C 
BRANCH  28  29
ATOM     29  C   UNL     1      -7.761   5.350   1.776  0.00  0.00    +0.000 C 
BRANCH  29  30
ATOM     30  C   UNL     1      -9.282   5.477   1.663  0.00  0.00    -0.077 C 
BRANCH  30  36
ATOM     31  C   UNL     1     -13.288   7.088   4.019  0.00  0.00    +0.005 C 
ATOM     32  C   UNL     1     -11.817   6.693   4.167  0.00  0.00    -0.031 C 
ATOM     33  C   UNL     1     -11.027   7.869   4.747  0.00  0.00    +0.003 C 
ATOM     34  C   UNL     1      -9.548   7.486   4.837  0.00  0.00    -0.031 C 
ATOM     35  C   UNL     1      -9.041   7.097   3.446  0.00  0.00    -0.076 C 
ATOM     36  N   UNL     1      -9.828   5.967   2.935  0.00  0.00    +0.380 N 
ATOM     37  C   UNL     1     -11.245   6.327   2.796  0.00  0.00    -0.076 C 
ATOM     38  C   UNL     1      -8.742   8.677   5.360  0.00  0.00    +0.005 C 
ATOM     39  H   UNL     1      -9.760   5.152   3.671  0.00  0.00    -0.082 HD
ENDBRANCH  30  36
ENDBRANCH  29  30
ENDBRANCH  28  29
ENDBRANCH   1  28
TORSDOF 7
