REMARK  Name = ZINC28932414
REMARK  6 active torsions:
REMARK  status: ('A' for Active; 'I' for Inactive)
REMARK    1  A    between atoms: C_1  and  C_2
REMARK    2  A    between atoms: C_9  and  C_16
REMARK    3  A    between atoms: C_11  and  O_12
REMARK    4  A    between atoms: C_16  and  O_17
REMARK    5  A    between atoms: O_17  and  C_18
REMARK    6  A    between atoms: C_18  and  C_20
REMARK                            x       y       z     vdW  Elec       q    Type
REMARK                         _______ _______ _______ _____ _____    ______ ____
ROOT
ATOM      1  C   UNL     1      -0.617   1.507  -2.165  0.00  0.00    +0.109 C 
ATOM      2  C   UNL     1      -0.606  -0.000  -2.168  0.00  0.00    +0.214 C 
ATOM      3  O   UNL     1      -1.141  -0.609  -3.070  0.00  0.00    -0.276 OA
ATOM      4  N   UNL     1       0.000  -0.672  -1.169  0.00  0.00    -0.286 N 
ATOM      5  C   UNL     1      -0.071  -2.064  -1.121  0.00  0.00    +0.037 A 
ATOM      6  C   UNL     1      -0.140  -2.712   0.113  0.00  0.00    +0.024 A 
ATOM      7  C   UNL     1      -0.216  -4.072   0.175  0.00  0.00    +0.014 A 
ATOM      8  C   UNL     1      -0.211  -4.825  -1.005  0.00  0.00    +0.024 A 
ATOM      9  C   UNL     1      -0.286  -6.287  -0.967  0.00  0.00    +0.007 A 
ATOM     10  C   UNL     1      -0.279  -6.961  -2.147  0.00  0.00    +0.095 A 
ATOM     11  C   UNL     1      -0.200  -6.248  -3.361  0.00  0.00    +0.285 A 
ATOM     12  O   UNL     1      -0.132  -4.908  -3.389  0.00  0.00    -0.425 OA
ATOM     13  C   UNL     1      -0.136  -4.178  -2.253  0.00  0.00    +0.141 A 
ATOM     14  C   UNL     1      -0.065  -2.794  -2.300  0.00  0.00    +0.070 A 
ATOM     15  H   UNL     1       0.550  -0.122  -0.391  0.00  0.00    +0.155 HD
ENDROOT
BRANCH  11  16
ATOM     16  O   UNL     1      -0.194  -6.865  -4.412  0.00  0.00    -0.480 OA
ATOM     17  H   UNL     1      -0.133  -6.323  -5.367  0.00  0.00    +0.295 HD
ENDBRANCH  11  16
BRANCH   9  18
ATOM     18  C   UNL     1      -0.370  -7.024   0.344  0.00  0.00    +0.269 C 
BRANCH  18  19
ATOM     19  O   UNL     1      -0.433  -8.452   0.094  0.00  0.00    -0.456 OA
BRANCH  19  20
ATOM     20  C   UNL     1      -0.512  -9.259   1.170  0.00  0.00    +0.344 C 
ATOM     21  O   UNL     1      -0.527  -8.782   2.287  0.00  0.00    -0.245 OA
BRANCH  20  22
ATOM     22  C   UNL     1      -0.579 -10.722   0.992  0.00  0.00    +0.112 A 
ATOM     23  C   UNL     1       0.596 -11.480   0.944  0.00  0.00    +0.139 A 
ATOM     24  C   UNL     1       0.523 -12.851   0.782  0.00  0.00    +0.039 A 
ATOM     25  C   UNL     1      -0.707 -13.471   0.657  0.00  0.00    +0.004 A 
ATOM     26  C   UNL     1      -1.873 -12.727   0.698  0.00  0.00    +0.021 A 
ATOM     27  C   UNL     1      -1.818 -11.358   0.864  0.00  0.00    +0.058 A 
ATOM     28 CL   UNL     1      -3.283 -10.428   0.916  0.00  0.00    -0.083 Cl
ATOM     29  F   UNL     1       1.798 -10.874   1.060  0.00  0.00    -0.205 F 
ENDBRANCH  20  22
ENDBRANCH  19  20
ENDBRANCH  18  19
ENDBRANCH   9  18
TORSDOF 5
