REMARK  Name = ZINC08721982
REMARK  4 active torsions:
REMARK  status: ('A' for Active; 'I' for Inactive)
REMARK    1  A    between atoms: C_4  and  C_7
REMARK    2  A    between atoms: C_7  and  N_8
REMARK    3  A    between atoms: C_19  and  C_22
REMARK    4  A    between atoms: C_26  and  N_28
REMARK                            x       y       z     vdW  Elec       q    Type
REMARK                         _______ _______ _______ _____ _____    ______ ____
ROOT
ATOM      1  N   UNL     1       4.153  -0.953   1.342  0.00  0.00    +0.386 N 
ATOM      2  C   UNL     1       5.491  -1.559   1.326  0.00  0.00    -0.073 C 
ATOM      3  C   UNL     1       6.097  -1.537   2.733  0.00  0.00    +0.018 C 
ATOM      4  C   UNL     1       5.087  -2.156   3.689  0.00  0.00    -0.027 A 
ATOM      5  C   UNL     1       3.792  -2.286   3.315  0.00  0.00    -0.021 A 
ATOM      6  S   UNL     1       2.995  -3.041   4.703  0.00  0.00    -0.080 S 
ATOM      7  C   UNL     1       4.295  -3.183   5.724  0.00  0.00    +0.080 A 
ATOM      8  C   UNL     1       5.384  -2.645   5.022  0.00  0.00    +0.068 A 
ATOM      9  C   UNL     1       6.699  -2.624   5.703  0.00  0.00    +0.248 C 
ATOM     10  O   UNL     1       7.645  -2.015   5.236  0.00  0.00    -0.270 OA
ATOM     11  N   UNL     1       6.806  -3.306   6.862  0.00  0.00    -0.289 N 
ATOM     12  C   UNL     1       5.757  -4.177   7.383  0.00  0.00    +0.190 C 
ATOM     13  N   UNL     1       4.419  -3.698   6.992  0.00  0.00    -0.316 N 
ATOM     14  C   UNL     1       3.204  -1.866   2.006  0.00  0.00    -0.035 C 
ATOM     15  H   UNL     1       7.623  -3.214   7.377  0.00  0.00    +0.151 HD
ATOM     16  H   UNL     1       3.664  -3.744   7.599  0.00  0.00    +0.149 HD
ATOM     17  H   UNL     1       4.187  -0.079   1.845  0.00  0.00    -0.081 HD
ENDROOT
BRANCH  12  18
ATOM     18  C   UNL     1       5.959  -5.569   6.845  0.00  0.00    -0.007 A 
ATOM     19  C   UNL     1       4.870  -6.396   6.641  0.00  0.00    +0.007 A 
ATOM     20  C   UNL     1       5.055  -7.674   6.146  0.00  0.00    +0.003 A 
ATOM     21  C   UNL     1       6.329  -8.124   5.855  0.00  0.00    +0.033 A 
ATOM     22  C   UNL     1       7.418  -7.297   6.058  0.00  0.00    +0.127 A 
ATOM     23  C   UNL     1       7.232  -6.018   6.548  0.00  0.00    +0.039 A 
BRANCH  22  24
ATOM     24  N   UNL     1       8.782  -7.780   5.746  0.00  0.00    +0.056 N 
ATOM     25  O   UNL     1       8.944  -8.898   5.315  0.00  0.00    -0.126 OA
ATOM     26  O   UNL     1       9.734  -7.056   5.924  0.00  0.00    -0.126 OA
ENDBRANCH  22  24
ENDBRANCH  12  18
BRANCH   1  27
ATOM     27  C   UNL     1       3.711  -0.707  -0.038  0.00  0.00    -0.043 C 
BRANCH  27  31
ATOM     28  C   UNL     1      -0.017   1.378   0.010  0.00  0.00    +0.000 A 
ATOM     29  C   UNL     1       1.171   2.086   0.002  0.00  0.00    +0.000 A 
ATOM     30  C   UNL     1       2.377   1.411  -0.013  0.00  0.00    +0.002 A 
ATOM     31  C   UNL     1       2.396   0.029  -0.020  0.00  0.00    -0.064 A 
ATOM     32  C   UNL     1       1.208  -0.679  -0.012  0.00  0.00    +0.002 A 
ATOM     33  C   UNL     1       0.002  -0.004   0.002  0.00  0.00    +0.000 A 
ENDBRANCH  27  31
ENDBRANCH   1  27
TORSDOF 4
