REMARK  Name = ZINC06915256
REMARK  5 active torsions:
REMARK  status: ('A' for Active; 'I' for Inactive)
REMARK    1  A    between atoms: C_4  and  C_7
REMARK    2  A    between atoms: C_7  and  C_9
REMARK    3  A    between atoms: C_7  and  N_21
REMARK    4  A    between atoms: C_12  and  C_14
REMARK    5  A    between atoms: N_21  and  C_22
REMARK                            x       y       z     vdW  Elec       q    Type
REMARK                         _______ _______ _______ _____ _____    ______ ____
ROOT
ATOM      1  C   UNL     1       4.510   6.897  -0.003  0.00  0.00    +0.189 C 
ENDROOT
BRANCH   1   5
ATOM      2  C   UNL     1       6.095   7.719   3.877  0.00  0.00    +0.000 A 
ATOM      3  C   UNL     1       4.878   8.255   3.500  0.00  0.00    +0.000 A 
ATOM      4  C   UNL     1       4.365   7.989   2.244  0.00  0.00    +0.006 A 
ATOM      5  C   UNL     1       5.069   7.187   1.366  0.00  0.00    -0.018 A 
ATOM      6  C   UNL     1       6.284   6.646   1.745  0.00  0.00    +0.006 A 
ATOM      7  C   UNL     1       6.799   6.916   2.999  0.00  0.00    +0.000 A 
ENDBRANCH   1   5
BRANCH   1   8
ATOM      8  C   UNL     1       3.868   5.534  -0.005  0.00  0.00    +0.242 A 
ATOM      9  N   UNL     1       4.491   4.389  -0.016  0.00  0.00    -0.110 NA
ATOM     10  N   UNL     1       3.632   3.431  -0.008  0.00  0.00    -0.107 NA
ATOM     11  C   UNL     1       2.421   3.936   0.000  0.00  0.00    +0.250 A 
ATOM     12  O   UNL     1       2.548   5.278   0.006  0.00  0.00    -0.418 OA
BRANCH  11  13
ATOM     13  C   UNL     1       1.153   3.175   0.008  0.00  0.00    +0.057 A 
ATOM     14  C   UNL     1       1.173   1.780   0.000  0.00  0.00    +0.015 A 
ATOM     15  C   UNL     1      -0.013   1.076   0.008  0.00  0.00    +0.001 A 
ATOM     16  C   UNL     1      -1.221   1.750   0.017  0.00  0.00    +0.001 A 
ATOM     17  C   UNL     1      -1.250   3.132   0.030  0.00  0.00    +0.021 A 
ATOM     18  C   UNL     1      -0.069   3.850   0.022  0.00  0.00    +0.053 A 
ATOM     19 CL   UNL     1      -0.106   5.585   0.031  0.00  0.00    -0.083 Cl
ENDBRANCH  11  13
ENDBRANCH   1   8
BRANCH   1  20
ATOM     20  N   UNL     1       5.593   6.927  -0.990  0.00  0.00    -0.329 N 
ATOM     21  H   UNL     1       6.035   6.104  -1.250  0.00  0.00    +0.147 HD
BRANCH  20  22
ATOM     22  C   UNL     1       5.989   8.144  -1.556  0.00  0.00    +0.032 A 
ATOM     23  C   UNL     1       5.356   9.322  -1.184  0.00  0.00    +0.027 A 
ATOM     24  C   UNL     1       5.746  10.524  -1.743  0.00  0.00    +0.051 A 
ATOM     25  C   UNL     1       6.769  10.558  -2.676  0.00  0.00    +0.166 A 
ATOM     26  C   UNL     1       7.407   9.378  -3.051  0.00  0.00    +0.168 A 
ATOM     27  C   UNL     1       7.019   8.174  -2.487  0.00  0.00    +0.072 A 
ATOM     28  O   UNL     1       8.368   9.675  -3.973  0.00  0.00    -0.453 OA
ATOM     29  C   UNL     1       8.589  11.093  -3.855  0.00  0.00    +0.466 C 
ATOM     30  O   UNL     1       7.333  11.595  -3.364  0.00  0.00    -0.453 OA
ENDBRANCH  20  22
ENDBRANCH   1  20
TORSDOF 5
