REMARK  Name = ZINC53364806
REMARK  6 active torsions:
REMARK  status: ('A' for Active; 'I' for Inactive)
REMARK    1  A    between atoms: C_1  and  O_2
REMARK    2  A    between atoms: O_2  and  C_3
REMARK    3  A    between atoms: C_6  and  C_9
REMARK    4  A    between atoms: C_11  and  C_24
REMARK    5  A    between atoms: C_14  and  C_17
REMARK    6  A    between atoms: C_22  and  O_23
REMARK                            x       y       z     vdW  Elec       q    Type
REMARK                         _______ _______ _______ _____ _____    ______ ____
ROOT
ATOM      1  C   UNL     1       2.575  -2.537   4.287  0.00  0.00    +0.047 C 
ATOM      2  N   UNL     1       3.093  -1.808   5.204  0.00  0.00    -0.264 NA
ATOM      3  C   UNL     1       3.798  -2.335   6.366  0.00  0.00    +0.204 C 
ATOM      4  N   UNL     1       3.479  -3.754   6.567  0.00  0.00    -0.284 NA
ATOM      5  C   UNL     1       3.680  -4.503   5.314  0.00  0.00    +0.095 C 
ATOM      6  C   UNL     1       2.620  -4.039   4.308  0.00  0.00    +0.079 C 
ATOM      7  H   UNL     1       4.030  -4.146   7.315  0.00  0.00    +0.125 HD
ENDROOT
BRANCH   3   8
ATOM      8  C   UNL     1       5.283  -2.186   6.155  0.00  0.00    -0.006 A 
ATOM      9  C   UNL     1       6.156  -3.095   6.723  0.00  0.00    +0.007 A 
ATOM     10  C   UNL     1       7.518  -2.959   6.531  0.00  0.00    +0.003 A 
ATOM     11  C   UNL     1       8.008  -1.915   5.770  0.00  0.00    +0.038 A 
ATOM     12  C   UNL     1       7.135  -1.005   5.200  0.00  0.00    +0.124 A 
ATOM     13  C   UNL     1       5.770  -1.145   5.388  0.00  0.00    +0.045 A 
ATOM     14  F   UNL     1       7.613   0.017   4.456  0.00  0.00    -0.205 F 
ENDBRANCH   3   8
BRANCH   1  18
ATOM     15  C   UNL     1       0.625  -0.618   1.040  0.00  0.00    +0.120 A 
ATOM     16  C   UNL     1       1.202   0.143   2.050  0.00  0.00    +0.046 A 
ATOM     17  C   UNL     1       1.835  -0.475   3.105  0.00  0.00    +0.013 A 
ATOM     18  C   UNL     1       1.897  -1.870   3.159  0.00  0.00    -0.004 A 
ATOM     19  C   UNL     1       1.316  -2.632   2.142  0.00  0.00    +0.013 A 
ATOM     20  C   UNL     1       0.680  -2.005   1.093  0.00  0.00    +0.046 A 
BRANCH  15  22
ATOM     21  C   UNL     1      -0.017   1.425   0.010  0.00  0.00    +0.277 C 
ATOM     22  O   UNL     1       0.002  -0.004   0.002  0.00  0.00    -0.495 OA
ENDBRANCH  15  22
ENDBRANCH   1  18
BRANCH   5  23
ATOM     23  C   UNL     1       3.523  -5.979   5.574  0.00  0.00    +0.011 A 
ATOM     24  C   UNL     1       2.754  -6.416   6.636  0.00  0.00    +0.009 A 
ATOM     25  C   UNL     1       2.610  -7.770   6.874  0.00  0.00    +0.001 A 
ATOM     26  C   UNL     1       3.234  -8.690   6.052  0.00  0.00    +0.004 A 
ATOM     27  C   UNL     1       4.003  -8.258   4.989  0.00  0.00    +0.046 A 
ATOM     28  C   UNL     1       4.145  -6.900   4.744  0.00  0.00    +0.122 A 
BRANCH  28  29
ATOM     29  O   UNL     1       4.897  -6.472   3.696  0.00  0.00    -0.506 OA
ATOM     30  H   UNL     1       5.829  -6.333   3.911  0.00  0.00    +0.292 HD
ENDBRANCH  28  29
ENDBRANCH   5  23
TORSDOF 5
