REMARK  Name = ZINC13058311
REMARK  5 active torsions:
REMARK  status: ('A' for Active; 'I' for Inactive)
REMARK    1  A    between atoms: C_1  and  C_2
REMARK    2  A    between atoms: C_2  and  C_3
REMARK    3  A    between atoms: C_6  and  C_9
REMARK    4  A    between atoms: N_13  and  C_17
REMARK    5  A    between atoms: C_20  and  C_23
REMARK                            x       y       z     vdW  Elec       q    Type
REMARK                         _______ _______ _______ _____ _____    ______ ____
ROOT
ATOM      1  C   UNL     1       2.617   1.663  -0.228  0.00  0.00    +0.028 C 
ATOM      2  C   UNL     1       1.314   1.969  -0.448  0.00  0.00    +0.077 C 
ATOM      3  C   UNL     1       0.144   1.074  -0.570  0.00  0.00    +0.263 C 
ATOM      4  O   UNL     1       0.251  -0.134  -0.476  0.00  0.00    -0.269 OA
ATOM      5  N   UNL     1      -1.023   1.654  -0.793  0.00  0.00    -0.224 N 
ATOM      6  C   UNL     1      -1.137   2.994  -0.891  0.00  0.00    +0.125 C 
ATOM      7  S   UNL     1      -2.549   3.923  -1.168  0.00  0.00    -0.027 S 
ATOM      8  S   UNL     1       0.540   3.565  -0.669  0.00  0.00    -0.061 S 
ENDROOT
BRANCH   1  12
ATOM      9  C   UNL     1       5.572   4.696  -0.447  0.00  0.00    -0.048 A 
ATOM     10  C   UNL     1       5.911   3.438   0.021  0.00  0.00    +0.004 A 
ATOM     11  C   UNL     1       4.956   2.447   0.095  0.00  0.00    +0.008 A 
ATOM     12  C   UNL     1       3.642   2.715  -0.304  0.00  0.00    -0.024 A 
ATOM     13  C   UNL     1       3.309   3.988  -0.781  0.00  0.00    +0.008 A 
ATOM     14  C   UNL     1       4.275   4.970  -0.843  0.00  0.00    +0.004 A 
BRANCH   9  16
ATOM     15  C   UNL     1       7.302   5.727  -1.894  0.00  0.00    +0.009 C 
ATOM     16  C   UNL     1       6.623   5.774  -0.524  0.00  0.00    +0.032 C 
ENDBRANCH   9  16
ENDBRANCH   1  12
BRANCH   5  17
ATOM     17  C   UNL     1      -2.165   0.860  -0.924  0.00  0.00    +0.043 A 
ATOM     18  C   UNL     1      -2.779   0.729  -2.166  0.00  0.00    +0.025 A 
ATOM     19  C   UNL     1      -3.902  -0.056  -2.300  0.00  0.00    +0.017 A 
ATOM     20  C   UNL     1      -4.431  -0.713  -1.185  0.00  0.00    +0.063 A 
ATOM     21  C   UNL     1      -3.814  -0.574   0.061  0.00  0.00    +0.017 A 
ATOM     22  C   UNL     1      -2.689   0.208   0.187  0.00  0.00    +0.025 A 
BRANCH  20  23
ATOM     23  C   UNL     1      -5.637  -1.551  -1.324  0.00  0.00    +0.387 C 
ATOM     24  O   UNL     1      -6.095  -2.122  -0.354  0.00  0.00    -0.241 OA
ATOM     25  O   UNL     1      -6.230  -1.684  -2.527  0.00  0.00    -0.241 OA
ENDBRANCH  20  23
ENDBRANCH   5  17
TORSDOF 4
