REMARK  Name = ZINC08914722
REMARK  3 active torsions:
REMARK  status: ('A' for Active; 'I' for Inactive)
REMARK    1  A    between atoms: C_1  and  C_2
REMARK    2  A    between atoms: C_7  and  C_22
REMARK    3  A    between atoms: C_10  and  C_12
REMARK                            x       y       z     vdW  Elec       q    Type
REMARK                         _______ _______ _______ _____ _____    ______ ____
ROOT
ATOM      1  C   UNL     1      -0.018   1.503   0.010  0.00  0.00    +0.090 C 
ATOM      2  C   UNL     1       0.002  -0.004   0.002  0.00  0.00    +0.150 A 
ATOM      3  N   UNL     1       0.008  -0.768  -1.091  0.00  0.00    -0.195 NA
ATOM      4  C   UNL     1       0.025  -2.032  -0.747  0.00  0.00    +0.250 A 
ATOM      5  N   UNL     1       0.037  -2.084   0.621  0.00  0.00    -0.221 N 
ATOM      6  N   UNL     1       0.023  -0.768   1.070  0.00  0.00    -0.153 NA
ATOM      7  C   UNL     1       0.075  -3.345   1.362  0.00  0.00    +0.147 C 
ATOM      8  C   UNL     1      -0.618  -4.415   0.511  0.00  0.00    +0.087 C 
ATOM      9  C   UNL     1      -0.211  -4.306  -0.932  0.00  0.00    +0.055 C 
ATOM     10  N   UNL     1       0.051  -3.161  -1.503  0.00  0.00    -0.215 NA
ENDROOT
BRANCH   9  11
ATOM     11  C   UNL     1      -0.102  -5.536  -1.730  0.00  0.00    -0.003 A 
ATOM     12  C   UNL     1      -0.385  -6.783  -1.138  0.00  0.00    +0.010 A 
ATOM     13  C   UNL     1      -0.291  -7.930  -1.855  0.00  0.00    +0.009 A 
ATOM     14  C   UNL     1       0.091  -7.886  -3.209  0.00  0.00    -0.018 A 
ATOM     15  C   UNL     1       0.193  -9.062  -3.970  0.00  0.00    +0.008 A 
ATOM     16  C   UNL     1       0.566  -8.990  -5.278  0.00  0.00    +0.001 A 
ATOM     17  C   UNL     1       0.848  -7.764  -5.877  0.00  0.00    +0.001 A 
ATOM     18  C   UNL     1       0.760  -6.603  -5.172  0.00  0.00    +0.008 A 
ATOM     19  C   UNL     1       0.379  -6.639  -3.818  0.00  0.00    -0.017 A 
ATOM     20  C   UNL     1       0.273  -5.461  -3.065  0.00  0.00    +0.018 A 
ENDBRANCH   9  11
BRANCH   7  21
ATOM     21  C   UNL     1       1.505  -3.743   1.618  0.00  0.00    -0.023 A 
ATOM     22  C   UNL     1       2.365  -3.954   0.556  0.00  0.00    +0.006 A 
ATOM     23  C   UNL     1       3.677  -4.319   0.791  0.00  0.00    +0.000 A 
ATOM     24  C   UNL     1       4.130  -4.473   2.088  0.00  0.00    +0.000 A 
ATOM     25  C   UNL     1       3.271  -4.261   3.150  0.00  0.00    +0.000 A 
ATOM     26  C   UNL     1       1.960  -3.892   2.915  0.00  0.00    +0.006 A 
ENDBRANCH   7  21
TORSDOF 2
