REMARK  Name = ZINC65452024
REMARK  7 active torsions:
REMARK  status: ('A' for Active; 'I' for Inactive)
REMARK    1  A    between atoms: C_1  and  C_2
REMARK    2  A    between atoms: C_2  and  C_3
REMARK    3  A    between atoms: C_2  and  N_4
REMARK    4  A    between atoms: C_7  and  C_10
REMARK    5  A    between atoms: N_12  and  C_13
REMARK    6  A    between atoms: C_13  and  C_15
REMARK    7  A    between atoms: C_13  and  C_21
REMARK                            x       y       z     vdW  Elec       q    Type
REMARK                         _______ _______ _______ _____ _____    ______ ____
ROOT
ATOM      1  C   UNL     1       2.750  -4.141   6.226  0.00  0.00    +0.161 C 
ENDROOT
BRANCH   1   2
ATOM      2  C   UNL     1       2.356  -5.537   6.634  0.00  0.00    +0.128 A 
ATOM      3  N   UNL     1       2.143  -6.607   5.895  0.00  0.00    -0.142 NA
ATOM      4  N   UNL     1       1.815  -7.716   6.397  0.00  0.00    -0.126 NA
ATOM      5  C   UNL     1       1.663  -7.874   7.705  0.00  0.00    +0.179 A 
ATOM      6  S   UNL     1       2.050  -6.217   8.262  0.00  0.00    -0.034 S 
ATOM      7  N   UNL     1       1.311  -9.001   8.433  0.00  0.00    -0.336 N 
ATOM      8  H   UNL     1       1.134  -9.838   7.976  0.00  0.00    +0.144 HD
ATOM      9  H   UNL     1       1.241  -8.952   9.400  0.00  0.00    +0.144 HD
ENDBRANCH   1   2
BRANCH   1  10
ATOM     10  C   UNL     1       4.207  -4.122   5.843  0.00  0.00    -0.021 A 
ATOM     11  C   UNL     1       4.598  -4.556   4.589  0.00  0.00    +0.006 A 
ATOM     12  C   UNL     1       5.934  -4.539   4.238  0.00  0.00    +0.000 A 
ATOM     13  C   UNL     1       6.881  -4.088   5.139  0.00  0.00    +0.000 A 
ATOM     14  C   UNL     1       6.490  -3.653   6.392  0.00  0.00    +0.000 A 
ATOM     15  C   UNL     1       5.153  -3.666   6.742  0.00  0.00    +0.006 A 
ENDBRANCH   1  10
BRANCH   1  18
ATOM     16  C   UNL     1       1.728  -2.408   4.851  0.00  0.00    +0.217 C 
ATOM     17  O   UNL     1       2.210  -1.577   5.591  0.00  0.00    -0.275 OA
ATOM     18  N   UNL     1       1.938  -3.719   5.081  0.00  0.00    -0.302 N 
ATOM     19  H   UNL     1       1.552  -4.383   4.489  0.00  0.00    +0.150 HD
BRANCH  16  23
ATOM     20  N   UNL     1       0.713  -0.491   1.192  0.00  0.00    +0.381 N 
ATOM     21  C   UNL     1       0.030  -0.009   2.399  0.00  0.00    -0.078 C 
ATOM     22  C   UNL     1       0.811  -0.445   3.640  0.00  0.00    -0.006 C 
ATOM     23  C   UNL     1       0.893  -1.974   3.674  0.00  0.00    +0.072 C 
ATOM     24  C   UNL     1       1.540  -2.469   2.377  0.00  0.00    -0.006 C 
ATOM     25  C   UNL     1       0.732  -1.958   1.183  0.00  0.00    -0.078 C 
ATOM     26  H   UNL     1       1.660  -0.143   1.183  0.00  0.00    -0.081 HD
BRANCH  20  28
ATOM     27  C   UNL     1      -0.019   1.526   0.010  0.00  0.00    -0.014 C 
ATOM     28  C   UNL     1       0.002  -0.004   0.002  0.00  0.00    -0.075 C 
ATOM     29  C   UNL     1       0.718  -0.497  -1.257  0.00  0.00    -0.014 C 
ENDBRANCH  20  28
ENDBRANCH  16  23
ENDBRANCH   1  18
TORSDOF 5
