REMARK  Name = ZINC12445816
REMARK  6 active torsions:
REMARK  status: ('A' for Active; 'I' for Inactive)
REMARK    1  A    between atoms: C_1  and  N_48
REMARK    2  A    between atoms: C_2  and  C_3
REMARK    3  A    between atoms: C_2  and  N_48
REMARK    4  A    between atoms: C_14  and  C_15
REMARK    5  A    between atoms: C_14  and  N_48
REMARK    6  A    between atoms: C_17  and  C_20
REMARK                            x       y       z     vdW  Elec       q    Type
REMARK                         _______ _______ _______ _____ _____    ______ ____
ROOT
ATOM      1  C   UNL     1       2.656   3.661  -2.075  0.00  0.00    -0.095 C 
ATOM      2  N   UNL     1       1.817   4.675  -1.402  0.00  0.00    +0.387 N 
ATOM      3  H   UNL     1       0.919   4.745  -1.895  0.00  0.00    -0.081 HD
ENDROOT
BRANCH   2   4
ATOM      4  C   UNL     1       1.567   4.274  -0.002  0.00  0.00    -0.020 C 
BRANCH   4   5
ATOM      5  C   UNL     1       0.693   3.047   0.004  0.00  0.00    +0.050 A 
ATOM      6  C   UNL     1      -0.705   3.036   0.012  0.00  0.00    -0.006 A 
ATOM      7  C   UNL     1      -1.111   1.744   0.016  0.00  0.00    +0.039 A 
ATOM      8  N   UNL     1      -0.011   0.966   0.007  0.00  0.00    -0.281 N 
ATOM      9  H   UNL     1       0.003  -0.034   0.006  0.00  0.00    +0.189 HD
ATOM     10  N   UNL     1       1.111   1.806   0.001  0.00  0.00    -0.180 NA
ATOM     11  C   UNL     1      -2.543   1.275   0.043  0.00  0.00    +0.055 C 
ATOM     12  C   UNL     1      -3.348   2.049  -1.006  0.00  0.00    +0.006 C 
ATOM     13  C   UNL     1      -3.905   3.326  -0.386  0.00  0.00    +0.001 C 
ATOM     14  C   UNL     1      -2.941   3.884   0.657  0.00  0.00    +0.005 C 
ATOM     15  C   UNL     1      -1.610   4.242   0.000  0.00  0.00    +0.039 C 
ENDBRANCH   4   5
ENDBRANCH   2   4
BRANCH   2  16
ATOM     16  C   UNL     1       2.488   5.991  -1.439  0.00  0.00    +0.022 C 
BRANCH  16  17
ATOM     17  C   UNL     1       2.533   6.474  -2.866  0.00  0.00    +0.211 A 
ATOM     18  N   UNL     1       1.616   7.184  -3.475  0.00  0.00    -0.193 NA
ATOM     19  C   UNL     1       2.084   7.381  -4.729  0.00  0.00    +0.202 A 
ATOM     20  N   UNL     1       3.242   6.779  -4.808  0.00  0.00    -0.056 NA
ATOM     21  O   UNL     1       3.512   6.255  -3.748  0.00  0.00    -0.340 OA
BRANCH  19  22
ATOM     22  C   UNL     1       1.406   8.134  -5.814  0.00  0.00    +0.024 A 
ATOM     23  C   UNL     1       2.008   8.251  -7.065  0.00  0.00    +0.012 A 
ATOM     24  C   UNL     1       1.374   8.952  -8.071  0.00  0.00    +0.002 A 
ATOM     25  C   UNL     1       0.143   9.539  -7.839  0.00  0.00    +0.020 A 
ATOM     26  C   UNL     1      -0.460   9.426  -6.598  0.00  0.00    +0.042 A 
ATOM     27  C   UNL     1       0.164   8.722  -5.586  0.00  0.00    +0.031 A 
ATOM     28 CL   UNL     1      -2.006  10.164  -6.315  0.00  0.00    -0.084 Cl
ENDBRANCH  19  22
ENDBRANCH  16  17
ENDBRANCH   2  16
TORSDOF 5
