REMARK  Name = ZINC41209880
REMARK  8 active torsions:
REMARK  status: ('A' for Active; 'I' for Inactive)
REMARK    1  A    between atoms: C_1  and  C_2
REMARK    2  A    between atoms: C_4  and  C_29
REMARK    3  A    between atoms: C_6  and  N_8
REMARK    4  A    between atoms: C_9  and  C_11
REMARK    5  A    between atoms: N_16  and  S_18
REMARK    6  A    between atoms: S_18  and  C_21
REMARK    7  A    between atoms: C_22  and  C_28
REMARK    8  A    between atoms: C_26  and  C_27
REMARK                            x       y       z     vdW  Elec       q    Type
REMARK                         _______ _______ _______ _____ _____    ______ ____
ROOT
ATOM      1  C   UNL     1       0.280  -2.900   4.854  0.00  0.00    +0.091 C 
ATOM      2  C   UNL     1       1.544  -3.762   4.812  0.00  0.00    +0.015 C 
ATOM      3  C   UNL     1       1.659  -4.565   6.110  0.00  0.00    +0.018 C 
ATOM      4  C   UNL     1       1.771  -3.599   7.294  0.00  0.00    +0.109 C 
ATOM      5  N   UNL     1       0.632  -2.672   7.258  0.00  0.00    -0.176 NA
ATOM      6  C   UNL     1       0.375  -1.916   6.024  0.00  0.00    +0.122 C 
ENDROOT
BRANCH   1   8
ATOM      7  N   UNL     1       0.052  -2.797   2.393  0.00  0.00    -0.285 N 
ATOM      8  C   UNL     1       0.150  -2.134   3.562  0.00  0.00    +0.222 C 
ATOM      9  O   UNL     1       0.134  -0.922   3.575  0.00  0.00    -0.275 OA
ATOM     10  H   UNL     1      -0.012  -3.765   2.388  0.00  0.00    +0.155 HD
BRANCH   7  16
ATOM     11  C   UNL     1      -1.512  -2.365  -2.248  0.00  0.00    +0.044 C 
ATOM     12  C   UNL     1      -0.706  -1.857  -1.080  0.00  0.00    -0.048 A 
ATOM     13  C   UNL     1       0.025  -0.690  -1.201  0.00  0.00    +0.006 A 
ATOM     14  C   UNL     1       0.765  -0.220  -0.131  0.00  0.00    -0.048 A 
ATOM     15  C   UNL     1       0.776  -0.917   1.061  0.00  0.00    +0.026 A 
ATOM     16  C   UNL     1       0.043  -2.089   1.186  0.00  0.00    +0.034 A 
ATOM     17  C   UNL     1      -0.704  -2.555   0.112  0.00  0.00    +0.026 A 
ATOM     18  C   UNL     1       1.562   1.052  -0.268  0.00  0.00    +0.044 C 
ENDBRANCH   7  16
ENDBRANCH   1   8
BRANCH   5  19
ATOM     19  S   UNL     1      -0.344  -2.482   8.582  0.00  0.00    +0.064 S 
ATOM     20  O   UNL     1      -1.596  -2.013   8.099  0.00  0.00    -0.153 OA
ATOM     21  O   UNL     1      -0.221  -3.671   9.350  0.00  0.00    -0.153 OA
BRANCH  19  22
ATOM     22  C   UNL     1       0.342  -1.182   9.552  0.00  0.00    +0.148 A 
ATOM     23  C   UNL     1       1.259  -1.322  10.537  0.00  0.00    +0.060 A 
ATOM     24  N   UNL     1       1.522  -0.094  11.032  0.00  0.00    -0.280 N 
ATOM     25  H   UNL     1       2.143   0.111  11.748  0.00  0.00    +0.189 HD
ATOM     26  N   UNL     1       0.741   0.831  10.328  0.00  0.00    -0.177 NA
ATOM     27  C   UNL     1       0.038   0.179   9.437  0.00  0.00    +0.086 A 
ATOM     28  C   UNL     1      -0.934   0.788   8.460  0.00  0.00    +0.069 C 
ATOM     29  C   UNL     1       1.876  -2.617  10.999  0.00  0.00    +0.067 C 
ENDBRANCH  19  22
ENDBRANCH   5  19
TORSDOF 4
