REMARK  Name = ZINC15947416
REMARK  10 active torsions:
REMARK  status: ('A' for Active; 'I' for Inactive)
REMARK    1  A    between atoms: C_1  and  C_2
REMARK    2  A    between atoms: C_2  and  N_3
REMARK    3  A    between atoms: C_11  and  O_34
REMARK    4  A    between atoms: C_13  and  C_16
REMARK    5  A    between atoms: C_19  and  O_24
REMARK    6  A    between atoms: C_20  and  O_22
REMARK    7  A    between atoms: O_22  and  C_23
REMARK    8  A    between atoms: O_24  and  C_25
REMARK    9  A    between atoms: C_25  and  C_27
REMARK   10  A    between atoms: C_30  and  C_33
REMARK                            x       y       z     vdW  Elec       q    Type
REMARK                         _______ _______ _______ _____ _____    ______ ____
ROOT
ATOM      1  N   UNL     1      -1.363  -0.656   0.156  0.00  0.00    +0.383 N 
ATOM      2  C   UNL     1      -1.371  -2.120   0.266  0.00  0.00    -0.074 C 
ATOM      3  C   UNL     1      -2.788  -2.621   0.566  0.00  0.00    +0.018 C 
ATOM      4  C   UNL     1      -3.727  -2.017  -0.470  0.00  0.00    -0.027 A 
ATOM      5  C   UNL     1      -3.331  -0.948  -1.202  0.00  0.00    -0.021 A 
ATOM      6  S   UNL     1      -4.706  -0.591  -2.257  0.00  0.00    -0.080 S 
ATOM      7  C   UNL     1      -5.750  -1.780  -1.759  0.00  0.00    +0.080 A 
ATOM      8  C   UNL     1      -5.063  -2.492  -0.768  0.00  0.00    +0.067 A 
ATOM      9  C   UNL     1      -5.763  -3.644  -0.143  0.00  0.00    +0.220 C 
ATOM     10  N   UNL     1      -7.043  -3.769  -0.367  0.00  0.00    -0.223 NA
ATOM     11  C   UNL     1      -7.844  -2.823  -1.133  0.00  0.00    +0.224 C 
ATOM     12  N   UNL     1      -7.032  -2.110  -2.136  0.00  0.00    -0.313 N 
ATOM     13  C   UNL     1      -2.011  -0.251  -1.106  0.00  0.00    -0.035 C 
ATOM     14  H   UNL     1      -7.382  -1.886  -3.013  0.00  0.00    +0.149 HD
ATOM     15  H   UNL     1      -1.867  -0.258   0.934  0.00  0.00    -0.081 HD
ENDROOT
BRANCH  11  16
ATOM     16  C   UNL     1      -8.453  -1.817  -0.191  0.00  0.00    -0.002 A 
ATOM     17  C   UNL     1      -8.716  -0.533  -0.628  0.00  0.00    +0.011 A 
ATOM     18  C   UNL     1      -9.275   0.394   0.232  0.00  0.00    +0.050 A 
ATOM     19  C   UNL     1      -9.573   0.035   1.537  0.00  0.00    +0.173 A 
ATOM     20  C   UNL     1      -9.308  -1.258   1.978  0.00  0.00    +0.163 A 
ATOM     21  C   UNL     1      -8.753  -2.183   1.108  0.00  0.00    +0.056 A 
BRANCH  20  22
ATOM     22  O   UNL     1      -9.599  -1.615   3.258  0.00  0.00    -0.491 OA
ATOM     23  C   UNL     1      -9.300  -2.959   3.640  0.00  0.00    +0.277 C 
ENDBRANCH  20  22
BRANCH  19  24
ATOM     24  O   UNL     1     -10.122   0.945   2.385  0.00  0.00    -0.419 OA
BRANCH  24  25
ATOM     25  C   UNL     1      -9.305   1.578   3.250  0.00  0.00    +0.345 C 
ATOM     26  O   UNL     1      -8.104   1.402   3.190  0.00  0.00    -0.245 OA
BRANCH  25  27
ATOM     27  C   UNL     1      -9.868   2.485   4.270  0.00  0.00    +0.059 A 
ATOM     28  C   UNL     1     -11.248   2.685   4.345  0.00  0.00    +0.015 A 
ATOM     29  C   UNL     1     -11.768   3.533   5.301  0.00  0.00    +0.004 A 
ATOM     30  C   UNL     1     -10.925   4.185   6.184  0.00  0.00    -0.050 A 
ATOM     31  C   UNL     1      -9.557   3.992   6.114  0.00  0.00    +0.004 A 
ATOM     32  C   UNL     1      -9.024   3.142   5.168  0.00  0.00    +0.015 A 
ATOM     33  C   UNL     1     -11.500   5.111   7.225  0.00  0.00    +0.044 C 
ENDBRANCH  25  27
ENDBRANCH  24  25
ENDBRANCH  19  24
ENDBRANCH  11  16
BRANCH   1  35
ATOM     34  C   UNL     1       0.029   1.358   0.185  0.00  0.00    -0.017 C 
ATOM     35  C   UNL     1       0.023  -0.172   0.171  0.00  0.00    -0.082 C 
ENDBRANCH   1  35
BRANCH   9  36
ATOM     36  O   UNL     1      -5.097  -4.533   0.630  0.00  0.00    -0.492 OA
ATOM     37  H   UNL     1      -5.653  -5.241   0.983  0.00  0.00    +0.294 HD
ENDBRANCH   9  36
TORSDOF 7
