REMARK  Name = ZINC05931264
REMARK  6 active torsions:
REMARK  status: ('A' for Active; 'I' for Inactive)
REMARK    1  A    between atoms: C_1  and  C_2
REMARK    2  A    between atoms: C_2  and  S_3
REMARK    3  A    between atoms: S_3  and  C_4
REMARK    4  A    between atoms: C_14  and  C_28
REMARK    5  A    between atoms: C_14  and  C_29
REMARK    6  A    between atoms: C_20  and  C_22
REMARK                            x       y       z     vdW  Elec       q    Type
REMARK                         _______ _______ _______ _____ _____    ______ ____
ROOT
ATOM      1  C   UNL     1       0.792  -2.345  -1.354  0.00  0.00    +0.171 A 
ATOM      2  N   UNL     1       0.203  -2.893  -0.311  0.00  0.00    -0.185 NA
ATOM      3  C   UNL     1       0.141  -4.227  -0.176  0.00  0.00    +0.280 A 
ATOM      4  O   UNL     1      -0.412  -4.720   0.796  0.00  0.00    -0.265 OA
ATOM      5  C   UNL     1       0.718  -5.056  -1.162  0.00  0.00    +0.070 A 
ATOM      6  C   UNL     1       1.320  -4.478  -2.235  0.00  0.00    +0.112 A 
ATOM      7  N   UNL     1       1.352  -3.111  -2.331  0.00  0.00    -0.322 N 
ATOM      8  N   UNL     1       1.883  -5.259  -3.217  0.00  0.00    -0.304 N 
ATOM      9  C   UNL     1       1.530  -6.574  -3.351  0.00  0.00    +0.017 C 
ATOM     10  C   UNL     1       1.812  -7.262  -4.664  0.00  0.00    +0.058 C 
ATOM     11  C   UNL     1       2.076  -8.749  -4.418  0.00  0.00    -0.023 C 
ATOM     12  C   UNL     1       0.850  -9.352  -3.726  0.00  0.00    +0.086 C 
ATOM     13  C   UNL     1       0.577  -8.587  -2.460  0.00  0.00    +0.162 C 
ATOM     14  O   UNL     1       0.030  -9.148  -1.531  0.00  0.00    -0.292 OA
ATOM     15  C   UNL     1       0.943  -7.236  -2.331  0.00  0.00    +0.026 C 
ATOM     16  H   UNL     1       2.537  -4.873  -3.822  0.00  0.00    +0.153 HD
ATOM     17  C   UNL     1       0.665  -6.548  -1.018  0.00  0.00    +0.111 C 
ATOM     18  C   UNL     1       2.314  -9.457  -5.753  0.00  0.00    +0.011 C 
ATOM     19  C   UNL     1       3.305  -8.911  -3.520  0.00  0.00    +0.011 C 
ATOM     20  H   UNL     1       1.777  -2.689  -3.094  0.00  0.00    +0.169 HD
ENDROOT
BRANCH  17  21
ATOM     21  C   UNL     1       1.693  -6.984  -0.006  0.00  0.00    +0.053 A 
ATOM     22  C   UNL     1       2.894  -6.304   0.083  0.00  0.00    +0.024 A 
ATOM     23  C   UNL     1       3.833  -6.712   1.018  0.00  0.00    +0.003 A 
ATOM     24  C   UNL     1       3.528  -7.793   1.831  0.00  0.00    +0.020 A 
ATOM     25  C   UNL     1       2.307  -8.423   1.684  0.00  0.00    +0.111 A 
ATOM     26  N   UNL     1       1.435  -8.004   0.788  0.00  0.00    -0.259 NA
ENDBRANCH  17  21
BRANCH   1  27
ATOM     27  S   UNL     1       0.851  -0.589  -1.490  0.00  0.00    -0.088 S 
BRANCH  27  29
ATOM     28  C   UNL     1      -0.019   1.526   0.010  0.00  0.00    +0.016 C 
ATOM     29  C   UNL     1       0.002  -0.004   0.002  0.00  0.00    +0.074 C 
ENDBRANCH  27  29
ENDBRANCH   1  27
TORSDOF 3
