REMARK  Name = ZINC64176280
REMARK  3 active torsions:
REMARK  status: ('A' for Active; 'I' for Inactive)
REMARK    1  A    between atoms: C_4  and  C_18
REMARK    2  A    between atoms: C_18  and  C_19
REMARK    3  A    between atoms: C_19  and  C_21
REMARK                            x       y       z     vdW  Elec       q    Type
REMARK                         _______ _______ _______ _____ _____    ______ ____
ROOT
ATOM      1  C   UNL     1      -0.016   1.349   0.009  0.00  0.00    +0.076 A 
ATOM      2  C   UNL     1       1.257   2.082   0.001  0.00  0.00    +0.061 A 
ATOM      3  N   UNL     1       1.260   3.386   0.007  0.00  0.00    -0.372 N 
ATOM      4  C   UNL     1       2.552   4.088  -0.001  0.00  0.00    +0.173 C 
ATOM      5  C   UNL     1       3.811   3.252  -0.014  0.00  0.00    +0.240 C 
ATOM      6  O   UNL     1       4.903   3.784  -0.019  0.00  0.00    -0.273 OA
ATOM      7  N   UNL     1       3.708   1.924  -0.019  0.00  0.00    -0.282 N 
ATOM      8  C   UNL     1       2.530   1.315  -0.014  0.00  0.00    +0.060 A 
ATOM      9  C   UNL     1       2.474  -0.089  -0.022  0.00  0.00    +0.074 A 
ATOM     10  C   UNL     1       1.266  -0.740  -0.016  0.00  0.00    +0.164 A 
ATOM     11  C   UNL     1       0.002  -0.004   0.002  0.00  0.00    +0.164 A 
ATOM     12  O   UNL     1      -1.173  -0.697   0.013  0.00  0.00    -0.488 OA
ATOM     13  C   UNL     1      -1.474  -1.429  -1.176  0.00  0.00    +0.232 C 
ATOM     14  C   UNL     1      -0.801  -2.790  -1.162  0.00  0.00    +0.082 C 
ATOM     15  C   UNL     1       0.714  -2.701  -1.214  0.00  0.00    +0.232 C 
ATOM     16  O   UNL     1       1.236  -2.101  -0.027  0.00  0.00    -0.488 OA
ATOM     17  H   UNL     1       0.426   3.882   0.015  0.00  0.00    +0.160 HD
ATOM     18  H   UNL     1       4.516   1.387  -0.028  0.00  0.00    +0.155 HD
ENDROOT
BRANCH   4  19
ATOM     19  C   UNL     1       2.602   4.986   1.236  0.00  0.00    +0.114 C 
BRANCH  19  20
ATOM     20  C   UNL     1       1.545   6.054   1.125  0.00  0.00    +0.172 C 
ATOM     21  O   UNL     1       0.822   6.093   0.151  0.00  0.00    -0.291 OA
BRANCH  20  22
ATOM     22  C   UNL     1       1.389   7.048   2.194  0.00  0.00    +0.048 C 
ATOM     23  C   UNL     1       2.106   7.141   3.321  0.00  0.00    -0.007 C 
ATOM     24  C   UNL     1       1.788   8.222   4.304  0.00  0.00    +0.059 C 
ATOM     25  C   UNL     1       0.954   9.347   3.639  0.00  0.00    +0.146 C 
ATOM     26  S   UNL     1       0.210   8.385   2.258  0.00  0.00    -0.102 S 
ATOM     27 CL   UNL     1      -0.305   9.985   4.761  0.00  0.00    -0.109 Cl
ENDBRANCH  20  22
ENDBRANCH  19  20
ENDBRANCH   4  19
TORSDOF 3
