REMARK  Name = ZINC21876574
REMARK  6 active torsions:
REMARK  status: ('A' for Active; 'I' for Inactive)
REMARK    1  A    between atoms: C_1  and  C_2
REMARK    2  A    between atoms: C_7  and  C_8
REMARK    3  A    between atoms: N_10  and  C_11
REMARK    4  A    between atoms: C_11  and  C_12
REMARK    5  A    between atoms: C_12  and  N_13
REMARK    6  A    between atoms: C_17  and  C_18
REMARK                            x       y       z     vdW  Elec       q    Type
REMARK                         _______ _______ _______ _____ _____    ______ ____
ROOT
ATOM      1  C   UNL     1      -5.269  -3.631   2.288  0.00  0.00    +0.136 C 
ENDROOT
BRANCH   1   2
ATOM      2  N   UNL     1      -5.937  -4.919   2.487  0.00  0.00    -0.227 N 
ATOM      3  C   UNL     1      -5.619  -5.658   3.537  0.00  0.00    +0.260 C 
ATOM      4  O   UNL     1      -4.783  -5.295   4.343  0.00  0.00    -0.269 OA
ATOM      5  C   UNL     1      -6.328  -6.945   3.680  0.00  0.00    +0.080 C 
ATOM      6  C   UNL     1      -6.209  -7.895   4.642  0.00  0.00    +0.028 C 
ATOM      7  S   UNL     1      -7.385  -6.907   2.239  0.00  0.00    -0.026 S 
ATOM      8  C   UNL     1      -6.868  -5.323   1.598  0.00  0.00    +0.286 C 
ATOM      9  O   UNL     1      -7.258  -4.748   0.600  0.00  0.00    -0.262 OA
BRANCH   6  10
ATOM     10  C   UNL     1      -7.142  -9.029   4.673  0.00  0.00    -0.020 A 
ATOM     11  C   UNL     1      -8.262  -9.040   3.833  0.00  0.00    +0.012 A 
ATOM     12  C   UNL     1      -9.132 -10.107   3.860  0.00  0.00    +0.050 A 
ATOM     13  C   UNL     1      -8.910 -11.169   4.727  0.00  0.00    +0.166 A 
ATOM     14  C   UNL     1      -7.799 -11.162   5.572  0.00  0.00    +0.167 A 
ATOM     15  C   UNL     1      -6.918 -10.099   5.547  0.00  0.00    +0.057 A 
ATOM     16  O   UNL     1      -7.811 -12.308   6.315  0.00  0.00    -0.453 OA
ATOM     17  C   UNL     1      -9.153 -12.819   6.212  0.00  0.00    +0.466 C 
ATOM     18  O   UNL     1      -9.614 -12.318   4.943  0.00  0.00    -0.453 OA
ENDBRANCH   6  10
ENDBRANCH   1   2
BRANCH   1  19
ATOM     19  C   UNL     1      -4.007  -3.835   1.447  0.00  0.00    +0.124 C 
BRANCH  19  22
ATOM     20  C   UNL     1      -2.198  -2.483   0.533  0.00  0.00    +0.261 C 
ATOM     21  O   UNL     1      -1.724  -3.495   0.052  0.00  0.00    -0.269 OA
ATOM     22  N   UNL     1      -3.338  -2.547   1.249  0.00  0.00    -0.309 N 
ATOM     23  H   UNL     1      -3.767  -1.632   1.684  0.00  0.00    +0.149 HD
BRANCH  20  30
ATOM     24  C   UNL     1       0.446  -2.041  -1.075  0.00  0.00    +0.047 C 
ATOM     25  C   UNL     1      -0.372  -0.991  -0.368  0.00  0.00    -0.010 A 
ATOM     26  C   UNL     1      -0.096   0.380  -0.302  0.00  0.00    +0.042 A 
ATOM     27  C   UNL     1      -1.106   0.980   0.450  0.00  0.00    +0.027 A 
ATOM     28  N   UNL     1      -1.960   0.026   0.824  0.00  0.00    -0.354 N 
ATOM     29  H   UNL     1      -2.841   0.284   1.430  0.00  0.00    +0.166 HD
ATOM     30  C   UNL     1      -1.528  -1.191   0.334  0.00  0.00    +0.106 A 
ATOM     31  C   UNL     1      -1.143   2.459   0.739  0.00  0.00    +0.054 C 
ATOM     32  C   UNL     1       0.261   3.044   0.555  0.00  0.00    +0.014 C 
ATOM     33  C   UNL     1       0.825   2.674  -0.821  0.00  0.00    +0.080 C 
ATOM     34  C   UNL     1       1.008   1.165  -0.875  0.00  0.00    +0.165 C 
ATOM     35  O   UNL     1       1.994   0.646  -1.355  0.00  0.00    -0.292 OA
ENDBRANCH  20  30
ENDBRANCH  19  22
ENDBRANCH   1  19
TORSDOF 5
