REMARK  Name = ZINC36007183
REMARK  7 active torsions:
REMARK  status: ('A' for Active; 'I' for Inactive)
REMARK    1  A    between atoms: C_1  and  C_2
REMARK    2  A    between atoms: C_3  and  C_14
REMARK    3  A    between atoms: C_4  and  C_13
REMARK    4  A    between atoms: N_5  and  C_7
REMARK    5  A    between atoms: N_21  and  C_22
REMARK    6  A    between atoms: C_22  and  C_23
REMARK    7  A    between atoms: C_28  and  C_37
REMARK                            x       y       z     vdW  Elec       q    Type
REMARK                         _______ _______ _______ _____ _____    ______ ____
ROOT
ATOM      1  C   UNL     1       0.122  -0.382  -2.577  0.00  0.00    +0.054 C 
ATOM      2  C   UNL     1       1.556  -0.219  -2.992  0.00  0.00    +0.204 C 
ATOM      3  O   UNL     1       2.362  -1.054  -2.640  0.00  0.00    -0.277 OA
ATOM      4  N   UNL     1       1.981   0.810  -3.734  0.00  0.00    -0.318 N 
ATOM      5  C   UNL     1       1.090   1.878  -4.182  0.00  0.00    +0.085 C 
ATOM      6  C   UNL     1      -0.366   1.423  -4.067  0.00  0.00    -0.058 C 
ATOM      7  N   UNL     1      -0.590   0.895  -2.713  0.00  0.00    +0.397 N 
ATOM      8  H   UNL     1       2.917   0.849  -3.985  0.00  0.00    +0.149 HD
ATOM      9  H   UNL     1      -0.240   1.551  -2.031  0.00  0.00    -0.079 HD
ENDROOT
BRANCH   1  12
ATOM     10  C   UNL     1      -0.600  -3.299  -1.571  0.00  0.00    +0.068 C 
ATOM     11  C   UNL     1      -0.252  -2.123  -0.696  0.00  0.00    +0.063 A 
ATOM     12  C   UNL     1       0.065  -0.835  -1.141  0.00  0.00    -0.009 A 
ATOM     13  C   UNL     1       0.314  -0.068  -0.054  0.00  0.00    +0.044 A 
ATOM     14  N   UNL     1       0.159  -0.845   1.042  0.00  0.00    -0.237 N 
ATOM     15  N   UNL     1      -0.201  -2.129   0.612  0.00  0.00    -0.171 NA
ATOM     16  C   UNL     1       0.696   1.390  -0.064  0.00  0.00    +0.066 C 
BRANCH  14  17
ATOM     17  C   UNL     1       0.325  -0.437   2.373  0.00  0.00    +0.066 A 
ATOM     18  C   UNL     1      -0.169   0.792   2.790  0.00  0.00    +0.028 A 
ATOM     19  C   UNL     1      -0.004   1.191   4.102  0.00  0.00    +0.002 A 
ATOM     20  C   UNL     1       0.653   0.369   4.999  0.00  0.00    +0.000 A 
ATOM     21  C   UNL     1       1.146  -0.855   4.586  0.00  0.00    +0.002 A 
ATOM     22  C   UNL     1       0.979  -1.263   3.277  0.00  0.00    +0.028 A 
ENDBRANCH  14  17
ENDBRANCH   1  12
BRANCH   7  23
ATOM     23  C   UNL     1      -2.028   0.682  -2.502  0.00  0.00    +0.021 C 
BRANCH  23  24
ATOM     24  C   UNL     1      -2.740   2.010  -2.520  0.00  0.00    +0.203 C 
ATOM     25  O   UNL     1      -2.111   3.033  -2.692  0.00  0.00    -0.277 OA
ATOM     26  N   UNL     1      -4.075   2.061  -2.345  0.00  0.00    -0.272 N 
ATOM     27  C   UNL     1      -4.790   3.348  -2.365  0.00  0.00    +0.115 C 
ATOM     28  C   UNL     1      -4.867   3.950  -0.987  0.00  0.00    +0.033 C 
ATOM     29  C   UNL     1      -5.728   3.190   0.009  0.00  0.00    +0.050 C 
ATOM     30  S   UNL     1      -4.922   1.629   0.471  0.00  0.00    -0.120 S 
ATOM     31  C   UNL     1      -5.327   0.561  -0.891  0.00  0.00    +0.030 A 
ATOM     32  C   UNL     1      -4.817   0.892  -2.146  0.00  0.00    +0.050 A 
ATOM     33  C   UNL     1      -5.068   0.046  -3.221  0.00  0.00    +0.024 A 
ATOM     34  C   UNL     1      -5.843  -1.084  -3.040  0.00  0.00    +0.002 A 
ATOM     35  C   UNL     1      -6.377  -1.387  -1.801  0.00  0.00    +0.001 A 
ATOM     36  C   UNL     1      -6.113  -0.557  -0.705  0.00  0.00    +0.016 A 
ATOM     37  C   UNL     1      -5.928   4.045   1.262  0.00  0.00    +0.019 C 
ENDBRANCH  23  24
ENDBRANCH   7  23
TORSDOF 4
