REMARK  Name = ZINC48547016
REMARK  8 active torsions:
REMARK  status: ('A' for Active; 'I' for Inactive)
REMARK    1  A    between atoms: C_1  and  O_2
REMARK    2  A    between atoms: O_2  and  C_3
REMARK    3  A    between atoms: C_6  and  C_9
REMARK    4  A    between atoms: N_10  and  C_11
REMARK    5  A    between atoms: C_13  and  O_35
REMARK    6  A    between atoms: C_21  and  C_24
REMARK    7  A    between atoms: C_31  and  O_33
REMARK    8  A    between atoms: O_33  and  C_34
REMARK                            x       y       z     vdW  Elec       q    Type
REMARK                         _______ _______ _______ _____ _____    ______ ____
ROOT
ATOM      1  C   UNL     1      -6.301  -4.591   0.045  0.00  0.00    +0.166 C 
ATOM      2  C   UNL     1      -6.406  -5.469   1.299  0.00  0.00    +0.173 C 
ATOM      3  C   UNL     1      -7.726  -6.238   1.241  0.00  0.00    +0.183 C 
ATOM      4  C   UNL     1      -7.749  -7.076  -0.044  0.00  0.00    +0.178 C 
ATOM      5  C   UNL     1      -9.052  -7.876  -0.077  0.00  0.00    +0.197 C 
ATOM      6  O   UNL     1      -9.135  -8.650   1.126  0.00  0.00    -0.345 OA
ATOM      7  C   UNL     1      -9.070  -7.882   2.328  0.00  0.00    +0.282 C 
ATOM      8  O   UNL     1      -7.860  -7.116   2.358  0.00  0.00    -0.339 OA
ATOM      9  O   UNL     1      -7.654  -6.202  -1.167  0.00  0.00    -0.341 OA
ATOM     10  C   UNL     1      -6.426  -5.464  -1.205  0.00  0.00    +0.275 C 
ENDROOT
BRANCH   7  11
ATOM     11  C   UNL     1      -9.102  -8.809   3.516  0.00  0.00    +0.008 A 
ATOM     12  C   UNL     1      -8.051  -8.818   4.414  0.00  0.00    +0.008 A 
ATOM     13  C   UNL     1      -8.080  -9.668   5.504  0.00  0.00    +0.000 A 
ATOM     14  C   UNL     1      -9.160 -10.508   5.696  0.00  0.00    +0.000 A 
ATOM     15  C   UNL     1     -10.212 -10.498   4.799  0.00  0.00    +0.000 A 
ATOM     16  C   UNL     1     -10.185  -9.645   3.711  0.00  0.00    +0.008 A 
ENDBRANCH   7  11
BRANCH   1  18
ATOM     17  C   UNL     1      -4.955  -2.615   0.037  0.00  0.00    +0.086 C 
ATOM     18  N   UNL     1      -5.005  -3.909   0.036  0.00  0.00    -0.380 N 
ATOM     19  H   UNL     1      -4.184  -4.426   0.028  0.00  0.00    +0.160 HD
BRANCH  17  23
ATOM     20  C   UNL     1      -1.199  -0.637   0.010  0.00  0.00    +0.120 A 
ATOM     21  C   UNL     1      -2.373   0.106   0.020  0.00  0.00    +0.046 A 
ATOM     22  C   UNL     1      -3.594  -0.532   0.028  0.00  0.00    +0.013 A 
ATOM     23  C   UNL     1      -3.651  -1.928   0.027  0.00  0.00    -0.009 A 
ATOM     24  C   UNL     1      -2.467  -2.671   0.017  0.00  0.00    +0.013 A 
ATOM     25  C   UNL     1      -1.251  -2.025   0.003  0.00  0.00    +0.046 A 
BRANCH  20  27
ATOM     26  C   UNL     1      -0.017   1.425   0.010  0.00  0.00    +0.277 C 
ATOM     27  O   UNL     1       0.002  -0.004   0.002  0.00  0.00    -0.495 OA
ENDBRANCH  20  27
ENDBRANCH  17  23
ENDBRANCH   1  18
BRANCH  10  28
ATOM     28  O   UNL     1      -6.411  -4.632  -2.367  0.00  0.00    -0.352 OA
ATOM     29  C   UNL     1      -6.409  -5.355  -3.599  0.00  0.00    +0.197 C 
ENDBRANCH  10  28
BRANCH   2  30
ATOM     30  O   UNL     1      -6.377  -4.645   2.466  0.00  0.00    -0.387 OA
ATOM     31  H   UNL     1      -5.571  -4.118   2.555  0.00  0.00    +0.210 HD
ENDBRANCH   2  30
TORSDOF 6
