REMARK  Name = ZINC21814981
REMARK  2 active torsions:
REMARK  status: ('A' for Active; 'I' for Inactive)
REMARK    1  A    between atoms: C_8  and  C_11
REMARK    2  A    between atoms: C_13  and  C_16
REMARK                            x       y       z     vdW  Elec       q    Type
REMARK                         _______ _______ _______ _____ _____    ______ ____
ROOT
ATOM      1  C   UNL     1      -0.721   2.053  -1.217  0.00  0.00    +0.248 A 
ATOM      2  N   UNL     1      -1.929   2.558  -1.267  0.00  0.00    -0.188 NA
ATOM      3  C   UNL     1      -2.130   2.889  -2.563  0.00  0.00    +0.220 A 
ATOM      4  N   UNL     1      -1.048   2.561  -3.218  0.00  0.00    -0.054 NA
ATOM      5  O   UNL     1      -0.231   2.081  -2.461  0.00  0.00    -0.336 OA
ENDROOT
BRANCH   1  13
ATOM      6  C   UNL     1       3.483  -1.663  -0.041  0.00  0.00    +0.000 A 
ATOM      7  C   UNL     1       4.232  -0.500  -0.042  0.00  0.00    +0.002 A 
ATOM      8  C   UNL     1       3.606   0.728  -0.029  0.00  0.00    +0.023 A 
ATOM      9  C   UNL     1       2.211   0.808  -0.015  0.00  0.00    +0.031 A 
ATOM     10  C   UNL     1       1.471  -0.364  -0.014  0.00  0.00    -0.024 A 
ATOM     11  C   UNL     1       2.103  -1.592  -0.027  0.00  0.00    +0.005 A 
ATOM     12  C   UNL     1       0.002  -0.004   0.002  0.00  0.00    +0.069 C 
ATOM     13  C   UNL     1      -0.019   1.533   0.011  0.00  0.00    +0.164 C 
ATOM     14  N   UNL     1       1.390   1.936  -0.001  0.00  0.00    -0.332 N 
ATOM     15  H   UNL     1       1.657   3.003   0.002  0.00  0.00    +0.147 HD
ENDBRANCH   1  13
BRANCH   3  16
ATOM     16  C   UNL     1      -3.355   3.504  -3.135  0.00  0.00    +0.111 A 
ATOM     17  C   UNL     1      -3.413   3.787  -4.497  0.00  0.00    +0.031 A 
ATOM     18  C   UNL     1      -4.563   4.356  -5.017  0.00  0.00    +0.004 A 
ATOM     19  C   UNL     1      -5.614   4.633  -4.154  0.00  0.00    +0.020 A 
ATOM     20  C   UNL     1      -5.485   4.330  -2.811  0.00  0.00    +0.111 A 
ATOM     21  N   UNL     1      -4.381   3.784  -2.343  0.00  0.00    -0.252 NA
ENDBRANCH   3  16
TORSDOF 2
