REMARK  Name = ZINC03073470
REMARK  7 active torsions:
REMARK  status: ('A' for Active; 'I' for Inactive)
REMARK    1  A    between atoms: C_1  and  C_2
REMARK    2  A    between atoms: C_2  and  O_3
REMARK    3  A    between atoms: O_3  and  C_4
REMARK    4  A    between atoms: C_4  and  C_6
REMARK    5  A    between atoms: C_7  and  N_30
REMARK    6  A    between atoms: C_11  and  C_13
REMARK    7  A    between atoms: C_16  and  C_18
REMARK                            x       y       z     vdW  Elec       q    Type
REMARK                         _______ _______ _______ _____ _____    ______ ____
ROOT
ATOM      1  C   UNL     1       1.464  -2.349   2.421  0.00  0.00    +0.108 C 
ATOM      2  C   UNL     1       1.491  -3.694   2.611  0.00  0.00    +0.195 C 
ATOM      3  O   UNL     1       2.126  -4.233   3.664  0.00  0.00    -0.446 OA
ATOM      4  C   UNL     1       2.384  -3.489   4.757  0.00  0.00    +0.115 C 
ATOM      5  C   UNL     1       2.406  -2.145   4.697  0.00  0.00    +0.048 C 
ATOM      6  C   UNL     1       2.152  -1.429   3.390  0.00  0.00    +0.133 C 
ATOM      7  C   UNL     1       2.665  -1.366   5.841  0.00  0.00    +0.163 C 
ATOM      8  O   UNL     1       2.692  -0.155   5.745  0.00  0.00    -0.292 OA
ATOM      9  C   UNL     1       2.910  -2.006   7.181  0.00  0.00    +0.080 C 
ATOM     10  C   UNL     1       2.176  -3.350   7.230  0.00  0.00    +0.016 C 
ATOM     11  C   UNL     1       2.656  -4.208   6.057  0.00  0.00    +0.075 C 
ENDROOT
BRANCH   6  12
ATOM     12  C   UNL     1       3.463  -0.975   2.802  0.00  0.00    +0.118 A 
ATOM     13  C   UNL     1       3.811   0.303   2.553  0.00  0.00    +0.046 A 
ATOM     14  C   UNL     1       5.110   0.278   2.008  0.00  0.00    +0.050 A 
ATOM     15  C   UNL     1       5.487  -1.027   1.953  0.00  0.00    +0.135 A 
ATOM     16  O   UNL     1       4.480  -1.775   2.443  0.00  0.00    -0.459 OA
BRANCH  15  17
ATOM     17  C   UNL     1       6.779  -1.536   1.449  0.00  0.00    +0.017 A 
ATOM     18  C   UNL     1       7.747  -0.647   0.977  0.00  0.00    +0.012 A 
ATOM     19  C   UNL     1       8.951  -1.129   0.507  0.00  0.00    +0.016 A 
ATOM     20  C   UNL     1       9.202  -2.490   0.504  0.00  0.00    +0.018 A 
ATOM     21  C   UNL     1       8.246  -3.377   0.971  0.00  0.00    +0.016 A 
ATOM     22  C   UNL     1       7.040  -2.908   1.448  0.00  0.00    +0.012 A 
ATOM     23 BR   UNL     1      10.855  -3.142  -0.142  0.00  0.00    -0.050 Br
ENDBRANCH  15  17
ENDBRANCH   6  12
BRANCH   2  24
ATOM     24  N   UNL     1       0.859  -4.514   1.714  0.00  0.00    -0.329 N 
ATOM     25  H   UNL     1       0.463  -4.140   0.911  0.00  0.00    +0.145 HD
ATOM     26  H   UNL     1       0.809  -5.468   1.881  0.00  0.00    +0.145 HD
ENDBRANCH   2  24
BRANCH   1  27
ATOM     27  C   UNL     1       0.793  -1.815   1.310  0.00  0.00    +0.341 C 
ATOM     28  O   UNL     1      -0.317  -1.332   1.443  0.00  0.00    -0.245 OA
BRANCH  27  29
ATOM     29  O   UNL     1       1.379  -1.838   0.093  0.00  0.00    -0.462 OA
BRANCH  29  31
ATOM     30  C   UNL     1       1.458  -1.392  -2.281  0.00  0.00    +0.048 C 
ATOM     31  C   UNL     1       0.639  -1.277  -0.993  0.00  0.00    +0.229 C 
ENDBRANCH  29  31
ENDBRANCH  27  29
ENDBRANCH   1  27
TORSDOF 6
