REMARK  Name = ZINC15866382
REMARK  4 active torsions:
REMARK  status: ('A' for Active; 'I' for Inactive)
REMARK    1  A    between atoms: C_4  and  O_25
REMARK    2  A    between atoms: C_5  and  C_7
REMARK    3  A    between atoms: C_10  and  C_18
REMARK    4  A    between atoms: O_25  and  C_26
REMARK                            x       y       z     vdW  Elec       q    Type
REMARK                         _______ _______ _______ _____ _____    ______ ____
ROOT
ATOM      1  C   UNL     1       1.238  -2.186  -0.021  0.00  0.00    +0.148 C 
ATOM      2  C   UNL     1       1.972  -2.682  -1.273  0.00  0.00    +0.059 C 
ATOM      3  C   UNL     1       2.246  -4.185  -1.153  0.00  0.00    +0.106 C 
ATOM      4  N   UNL     1       3.131  -4.413   0.007  0.00  0.00    -0.305 N 
ATOM      5  C   UNL     1       2.824  -3.704   1.160  0.00  0.00    +0.236 A 
ATOM      6  N   UNL     1       1.945  -2.670   1.161  0.00  0.00    -0.206 N 
ATOM      7  N   UNL     1       1.897  -2.224   2.482  0.00  0.00    -0.042 NA
ATOM      8  N   UNL     1       2.708  -2.975   3.154  0.00  0.00    -0.021 NA
ATOM      9  N   UNL     1       3.257  -3.848   2.381  0.00  0.00    -0.092 NA
ATOM     10  H   UNL     1       3.884  -5.023  -0.035  0.00  0.00    +0.150 HD
ENDROOT
BRANCH   3  11
ATOM     11  C   UNL     1       2.919  -4.679  -2.407  0.00  0.00    -0.027 A 
ATOM     12  C   UNL     1       4.271  -4.463  -2.597  0.00  0.00    +0.007 A 
ATOM     13  C   UNL     1       4.890  -4.921  -3.745  0.00  0.00    +0.020 A 
ATOM     14  C   UNL     1       4.154  -5.585  -4.710  0.00  0.00    +0.041 A 
ATOM     15  C   UNL     1       2.800  -5.795  -4.522  0.00  0.00    +0.020 A 
ATOM     16  C   UNL     1       2.183  -5.342  -3.371  0.00  0.00    +0.007 A 
ATOM     17 CL   UNL     1       4.930  -6.154  -6.155  0.00  0.00    -0.084 Cl
ENDBRANCH   3  11
BRANCH   1  22
ATOM     18  C   UNL     1       2.377   1.414  -0.013  0.00  0.00    +0.001 A 
ATOM     19  C   UNL     1       1.171   2.089   0.002  0.00  0.00    +0.004 A 
ATOM     20  C   UNL     1      -0.017   1.383   0.010  0.00  0.00    +0.046 A 
ATOM     21  C   UNL     1       0.002  -0.004   0.002  0.00  0.00    +0.132 A 
ATOM     22  C   UNL     1       1.214  -0.679  -0.013  0.00  0.00    +0.019 A 
ATOM     23  C   UNL     1       2.399   0.032  -0.021  0.00  0.00    +0.009 A 
BRANCH  21  24
ATOM     24  O   UNL     1      -1.165  -0.701   0.010  0.00  0.00    -0.434 OA
BRANCH  24  25
ATOM     25  C   UNL     1      -2.374   0.060   0.026  0.00  0.00    +0.541 C 
ATOM     26  F   UNL     1      -2.407   0.861   1.173  0.00  0.00    -0.166 F 
ATOM     27  F   UNL     1      -2.429   0.873  -1.111  0.00  0.00    -0.166 F 
ENDBRANCH  24  25
ENDBRANCH  21  24
ENDBRANCH   1  22
TORSDOF 4
