REMARK  Name = ZINC43221612
REMARK  11 active torsions:
REMARK  status: ('A' for Active; 'I' for Inactive)
REMARK    1  A    between atoms: C_1  and  C_2
REMARK    2  A    between atoms: C_2  and  C_3
REMARK    3  A    between atoms: C_3  and  C_5
REMARK    4  A    between atoms: C_3  and  C_6
REMARK    5  A    between atoms: C_6  and  C_35
REMARK    6  A    between atoms: C_11  and  C_14
REMARK    7  A    between atoms: C_18  and  O_21
REMARK    8  A    between atoms: C_19  and  O_20
REMARK    9  A    between atoms: O_21  and  C_22
REMARK   10  A    between atoms: N_25  and  C_28
REMARK   11  A    between atoms: C_28  and  C_29
REMARK                            x       y       z     vdW  Elec       q    Type
REMARK                         _______ _______ _______ _____ _____    ______ ____
ROOT
ATOM      1  C   UNL     1      -1.187  -1.967   0.267  0.00  0.00    +0.051 C 
ATOM      2  C   UNL     1      -2.658  -2.366   0.206  0.00  0.00    +0.086 C 
ATOM      3  C   UNL     1      -2.479  -3.850   0.704  0.00  0.00    +0.077 C 
ATOM      4  C   UNL     1      -1.631  -3.712   1.894  0.00  0.00    -0.023 C 
ATOM      5  N   UNL     1      -0.733  -2.543   1.575  0.00  0.00    +0.396 N 
ATOM      6  C   UNL     1      -3.724  -4.455   0.296  0.00  0.00    +0.225 C 
ATOM      7  O   UNL     1      -4.337  -5.335   0.861  0.00  0.00    -0.275 OA
ATOM      8  N   UNL     1      -4.063  -3.817  -0.871  0.00  0.00    -0.237 N 
ATOM      9  C   UNL     1      -3.320  -2.676  -1.099  0.00  0.00    +0.225 C 
ATOM     10  O   UNL     1      -3.217  -2.055  -2.135  0.00  0.00    -0.275 OA
ATOM     11  H   UNL     1       0.226  -2.849   1.500  0.00  0.00    -0.083 HD
ATOM     12  H   UNL     1      -0.816  -1.848   2.302  0.00  0.00    -0.083 HD
ENDROOT
BRANCH   4  13
ATOM     13  C   UNL     1      -2.475  -3.440   3.112  0.00  0.00    -0.015 A 
ATOM     14  C   UNL     1      -2.734  -2.138   3.498  0.00  0.00    +0.006 A 
ATOM     15  C   UNL     1      -3.508  -1.885   4.614  0.00  0.00    +0.004 A 
ATOM     16  C   UNL     1      -4.027  -2.933   5.351  0.00  0.00    +0.049 A 
ATOM     17  C   UNL     1      -3.772  -4.240   4.971  0.00  0.00    +0.161 A 
ATOM     18  C   UNL     1      -2.997  -4.495   3.843  0.00  0.00    +0.160 A 
BRANCH  18  19
ATOM     19  O   UNL     1      -2.749  -5.777   3.462  0.00  0.00    -0.503 OA
ATOM     20  H   UNL     1      -1.952  -6.157   3.856  0.00  0.00    +0.292 HD
ENDBRANCH  18  19
BRANCH  17  21
ATOM     21  O   UNL     1      -4.282  -5.273   5.695  0.00  0.00    -0.491 OA
ATOM     22  C   UNL     1      -5.072  -4.936   6.837  0.00  0.00    +0.277 C 
ENDBRANCH  17  21
ENDBRANCH   4  13
BRANCH   1  23
ATOM     23  C   UNL     1      -0.418  -2.575  -0.878  0.00  0.00    +0.347 C 
ATOM     24  O   UNL     1       0.484  -3.364  -0.656  0.00  0.00    -0.248 OA
ATOM     25  O   UNL     1      -0.699  -2.278  -2.027  0.00  0.00    -0.248 OA
ENDBRANCH   1  23
BRANCH   1  26
ATOM     26  C   UNL     1      -1.039  -0.444   0.266  0.00  0.00    -0.014 C 
ATOM     27  C   UNL     1      -1.657   0.128  -1.012  0.00  0.00    +0.006 C 
BRANCH  26  29
ATOM     28  C   UNL     1       0.589   1.443   0.450  0.00  0.00    +0.004 C 
ATOM     29  C   UNL     1       0.445  -0.075   0.325  0.00  0.00    -0.001 C 
ENDBRANCH  26  29
ENDBRANCH   1  26
BRANCH   8  30
ATOM     30  C   UNL     1      -5.113  -4.288  -1.778  0.00  0.00    +0.151 C 
BRANCH  30  31
ATOM     31  C   UNL     1      -6.430  -3.670  -1.386  0.00  0.00    -0.030 A 
ATOM     32  C   UNL     1      -7.247  -4.308  -0.471  0.00  0.00    +0.005 A 
ATOM     33  C   UNL     1      -8.456  -3.741  -0.112  0.00  0.00    +0.000 A 
ATOM     34  C   UNL     1      -8.846  -2.536  -0.666  0.00  0.00    +0.000 A 
ATOM     35  C   UNL     1      -8.028  -1.898  -1.579  0.00  0.00    +0.000 A 
ATOM     36  C   UNL     1      -6.818  -2.463  -1.936  0.00  0.00    +0.005 A 
ENDBRANCH  30  31
ENDBRANCH   8  30
TORSDOF 8
