REMARK  Name = ZINC59715458
REMARK  6 active torsions:
REMARK  status: ('A' for Active; 'I' for Inactive)
REMARK    1  A    between atoms: C_4  and  C_7
REMARK    2  A    between atoms: C_8  and  C_9
REMARK    3  A    between atoms: N_11  and  C_12
REMARK    4  A    between atoms: C_12  and  N_14
REMARK    5  A    between atoms: N_14  and  C_15
REMARK    6  A    between atoms: C_19  and  C_21
REMARK                            x       y       z     vdW  Elec       q    Type
REMARK                         _______ _______ _______ _____ _____    ______ ____
ROOT
ATOM      1  C   UNL     1       7.390  -6.846  -0.160  0.00  0.00    +0.033 A 
ATOM      2  C   UNL     1       8.627  -6.214  -0.138  0.00  0.00    +0.023 A 
ATOM      3  C   UNL     1       9.790  -6.959  -0.204  0.00  0.00    +0.002 A 
ATOM      4  C   UNL     1       9.728  -8.335  -0.292  0.00  0.00    +0.009 A 
ATOM      5  C   UNL     1       8.491  -8.978  -0.315  0.00  0.00    -0.009 A 
ATOM      6  C   UNL     1       7.319  -8.228  -0.243  0.00  0.00    +0.032 A 
ENDROOT
BRANCH   5   7
ATOM      7  C   UNL     1       8.423 -10.456  -0.410  0.00  0.00    +0.067 A 
ATOM      8  C   UNL     1       8.897 -11.259   0.600  0.00  0.00    +0.027 A 
ATOM      9  C   UNL     1       8.787 -12.709   0.415  0.00  0.00    +0.018 A 
ATOM     10  C   UNL     1       8.993 -13.587   1.486  0.00  0.00    +0.011 A 
ATOM     11  C   UNL     1       8.882 -14.934   1.287  0.00  0.00    +0.001 A 
ATOM     12  C   UNL     1       8.566 -15.439   0.034  0.00  0.00    +0.004 A 
ATOM     13  C   UNL     1       8.360 -14.591  -1.035  0.00  0.00    +0.047 A 
ATOM     14  C   UNL     1       8.469 -13.219  -0.857  0.00  0.00    +0.139 A 
ATOM     15  O   UNL     1       8.276 -12.368  -1.893  0.00  0.00    -0.422 OA
ATOM     16  C   UNL     1       7.840 -11.122  -1.587  0.00  0.00    +0.345 A 
ATOM     17  O   UNL     1       6.994 -10.568  -2.265  0.00  0.00    -0.245 OA
ENDBRANCH   5   7
BRANCH   1  18
ATOM     18  N   UNL     1       6.216  -6.088  -0.093  0.00  0.00    -0.297 N 
ATOM     19  H   UNL     1       5.498  -6.356   0.502  0.00  0.00    +0.154 HD
BRANCH  18  20
ATOM     20  C   UNL     1       6.081  -4.985  -0.856  0.00  0.00    +0.141 C 
ATOM     21  S   UNL     1       7.387  -4.450  -1.825  0.00  0.00    -0.018 S 
BRANCH  20  24
ATOM     22  C   UNL     1       4.784  -3.200  -1.619  0.00  0.00    +0.242 C 
ATOM     23  O   UNL     1       5.712  -2.820  -2.308  0.00  0.00    -0.270 OA
ATOM     24  N   UNL     1       4.919  -4.303  -0.856  0.00  0.00    -0.264 N 
ATOM     25  H   UNL     1       4.179  -4.606  -0.307  0.00  0.00    +0.157 HD
BRANCH  22  27
ATOM     26  C   UNL     1       3.388  -1.356  -2.382  0.00  0.00    +0.013 C 
ATOM     27  C   UNL     1       3.522  -2.460  -1.618  0.00  0.00    +0.068 C 
BRANCH  26  31
ATOM     28  C   UNL     1      -0.272   0.790  -2.382  0.00  0.00    +0.000 A 
ATOM     29  C   UNL     1       0.782   1.226  -3.166  0.00  0.00    +0.001 A 
ATOM     30  C   UNL     1       1.975   0.534  -3.171  0.00  0.00    +0.008 A 
ATOM     31  C   UNL     1       2.118  -0.611  -2.381  0.00  0.00    -0.025 A 
ATOM     32  C   UNL     1       1.049  -1.045  -1.591  0.00  0.00    +0.008 A 
ATOM     33  C   UNL     1      -0.137  -0.343  -1.597  0.00  0.00    +0.001 A 
ENDBRANCH  26  31
ENDBRANCH  22  27
ENDBRANCH  20  24
ENDBRANCH  18  20
ENDBRANCH   1  18
TORSDOF 6
