REMARK  Name = ZINC02054255
REMARK  13 active torsions:
REMARK  status: ('A' for Active; 'I' for Inactive)
REMARK    1  A    between atoms: C_1  and  C_2
REMARK    2  A    between atoms: C_5  and  C_8
REMARK    3  A    between atoms: N_10  and  C_11
REMARK    4  A    between atoms: C_11  and  C_27
REMARK    5  A    between atoms: C_12  and  C_13
REMARK    6  A    between atoms: C_16  and  C_18
REMARK    7  A    between atoms: C_21  and  N_24
REMARK    8  A    between atoms: N_29  and  C_30
REMARK    9  A    between atoms: C_30  and  C_31
REMARK   10  A    between atoms: C_31  and  C_32
REMARK   11  A    between atoms: C_32  and  N_63
REMARK   12  A    between atoms: C_33  and  N_63
REMARK   13  A    between atoms: C_34  and  N_63
REMARK                            x       y       z     vdW  Elec       q    Type
REMARK                         _______ _______ _______ _____ _____    ______ ____
ROOT
ATOM      1  C   UNL     1       0.493  -0.959   0.304  0.00  0.00    +0.100 C 
ATOM      2  C   UNL     1       1.498  -1.934   0.244  0.00  0.00    +0.074 C 
ENDROOT
BRANCH   2   3
ATOM      3  C   UNL     1       1.159  -3.273   0.123  0.00  0.00    +0.131 A 
ATOM      4  C   UNL     1       2.085  -4.415   0.170  0.00  0.00    +0.050 A 
ATOM      5  C   UNL     1       1.325  -5.529   0.011  0.00  0.00    +0.050 A 
ATOM      6  C   UNL     1      -0.021  -5.111  -0.131  0.00  0.00    +0.136 A 
ATOM      7  O   UNL     1      -0.085  -3.771  -0.055  0.00  0.00    -0.455 OA
BRANCH   6   8
ATOM      8  C   UNL     1      -1.130  -5.974  -0.319  0.00  0.00    +0.017 A 
ATOM      9  C   UNL     1      -0.959  -7.371  -0.269  0.00  0.00    +0.014 A 
ATOM     10  C   UNL     1      -2.036  -8.192  -0.446  0.00  0.00    +0.033 A 
ATOM     11  C   UNL     1      -3.293  -7.655  -0.684  0.00  0.00    +0.126 A 
ATOM     12  C   UNL     1      -3.472  -6.281  -0.741  0.00  0.00    +0.033 A 
ATOM     13  C   UNL     1      -2.411  -5.440  -0.561  0.00  0.00    +0.014 A 
BRANCH  11  14
ATOM     14  N   UNL     1      -4.451  -8.556  -0.881  0.00  0.00    +0.056 N 
ATOM     15  O   UNL     1      -5.625  -8.058  -1.207  0.00  0.00    -0.126 OA
ATOM     16  O   UNL     1      -4.307  -9.857  -0.729  0.00  0.00    -0.126 OA
ENDBRANCH  11  14
ENDBRANCH   6   8
ENDBRANCH   2   3
BRANCH   1  19
ATOM     17  C   UNL     1      -0.145   1.289   0.252  0.00  0.00    +0.248 C 
ATOM     18  O   UNL     1      -1.313   0.960   0.313  0.00  0.00    -0.270 OA
ATOM     19  N   UNL     1       0.822   0.351   0.295  0.00  0.00    -0.277 N 
ATOM     20  H   UNL     1       1.755   0.618   0.316  0.00  0.00    +0.155 HD
BRANCH  17  25
ATOM     21  C   UNL     1       1.256   6.850  -0.218  0.00  0.00    +0.044 C 
ATOM     22  C   UNL     1       0.889   5.393  -0.095  0.00  0.00    -0.050 A 
ATOM     23  C   UNL     1      -0.442   5.022  -0.027  0.00  0.00    +0.004 A 
ATOM     24  C   UNL     1      -0.785   3.690   0.086  0.00  0.00    +0.013 A 
ATOM     25  C   UNL     1       0.215   2.717   0.131  0.00  0.00    +0.037 A 
ATOM     26  C   UNL     1       1.556   3.099   0.066  0.00  0.00    +0.013 A 
ATOM     27  C   UNL     1       1.885   4.433  -0.051  0.00  0.00    +0.004 A 
ENDBRANCH  17  25
ENDBRANCH   1  19
BRANCH   1  28
ATOM     28  C   UNL     1      -0.937  -1.367   0.376  0.00  0.00    +0.258 C 
ATOM     29  O   UNL     1      -1.593  -1.461  -0.640  0.00  0.00    -0.269 OA
ATOM     30  N   UNL     1      -1.502  -1.633   1.571  0.00  0.00    -0.310 N 
ATOM     31  H   UNL     1      -0.999  -1.490   2.388  0.00  0.00    +0.149 HD
BRANCH  30  32
ATOM     32  C   UNL     1      -2.876  -2.136   1.635  0.00  0.00    +0.103 C 
BRANCH  32  33
ATOM     33  C   UNL     1      -3.316  -2.235   3.097  0.00  0.00    +0.000 C 
BRANCH  33  34
ATOM     34  C   UNL     1      -4.703  -2.876   3.171  0.00  0.00    -0.078 C 
BRANCH  34  37
ATOM     35  C   UNL     1      -5.598  -1.541   4.982  0.00  0.00    -0.097 C 
ATOM     36  C   UNL     1      -6.240  -3.865   4.758  0.00  0.00    -0.097 C 
ATOM     37  N   UNL     1      -5.144  -2.890   4.581  0.00  0.00    +0.376 N 
ATOM     38  H   UNL     1      -4.353  -3.166   5.175  0.00  0.00    -0.083 HD
ENDBRANCH  34  37
ENDBRANCH  33  34
ENDBRANCH  32  33
ENDBRANCH  30  32
ENDBRANCH   1  28
TORSDOF 10
