REMARK  Name = ZINC12566591
REMARK  6 active torsions:
REMARK  status: ('A' for Active; 'I' for Inactive)
REMARK    1  A    between atoms: C_1  and  C_2
REMARK    2  A    between atoms: C_5  and  C_16
REMARK    3  A    between atoms: N_8  and  C_10
REMARK    4  A    between atoms: C_16  and  O_18
REMARK    5  A    between atoms: O_18  and  C_19
REMARK    6  A    between atoms: C_19  and  C_20
REMARK                            x       y       z     vdW  Elec       q    Type
REMARK                         _______ _______ _______ _____ _____    ______ ____
ROOT
ATOM      1  C   UNL     1       4.369   6.649  -0.004  0.00  0.00    +0.346 C 
ATOM      2  O   UNL     1       5.583   6.713  -0.016  0.00  0.00    -0.244 OA
ENDROOT
BRANCH   1   7
ATOM      3  C   UNL     1       4.236  12.546   0.030  0.00  0.00    +0.068 C 
ATOM      4  C   UNL     1       3.028  11.646   0.036  0.00  0.00    +0.069 A 
ATOM      5  C   UNL     1       3.059  10.213   0.028  0.00  0.00    +0.031 A 
ATOM      6  C   UNL     1       3.999   9.171   0.014  0.00  0.00    +0.034 A 
ATOM      7  C   UNL     1       3.571   7.876   0.011  0.00  0.00    +0.099 A 
ATOM      8  S   UNL     1       1.794   8.051   0.022  0.00  0.00    -0.062 S 
ATOM      9  C   UNL     1       1.711   9.823   0.039  0.00  0.00    +0.113 A 
ATOM     10  N   UNL     1       0.942  10.931   0.053  0.00  0.00    -0.225 N 
ATOM     11  N   UNL     1       1.792  12.045   0.051  0.00  0.00    -0.170 NA
BRANCH  10  12
ATOM     12  C   UNL     1      -0.458  10.963   0.067  0.00  0.00    +0.067 A 
ATOM     13  C   UNL     1      -1.183  10.002  -0.625  0.00  0.00    +0.028 A 
ATOM     14  C   UNL     1      -2.564  10.033  -0.605  0.00  0.00    +0.002 A 
ATOM     15  C   UNL     1      -3.224  11.026   0.094  0.00  0.00    +0.000 A 
ATOM     16  C   UNL     1      -2.505  11.988   0.780  0.00  0.00    +0.002 A 
ATOM     17  C   UNL     1      -1.125  11.959   0.769  0.00  0.00    +0.028 A 
ENDBRANCH  10  12
ENDBRANCH   1   7
BRANCH   1  18
ATOM     18  O   UNL     1       3.757   5.447  -0.005  0.00  0.00    -0.453 OA
BRANCH  18  19
ATOM     19  C   UNL     1       4.611   4.272  -0.020  0.00  0.00    +0.306 C 
BRANCH  19  20
ATOM     20  C   UNL     1       3.758   3.030  -0.018  0.00  0.00    +0.149 A 
ATOM     21  N   UNL     1       4.373   1.823  -0.031  0.00  0.00    -0.308 N 
ATOM     22  H   UNL     1       5.343   1.799  -0.041  0.00  0.00    +0.170 HD
ATOM     23  C   UNL     1       3.698   0.650  -0.030  0.00  0.00    +0.260 A 
ATOM     24  O   UNL     1       4.269  -0.427  -0.041  0.00  0.00    -0.267 OA
ATOM     25  C   UNL     1       2.266   0.755  -0.015  0.00  0.00    +0.075 A 
ATOM     26  C   UNL     1       1.313  -0.341  -0.012  0.00  0.00    -0.023 A 
ATOM     27  C   UNL     1       0.002  -0.004   0.002  0.00  0.00    -0.004 A 
ATOM     28  S   UNL     1      -0.022   1.771   0.012  0.00  0.00    -0.073 S 
ATOM     29  C   UNL     1       1.719   2.057  -0.003  0.00  0.00    +0.116 A 
ATOM     30  N   UNL     1       2.450   3.167  -0.004  0.00  0.00    -0.223 NA
ATOM     31  C   UNL     1      -1.173  -0.933   0.007  0.00  0.00    +0.043 C 
ATOM     32  C   UNL     1      -0.685  -2.336  -0.379  0.00  0.00    +0.005 C 
ATOM     33  C   UNL     1       0.563  -2.666   0.447  0.00  0.00    +0.005 C 
ATOM     34  C   UNL     1       1.737  -1.807  -0.023  0.00  0.00    +0.037 C 
ENDBRANCH  19  20
ENDBRANCH  18  19
ENDBRANCH   1  18
TORSDOF 5
