REMARK  Name = ZINC05091644
REMARK  5 active torsions:
REMARK  status: ('A' for Active; 'I' for Inactive)
REMARK    1  A    between atoms: C_7  and  N_17
REMARK    2  A    between atoms: C_9  and  C_11
REMARK    3  A    between atoms: N_17  and  N_18
REMARK    4  A    between atoms: C_19  and  C_20
REMARK    5  A    between atoms: C_24  and  N_26
REMARK                            x       y       z     vdW  Elec       q    Type
REMARK                         _______ _______ _______ _____ _____    ______ ____
ROOT
ATOM      1  C   UNL     1      -1.400  11.580   0.071  0.00  0.00    +0.001 A 
ATOM      2  C   UNL     1      -2.643  12.207   0.085  0.00  0.00    +0.002 A 
ATOM      3  C   UNL     1      -3.796  11.481   0.093  0.00  0.00    +0.028 A 
ATOM      4  C   UNL     1      -3.732  10.080   0.086  0.00  0.00    +0.077 A 
ATOM      5  C   UNL     1      -2.466   9.444   0.072  0.00  0.00    +0.042 A 
ATOM      6  C   UNL     1      -1.302  10.219   0.064  0.00  0.00    +0.013 A 
ATOM      7  C   UNL     1      -2.425   8.027   0.065  0.00  0.00    +0.150 A 
ATOM      8  N   UNL     1      -3.574   7.366   0.067  0.00  0.00    -0.209 NA
ATOM      9  C   UNL     1      -4.741   8.005   0.086  0.00  0.00    +0.181 A 
ATOM     10  N   UNL     1      -4.836   9.321   0.093  0.00  0.00    -0.226 NA
ENDROOT
BRANCH   9  11
ATOM     11  C   UNL     1      -5.990   7.203   0.093  0.00  0.00    +0.108 A 
ATOM     12  C   UNL     1      -5.917   5.812   0.086  0.00  0.00    +0.031 A 
ATOM     13  C   UNL     1      -7.091   5.077   0.093  0.00  0.00    +0.004 A 
ATOM     14  C   UNL     1      -8.299   5.758   0.107  0.00  0.00    +0.020 A 
ATOM     15  C   UNL     1      -8.297   7.142   0.114  0.00  0.00    +0.111 A 
ATOM     16  N   UNL     1      -7.166   7.816   0.112  0.00  0.00    -0.252 NA
ENDBRANCH   9  11
BRANCH   7  17
ATOM     17  N   UNL     1      -1.222   7.354   0.050  0.00  0.00    -0.220 N 
ATOM     18  H   UNL     1      -0.389   7.851   0.044  0.00  0.00    +0.176 HD
BRANCH  17  19
ATOM     19  N   UNL     1      -1.203   5.953   0.043  0.00  0.00    -0.189 NA
ATOM     20  C   UNL     1      -0.070   5.320   0.029  0.00  0.00    +0.138 C 
BRANCH  20  21
ATOM     21  C   UNL     1      -0.050   3.845   0.022  0.00  0.00    -0.003 A 
ATOM     22  C   UNL     1      -1.249   3.127   0.030  0.00  0.00    +0.009 A 
ATOM     23  C   UNL     1      -1.222   1.748   0.017  0.00  0.00    +0.003 A 
ATOM     24  C   UNL     1      -0.013   1.076   0.008  0.00  0.00    +0.033 A 
ATOM     25  C   UNL     1       1.178   1.780   0.000  0.00  0.00    +0.127 A 
ATOM     26  C   UNL     1       1.167   3.160   0.007  0.00  0.00    +0.042 A 
BRANCH  25  27
ATOM     27  N   UNL     1       2.467   1.053  -0.016  0.00  0.00    +0.056 N 
ATOM     28  O   UNL     1       2.478  -0.165  -0.022  0.00  0.00    -0.126 OA
ATOM     29  O   UNL     1       3.516   1.671  -0.022  0.00  0.00    -0.126 OA
ENDBRANCH  25  27
ENDBRANCH  20  21
ENDBRANCH  17  19
ENDBRANCH   7  17
TORSDOF 5
