REMARK  Name = ZINC14464905
REMARK  3 active torsions:
REMARK  status: ('A' for Active; 'I' for Inactive)
REMARK    1  A    between atoms: C_1  and  C_2
REMARK    2  A    between atoms: C_3  and  N_25
REMARK    3  A    between atoms: C_9  and  C_18
REMARK                            x       y       z     vdW  Elec       q    Type
REMARK                         _______ _______ _______ _____ _____    ______ ____
ROOT
ATOM      1  C   UNL     1       0.233  -4.769   0.878  0.00  0.00    +0.048 C 
ATOM      2  C   UNL     1       1.211  -3.623   0.925  0.00  0.00    +0.001 A 
ATOM      3  C   UNL     1       2.560  -3.885   1.019  0.00  0.00    +0.131 A 
ATOM      4  C   UNL     1       3.470  -2.844   1.063  0.00  0.00    +0.033 A 
ATOM      5  C   UNL     1       3.017  -1.539   1.020  0.00  0.00    +0.008 A 
ATOM      6  C   UNL     1       1.668  -1.268   0.932  0.00  0.00    -0.019 A 
ATOM      7  C   UNL     1       0.739  -2.311   0.874  0.00  0.00    +0.036 A 
ATOM      8  N   UNL     1      -0.637  -2.126   0.758  0.00  0.00    -0.336 N 
ATOM      9  C   UNL     1      -1.137  -0.739   0.765  0.00  0.00    +0.105 C 
ATOM     10  C   UNL     1      -0.128   0.098   0.006  0.00  0.00    +0.029 C 
ATOM     11  C   UNL     1       1.153   0.118   0.897  0.00  0.00    +0.049 C 
ATOM     12  C   UNL     1       1.934   1.248   0.336  0.00  0.00    -0.023 C 
ATOM     13  C   UNL     1       1.087   2.125  -0.193  0.00  0.00    -0.030 C 
ATOM     14  C   UNL     1      -0.349   1.613  -0.052  0.00  0.00    +0.033 C 
ATOM     15  H   UNL     1      -1.003  -2.620  -0.041  0.00  0.00    +0.147 HD
ENDROOT
BRANCH   9  16
ATOM     16  C   UNL     1      -1.240  -0.254   2.188  0.00  0.00    -0.027 A 
ATOM     17  C   UNL     1      -0.460  -0.831   3.173  0.00  0.00    +0.007 A 
ATOM     18  C   UNL     1      -0.550  -0.383   4.478  0.00  0.00    +0.020 A 
ATOM     19  C   UNL     1      -1.430   0.635   4.800  0.00  0.00    +0.041 A 
ATOM     20  C   UNL     1      -2.214   1.208   3.815  0.00  0.00    +0.020 A 
ATOM     21  C   UNL     1      -2.119   0.763   2.510  0.00  0.00    +0.007 A 
ATOM     22 CL   UNL     1      -1.549   1.194   6.439  0.00  0.00    -0.084 Cl
ENDBRANCH   9  16
BRANCH   3  23
ATOM     23  N   UNL     1       3.038  -5.285   1.071  0.00  0.00    +0.057 N 
ATOM     24  O   UNL     1       3.986  -5.578   1.777  0.00  0.00    -0.126 OA
ATOM     25  O   UNL     1       2.484  -6.143   0.408  0.00  0.00    -0.126 OA
ENDBRANCH   3  23
TORSDOF 2
