REMARK  Name = ZINC38984607
REMARK  7 active torsions:
REMARK  status: ('A' for Active; 'I' for Inactive)
REMARK    1  A    between atoms: C_1  and  O_2
REMARK    2  A    between atoms: O_2  and  C_3
REMARK    3  A    between atoms: C_6  and  O_32
REMARK    4  A    between atoms: C_7  and  C_9
REMARK    5  A    between atoms: C_12  and  C_20
REMARK    6  A    between atoms: C_23  and  C_26
REMARK    7  A    between atoms: O_32  and  C_33
REMARK                            x       y       z     vdW  Elec       q    Type
REMARK                         _______ _______ _______ _____ _____    ______ ____
ROOT
ATOM      1  C   UNL     1       1.332  -4.077  -2.299  0.00  0.00    +0.080 C 
ATOM      2  N   UNL     1       1.923  -4.567  -3.324  0.00  0.00    -0.184 NA
ATOM      3  N   UNL     1       2.034  -5.926  -3.587  0.00  0.00    -0.207 N 
ATOM      4  C   UNL     1       2.263  -6.613  -4.865  0.00  0.00    +0.206 C 
ATOM      5  N   UNL     1       1.433  -7.844  -4.731  0.00  0.00    -0.231 NA
ATOM      6  N   UNL     1       1.647  -8.248  -3.332  0.00  0.00    -0.225 NA
ATOM      7  C   UNL     1       1.839  -6.996  -2.581  0.00  0.00    +0.234 C 
ATOM      8  S   UNL     1       0.323  -6.542  -1.681  0.00  0.00    -0.114 S 
ATOM      9  C   UNL     1       0.697  -4.833  -1.171  0.00  0.00    +0.130 C 
ATOM     10  H   UNL     1       0.459  -7.644  -4.903  0.00  0.00    +0.143 HD
ATOM     11  H   UNL     1       2.455  -8.847  -3.249  0.00  0.00    +0.143 HD
ENDROOT
BRANCH   1  16
ATOM     12  C   UNL     1       0.606  -0.608  -1.056  0.00  0.00    +0.121 A 
ATOM     13  C   UNL     1       1.173   0.164  -2.062  0.00  0.00    +0.049 A 
ATOM     14  C   UNL     1       1.789  -0.441  -3.142  0.00  0.00    +0.050 A 
ATOM     15  C   UNL     1       1.845  -1.822  -3.227  0.00  0.00    +0.129 A 
ATOM     16  C   UNL     1       1.276  -2.606  -2.215  0.00  0.00    +0.044 A 
ATOM     17  C   UNL     1       0.660  -1.988  -1.125  0.00  0.00    +0.059 A 
BRANCH  12  19
ATOM     18  C   UNL     1      -0.017   1.425   0.010  0.00  0.00    +0.277 C 
ATOM     19  O   UNL     1       0.002  -0.004   0.002  0.00  0.00    -0.495 OA
ENDBRANCH  12  19
BRANCH  15  20
ATOM     20  O   UNL     1       2.451  -2.415  -4.289  0.00  0.00    -0.494 OA
ATOM     21  C   UNL     1       3.009  -1.552  -5.282  0.00  0.00    +0.277 C 
ENDBRANCH  15  20
ENDBRANCH   1  16
BRANCH   4  22
ATOM     22  C   UNL     1       1.782  -5.755  -6.036  0.00  0.00    +0.190 C 
ATOM     23  C   UNL     1       1.959  -6.493  -7.351  0.00  0.00    +0.034 C 
ATOM     24  C   UNL     1       2.815  -5.718  -8.044  0.00  0.00    +0.091 C 
ATOM     25  N   UNL     1       3.163  -4.626  -7.314  0.00  0.00    -0.154 NA
ATOM     26  N   UNL     1       2.637  -4.567  -6.196  0.00  0.00    -0.176 NA
BRANCH  24  27
ATOM     27  C   UNL     1       3.308  -6.015  -9.411  0.00  0.00    +0.002 A 
ATOM     28  C   UNL     1       2.882  -7.164 -10.074  0.00  0.00    +0.010 A 
ATOM     29  C   UNL     1       3.345  -7.435 -11.346  0.00  0.00    +0.001 A 
ATOM     30  C   UNL     1       4.229  -6.568 -11.963  0.00  0.00    +0.000 A 
ATOM     31  C   UNL     1       4.655  -5.426 -11.309  0.00  0.00    +0.001 A 
ATOM     32  C   UNL     1       4.195  -5.142 -10.039  0.00  0.00    +0.010 A 
ENDBRANCH  24  27
ENDBRANCH   4  22
TORSDOF 5
