REMARK  Name = ZINC06198228
REMARK  10 active torsions:
REMARK  status: ('A' for Active; 'I' for Inactive)
REMARK    1  A    between atoms: C_1  and  C_2
REMARK    2  A    between atoms: C_2  and  C_3
REMARK    3  A    between atoms: C_10  and  C_15
REMARK    4  A    between atoms: C_15  and  C_17
REMARK    5  A    between atoms: C_15  and  N_70
REMARK    6  A    between atoms: N_21  and  C_22
REMARK    7  A    between atoms: C_28  and  C_29
REMARK    8  A    between atoms: C_28  and  N_70
REMARK    9  A    between atoms: C_34  and  C_35
REMARK   10  A    between atoms: C_34  and  N_70
REMARK                            x       y       z     vdW  Elec       q    Type
REMARK                         _______ _______ _______ _____ _____    ______ ____
ROOT
ATOM      1  C   UNL     1       6.258  -0.419  -0.633  0.00  0.00    +0.040 C 
ENDROOT
BRANCH   1   9
ATOM      2  C   UNL     1       0.966  -2.629   1.690  0.00  0.00    -0.047 A 
ATOM      3  C   UNL     1       0.603  -1.476   2.373  0.00  0.00    +0.005 A 
ATOM      4  C   UNL     1       1.404  -0.355   2.338  0.00  0.00    +0.026 A 
ATOM      5  C   UNL     1       2.589  -0.377   1.610  0.00  0.00    +0.049 A 
ATOM      6  C   UNL     1       2.954  -1.547   0.918  0.00  0.00    -0.001 A 
ATOM      7  C   UNL     1       2.125  -2.673   0.968  0.00  0.00    +0.013 A 
ATOM      8  C   UNL     1       4.203  -1.560   0.155  0.00  0.00    +0.017 A 
ATOM      9  C   UNL     1       4.966  -0.439   0.143  0.00  0.00    +0.011 A 
ATOM     10  C   UNL     1       4.555   0.708   0.854  0.00  0.00    +0.251 A 
ATOM     11  O   UNL     1       5.256   1.705   0.830  0.00  0.00    -0.268 OA
ATOM     12  N   UNL     1       3.410   0.730   1.558  0.00  0.00    -0.322 N 
ATOM     13  H   UNL     1       3.149   1.560   2.050  0.00  0.00    +0.169 HD
BRANCH   2  15
ATOM     14  C   UNL     1      -0.937  -3.784   0.597  0.00  0.00    +0.009 C 
ATOM     15  C   UNL     1       0.074  -3.842   1.744  0.00  0.00    +0.032 C 
ENDBRANCH   2  15
ENDBRANCH   1   9
BRANCH   1  16
ATOM     16  C   UNL     1       7.409  -0.189   0.313  0.00  0.00    +0.143 A 
ATOM     17  N   UNL     1       7.731   0.941   0.894  0.00  0.00    -0.115 NA
ATOM     18  N   UNL     1       8.770   0.731   1.625  0.00  0.00    -0.023 NA
ATOM     19  N   UNL     1       9.119  -0.504   1.527  0.00  0.00    -0.044 NA
ATOM     20  N   UNL     1       8.301  -1.106   0.731  0.00  0.00    -0.227 N 
BRANCH  20  21
ATOM     21  C   UNL     1       8.339  -2.520   0.350  0.00  0.00    +0.111 C 
ATOM     22  C   UNL     1       8.091  -3.387   1.586  0.00  0.00    +0.027 C 
ATOM     23  C   UNL     1       8.130  -4.864   1.189  0.00  0.00    +0.002 C 
ATOM     24  C   UNL     1       9.502  -5.197   0.599  0.00  0.00    +0.000 C 
ATOM     25  C   UNL     1       9.750  -4.330  -0.637  0.00  0.00    +0.002 C 
ATOM     26  C   UNL     1       9.711  -2.853  -0.239  0.00  0.00    +0.027 C 
ENDBRANCH  20  21
ENDBRANCH   1  16
BRANCH   1  27
ATOM     27  N   UNL     1       6.217   0.688  -1.611  0.00  0.00    +0.397 N 
ATOM     28  H   UNL     1       6.208   1.581  -1.104  0.00  0.00    -0.079 HD
BRANCH  27  29
ATOM     29  C   UNL     1       7.412   0.641  -2.479  0.00  0.00    -0.001 C 
BRANCH  29  30
ATOM     30  C   UNL     1       8.556   1.309  -1.761  0.00  0.00    +0.089 A 
ATOM     31  C   UNL     1       9.524   0.681  -1.070  0.00  0.00    +0.042 A 
ATOM     32  C   UNL     1      10.383   1.685  -0.565  0.00  0.00    +0.041 A 
ATOM     33  C   UNL     1       9.888   2.865  -0.978  0.00  0.00    +0.195 A 
ATOM     34  O   UNL     1       8.784   2.631  -1.706  0.00  0.00    -0.470 OA
ENDBRANCH  29  30
ENDBRANCH  27  29
BRANCH  27  35
ATOM     35  C   UNL     1       4.992   0.591  -2.432  0.00  0.00    -0.034 C 
BRANCH  35  36
ATOM     36  C   UNL     1       3.998   1.607  -1.930  0.00  0.00    -0.027 A 
ATOM     37  C   UNL     1       4.028   2.958  -2.043  0.00  0.00    +0.009 A 
ATOM     38  C   UNL     1       2.995   3.698  -1.499  0.00  0.00    +0.008 A 
ATOM     39  C   UNL     1       1.984   3.052  -0.869  0.00  0.00    +0.045 A 
ATOM     40  S   UNL     1       2.474   1.344  -1.039  0.00  0.00    -0.103 S 
ENDBRANCH  35  36
ENDBRANCH  27  35
ENDBRANCH   1  27
TORSDOF 9
