REMARK  Name = ZINC03034103
REMARK  6 active torsions:
REMARK  status: ('A' for Active; 'I' for Inactive)
REMARK    1  A    between atoms: C_6  and  C_7
REMARK    2  A    between atoms: N_9  and  C_10
REMARK    3  A    between atoms: C_10  and  C_11
REMARK    4  A    between atoms: N_13  and  N_14
REMARK    5  A    between atoms: C_15  and  C_16
REMARK    6  A    between atoms: C_21  and  O_22
REMARK                            x       y       z     vdW  Elec       q    Type
REMARK                         _______ _______ _______ _____ _____    ______ ____
ROOT
ATOM      1  C   UNL     1      -4.859   0.105   0.052  0.00  0.00    +0.249 C 
ATOM      2  O   UNL     1      -4.656   1.301   0.056  0.00  0.00    -0.272 OA
ATOM      3  N   UNL     1      -6.123  -0.363   0.062  0.00  0.00    -0.206 N 
ATOM      4  H   UNL     1      -6.286  -1.319   0.059  0.00  0.00    +0.177 HD
ENDROOT
BRANCH   3   5
ATOM      5  N   UNL     1      -7.202   0.531   0.078  0.00  0.00    -0.188 NA
ATOM      6  C   UNL     1      -8.419   0.080   0.088  0.00  0.00    +0.142 C 
BRANCH   6   7
ATOM      7  C   UNL     1      -9.553   1.021   0.104  0.00  0.00    +0.037 A 
ATOM      8  C   UNL     1     -10.864   0.540   0.121  0.00  0.00    +0.028 A 
ATOM      9  C   UNL     1     -11.922   1.426   0.137  0.00  0.00    +0.019 A 
ATOM     10  C   UNL     1     -11.688   2.792   0.136  0.00  0.00    +0.019 A 
ATOM     11  C   UNL     1     -10.395   3.279   0.119  0.00  0.00    +0.047 A 
ATOM     12  C   UNL     1      -9.322   2.403   0.110  0.00  0.00    +0.126 A 
ATOM     13 BR   UNL     1     -13.697   0.774   0.159  0.00  0.00    -0.050 Br
BRANCH  12  14
ATOM     14  O   UNL     1      -8.051   2.882   0.099  0.00  0.00    -0.506 OA
ATOM     15  H   UNL     1      -7.692   3.026  -0.788  0.00  0.00    +0.292 HD
ENDBRANCH  12  14
ENDBRANCH   6   7
ENDBRANCH   3   5
BRANCH   1  16
ATOM     16  C   UNL     1      -3.700  -0.857   0.035  0.00  0.00    +0.202 C 
BRANCH  16  19
ATOM     17  C   UNL     1      -1.265  -0.761   0.011  0.00  0.00    +0.245 C 
ATOM     18  O   UNL     1      -1.247  -1.977   0.004  0.00  0.00    -0.270 OA
ATOM     19  N   UNL     1      -2.442  -0.105   0.026  0.00  0.00    -0.303 N 
ATOM     20  H   UNL     1      -2.457   0.865   0.032  0.00  0.00    +0.150 HD
BRANCH  17  26
ATOM     21  C   UNL     1      -0.017   1.392   0.010  0.00  0.00    +0.017 A 
ATOM     22  C   UNL     1       1.167   2.098   0.002  0.00  0.00    +0.050 A 
ATOM     23  C   UNL     1       2.381   1.425  -0.013  0.00  0.00    +0.166 A 
ATOM     24  C   UNL     1       2.407   0.029  -0.021  0.00  0.00    +0.167 A 
ATOM     25  C   UNL     1       1.224  -0.683  -0.014  0.00  0.00    +0.062 A 
ATOM     26  C   UNL     1       0.002  -0.004   0.002  0.00  0.00    +0.040 A 
ATOM     27  O   UNL     1       3.709  -0.382  -0.036  0.00  0.00    -0.453 OA
ATOM     28  C   UNL     1       4.470   0.768  -0.450  0.00  0.00    +0.466 C 
ATOM     29  O   UNL     1       3.665   1.883  -0.022  0.00  0.00    -0.453 OA
ENDBRANCH  17  26
ENDBRANCH  16  19
ENDBRANCH   1  16
TORSDOF 6
