REMARK  Name = ZINC28049105
REMARK  10 active torsions:
REMARK  status: ('A' for Active; 'I' for Inactive)
REMARK    1  A    between atoms: C_1  and  C_2
REMARK    2  A    between atoms: C_4  and  C_27
REMARK    3  A    between atoms: C_5  and  C_26
REMARK    4  A    between atoms: C_6  and  S_8
REMARK    5  A    between atoms: S_8  and  N_11
REMARK    6  A    between atoms: N_11  and  C_12
REMARK    7  A    between atoms: C_17  and  O_18
REMARK    8  A    between atoms: O_18  and  C_19
REMARK    9  A    between atoms: N_20  and  C_25
REMARK   10  A    between atoms: N_23  and  C_24
REMARK                            x       y       z     vdW  Elec       q    Type
REMARK                         _______ _______ _______ _____ _____    ______ ____
ROOT
ATOM      1  N   UNL     1       4.189  -1.637   1.456  0.00  0.00    -0.213 N 
ATOM      2  H   UNL     1       5.007  -1.309   2.114  0.00  0.00    +0.174 HD
ENDROOT
BRANCH   1   3
ATOM      3  C   UNL     1       3.454  -2.788   1.772  0.00  0.00    +0.092 A 
ATOM      4  C   UNL     1       2.995  -3.616   0.759  0.00  0.00    +0.056 A 
ATOM      5  C   UNL     1       2.269  -4.754   1.074  0.00  0.00    +0.072 A 
ATOM      6  C   UNL     1       2.000  -5.064   2.409  0.00  0.00    +0.073 A 
ATOM      7  C   UNL     1       2.459  -4.234   3.420  0.00  0.00    +0.075 A 
ATOM      8  C   UNL     1       3.189  -3.101   3.104  0.00  0.00    +0.144 A 
ATOM      9  N   UNL     1       1.263  -6.249   2.406  0.00  0.00    -0.295 N 
ATOM     10  C   UNL     1       1.092  -6.639   1.129  0.00  0.00    +0.330 A 
ATOM     11  O   UNL     1       0.490  -7.637   0.776  0.00  0.00    -0.246 OA
ATOM     12  N   UNL     1       1.687  -5.759   0.302  0.00  0.00    -0.295 N 
ATOM     13  C   UNL     1       1.717  -5.843  -1.160  0.00  0.00    +0.154 C 
ATOM     14  C   UNL     1       0.760  -6.948   3.591  0.00  0.00    +0.154 C 
BRANCH   8  15
ATOM     15  O   UNL     1       3.646  -2.289   4.096  0.00  0.00    -0.493 OA
ATOM     16  C   UNL     1       3.339  -2.669   5.439  0.00  0.00    +0.277 C 
ENDBRANCH   8  15
ENDBRANCH   1   3
BRANCH   1  17
ATOM     17  S   UNL     1       3.825  -0.770   0.092  0.00  0.00    +0.073 S 
ATOM     18  O   UNL     1       4.701   0.348   0.076  0.00  0.00    -0.150 OA
ATOM     19  O   UNL     1       2.411  -0.631   0.065  0.00  0.00    -0.150 OA
BRANCH  17  25
ATOM     20  C   UNL     1       2.555  -3.454  -4.209  0.00  0.00    +0.044 C 
ATOM     21  C   UNL     1       3.622  -2.986  -3.254  0.00  0.00    -0.048 A 
ATOM     22  C   UNL     1       4.942  -3.340  -3.463  0.00  0.00    +0.007 A 
ATOM     23  C   UNL     1       5.920  -2.910  -2.586  0.00  0.00    -0.045 A 
ATOM     24  C   UNL     1       5.579  -2.125  -1.500  0.00  0.00    -0.021 A 
ATOM     25  C   UNL     1       4.260  -1.770  -1.292  0.00  0.00    +0.112 A 
ATOM     26  C   UNL     1       3.281  -2.200  -2.168  0.00  0.00    +0.032 A 
ATOM     27  C   UNL     1       6.646  -1.657  -0.545  0.00  0.00    +0.046 C 
ATOM     28  C   UNL     1       7.359  -3.297  -2.814  0.00  0.00    +0.044 C 
ENDBRANCH  17  25
ENDBRANCH   1  17
TORSDOF 4
