REMARK  Name = ZINC12562800
REMARK  3 active torsions:
REMARK  status: ('A' for Active; 'I' for Inactive)
REMARK    1  A    between atoms: C_4  and  C_7
REMARK    2  A    between atoms: N_15  and  C_16
REMARK    3  A    between atoms: C_16  and  C_17
REMARK                            x       y       z     vdW  Elec       q    Type
REMARK                         _______ _______ _______ _____ _____    ______ ____
ROOT
ATOM      1  C   UNL     1       2.640   4.468  -0.000  0.00  0.00    +0.218 C 
ENDROOT
BRANCH   1   2
ATOM      2  C   UNL     1       2.346   4.876   1.420  0.00  0.00    +0.235 C 
ATOM      3  O   UNL     1       3.012   4.430   2.330  0.00  0.00    -0.274 OA
ATOM      4  N   UNL     1       1.342   5.737   1.680  0.00  0.00    -0.300 N 
ATOM      5  C   UNL     1       0.530   6.291   0.588  0.00  0.00    +0.110 C 
ATOM      6  C   UNL     1      -0.950   6.012   0.891  0.00  0.00    +0.054 C 
ATOM      7  C   UNL     1      -1.292   6.546   2.278  0.00  0.00    +0.115 C 
ATOM      8  C   UNL     1      -0.437   5.871   3.345  0.00  0.00    +0.054 C 
ATOM      9  C   UNL     1       1.044   6.145   3.060  0.00  0.00    +0.110 C 
ATOM     10  C   UNL     1      -2.760   6.342   2.573  0.00  0.00    +0.244 C 
ATOM     11  O   UNL     1      -3.356   5.288   2.638  0.00  0.00    -0.273 OA
ATOM     12  N   UNL     1      -3.268   7.580   2.751  0.00  0.00    -0.238 N 
ATOM     13  C   UNL     1      -2.328   8.523   2.608  0.00  0.00    +0.307 C 
ATOM     14  O   UNL     1      -2.543   9.713   2.722  0.00  0.00    -0.252 OA
ATOM     15  N   UNL     1      -1.118   8.004   2.325  0.00  0.00    -0.285 N 
ATOM     16  H   UNL     1      -4.197   7.763   2.957  0.00  0.00    +0.159 HD
ATOM     17  H   UNL     1      -0.294   8.495   2.181  0.00  0.00    +0.151 HD
ENDBRANCH   1   2
BRANCH   1  26
ATOM     18  C   UNL     1       3.657   2.161  -0.021  0.00  0.00    +0.051 A 
ATOM     19  C   UNL     1       4.894   1.606  -0.031  0.00  0.00    +0.036 A 
ATOM     20  C   UNL     1       5.855   2.708  -0.042  0.00  0.00    +0.000 A 
ATOM     21  C   UNL     1       7.252   2.775  -0.054  0.00  0.00    +0.010 A 
ATOM     22  C   UNL     1       7.872   3.991  -0.055  0.00  0.00    +0.001 A 
ATOM     23  C   UNL     1       7.128   5.163  -0.042  0.00  0.00    +0.002 A 
ATOM     24  C   UNL     1       5.751   5.121  -0.029  0.00  0.00    +0.026 A 
ATOM     25  C   UNL     1       5.096   3.893  -0.028  0.00  0.00    +0.050 A 
ATOM     26  N   UNL     1       3.767   3.532  -0.016  0.00  0.00    -0.331 N 
BRANCH  18  30
ATOM     27  C   UNL     1       0.002  -0.004   0.007  0.00  0.00    +0.000 A 
ATOM     28  C   UNL     1       1.148  -0.593  -0.498  0.00  0.00    +0.001 A 
ATOM     29  C   UNL     1       2.338   0.104  -0.510  0.00  0.00    +0.010 A 
ATOM     30  C   UNL     1       2.385   1.407  -0.012  0.00  0.00    -0.001 A 
ATOM     31  C   UNL     1       1.226   1.996   0.496  0.00  0.00    +0.010 A 
ATOM     32  C   UNL     1       0.042   1.287   0.502  0.00  0.00    +0.001 A 
ENDBRANCH  18  30
ENDBRANCH   1  26
TORSDOF 3
