REMARK  Name = ZINC38564222
REMARK  10 active torsions:
REMARK  status: ('A' for Active; 'I' for Inactive)
REMARK    1  A    between atoms: C_1  and  O_2
REMARK    2  A    between atoms: O_2  and  C_3
REMARK    3  A    between atoms: C_7  and  C_11
REMARK    4  A    between atoms: C_8  and  O_9
REMARK    5  A    between atoms: O_9  and  C_10
REMARK    6  A    between atoms: C_13  and  C_25
REMARK    7  A    between atoms: N_27  and  C_28
REMARK    8  A    between atoms: C_28  and  C_29
REMARK    9  A    between atoms: C_29  and  C_31
REMARK   10  A    between atoms: C_29  and  O_37
REMARK                            x       y       z     vdW  Elec       q    Type
REMARK                         _______ _______ _______ _____ _____    ______ ____
ROOT
ATOM      1  C   UNL     1      -2.574  -4.138   0.016  0.00  0.00    +0.080 C 
ATOM      2  N   UNL     1      -1.478  -4.858  -0.086  0.00  0.00    -0.244 NA
ATOM      3  C   UNL     1      -1.461  -6.191  -0.236  0.00  0.00    +0.126 C 
ATOM      4  C   UNL     1      -2.614  -6.896  -0.588  0.00  0.00    +0.039 C 
ATOM      5  C   UNL     1      -3.799  -6.175  -0.569  0.00  0.00    -0.008 C 
ATOM      6  C   UNL     1      -5.040  -6.354  -1.122  0.00  0.00    +0.004 A 
ATOM      7  C   UNL     1      -5.660  -7.479  -1.713  0.00  0.00    +0.010 A 
ATOM      8  C   UNL     1      -6.913  -7.296  -2.219  0.00  0.00    +0.001 A 
ATOM      9  C   UNL     1      -7.588  -6.076  -2.178  0.00  0.00    +0.002 A 
ATOM     10  C   UNL     1      -7.072  -4.952  -1.609  0.00  0.00    +0.026 A 
ATOM     11  C   UNL     1      -5.774  -5.060  -1.035  0.00  0.00    +0.044 A 
ATOM     12  N   UNL     1      -5.069  -4.171  -0.378  0.00  0.00    -0.372 N 
ATOM     13  C   UNL     1      -3.886  -4.828   0.137  0.00  0.00    +0.160 C 
ATOM     14  H   UNL     1      -5.301  -3.237  -0.255  0.00  0.00    +0.161 HD
ENDROOT
BRANCH   1  19
ATOM     15  C   UNL     1      -2.983  -0.550  -1.030  0.00  0.00    +0.162 A 
ATOM     16  C   UNL     1      -2.362   0.101   0.024  0.00  0.00    +0.049 A 
ATOM     17  C   UNL     1      -1.812  -0.624   1.070  0.00  0.00    +0.004 A 
ATOM     18  C   UNL     1      -1.877  -1.999   1.075  0.00  0.00    +0.013 A 
ATOM     19  C   UNL     1      -2.502  -2.674   0.017  0.00  0.00    +0.044 A 
ATOM     20  C   UNL     1      -3.064  -1.938  -1.040  0.00  0.00    +0.170 A 
BRANCH  15  22
ATOM     21  C   UNL     1      -3.401   1.591  -1.976  0.00  0.00    +0.277 C 
ATOM     22  O   UNL     1      -3.520   0.170  -2.051  0.00  0.00    -0.491 OA
ENDBRANCH  15  22
BRANCH  20  23
ATOM     23  O   UNL     1      -3.677  -2.579  -2.068  0.00  0.00    -0.491 OA
ATOM     24  C   UNL     1      -2.862  -2.945  -3.183  0.00  0.00    +0.277 C 
ENDBRANCH  20  23
ENDBRANCH   1  19
BRANCH   3  25
ATOM     25  C   UNL     1      -0.196  -6.928  -0.025  0.00  0.00    +0.262 C 
ATOM     26  O   UNL     1      -0.167  -8.136  -0.158  0.00  0.00    -0.269 OA
ATOM     27  N   UNL     1       0.925  -6.261   0.314  0.00  0.00    -0.307 N 
ATOM     28  H   UNL     1       0.902  -5.297   0.420  0.00  0.00    +0.149 HD
BRANCH  27  29
ATOM     29  C   UNL     1       2.178  -6.991   0.523  0.00  0.00    +0.140 C 
BRANCH  29  30
ATOM     30  C   UNL     1       3.287  -6.005   0.896  0.00  0.00    +0.162 C 
BRANCH  30  31
ATOM     31  C   UNL     1       4.600  -6.738   0.991  0.00  0.00    -0.018 A 
ATOM     32  C   UNL     1       4.905  -7.465   2.126  0.00  0.00    +0.006 A 
ATOM     33  C   UNL     1       6.110  -8.138   2.213  0.00  0.00    +0.000 A 
ATOM     34  C   UNL     1       7.009  -8.083   1.164  0.00  0.00    +0.000 A 
ATOM     35  C   UNL     1       6.704  -7.356   0.029  0.00  0.00    +0.000 A 
ATOM     36  C   UNL     1       5.497  -6.687  -0.060  0.00  0.00    +0.006 A 
ENDBRANCH  30  31
BRANCH  30  37
ATOM     37  O   UNL     1       2.985  -5.404   2.157  0.00  0.00    -0.386 OA
ATOM     38  H   UNL     1       2.907  -6.035   2.885  0.00  0.00    +0.210 HD
ENDBRANCH  30  37
ENDBRANCH  29  30
ENDBRANCH  27  29
ENDBRANCH   3  25
TORSDOF 8
