REMARK  Name = ZINC18272715
REMARK  7 active torsions:
REMARK  status: ('A' for Active; 'I' for Inactive)
REMARK    1  A    between atoms: C_1  and  C_2
REMARK    2  A    between atoms: C_3  and  N_9
REMARK    3  A    between atoms: C_10  and  C_27
REMARK    4  A    between atoms: C_13  and  S_14
REMARK    5  A    between atoms: S_14  and  C_15
REMARK    6  A    between atoms: C_15  and  C_16
REMARK    7  A    between atoms: C_24  and  N_26
REMARK                            x       y       z     vdW  Elec       q    Type
REMARK                         _______ _______ _______ _____ _____    ______ ____
ROOT
ATOM      1  N   UNL     1      -4.279   3.554   2.410  0.00  0.00    -0.270 N 
ATOM      2  C   UNL     1      -5.336   4.112   1.723  0.00  0.00    +0.169 A 
ATOM      3  N   UNL     1      -5.076   3.980   0.443  0.00  0.00    -0.128 NA
ATOM      4  N   UNL     1      -3.945   3.391   0.282  0.00  0.00    -0.122 NA
ATOM      5  C   UNL     1      -3.415   3.102   1.451  0.00  0.00    +0.197 A 
ENDROOT
BRANCH   1   8
ATOM      6  C   UNL     1      -5.299   1.251   3.736  0.00  0.00    +0.047 C 
ATOM      7  C   UNL     1      -4.606   2.359   4.486  0.00  0.00    -0.008 A 
ATOM      8  C   UNL     1      -4.124   3.466   3.800  0.00  0.00    +0.055 A 
ATOM      9  C   UNL     1      -3.482   4.483   4.494  0.00  0.00    +0.026 A 
ATOM     10  C   UNL     1      -3.333   4.397   5.864  0.00  0.00    +0.003 A 
ATOM     11  C   UNL     1      -3.814   3.294   6.545  0.00  0.00    +0.020 A 
ATOM     12  C   UNL     1      -4.450   2.276   5.856  0.00  0.00    +0.046 A 
ATOM     13 CL   UNL     1      -5.054   0.893   6.715  0.00  0.00    -0.083 Cl
ENDBRANCH   1   8
BRANCH   2  14
ATOM     14  C   UNL     1      -6.534   4.742   2.316  0.00  0.00    +0.022 A 
ATOM     15  C   UNL     1      -6.855   4.549   3.666  0.00  0.00    +0.031 A 
ATOM     16  C   UNL     1      -7.981   5.159   4.178  0.00  0.00    +0.111 A 
ATOM     17  N   UNL     1      -8.754   5.907   3.414  0.00  0.00    -0.263 NA
ATOM     18  C   UNL     1      -8.491   6.110   2.137  0.00  0.00    +0.111 A 
ATOM     19  C   UNL     1      -7.383   5.543   1.543  0.00  0.00    +0.031 A 
ENDBRANCH   2  14
BRANCH   5  20
ATOM     20  S   UNL     1      -1.876   2.292   1.730  0.00  0.00    -0.078 S 
BRANCH  20  21
ATOM     21  C   UNL     1      -1.350   2.020   0.019  0.00  0.00    +0.153 C 
BRANCH  21  22
ATOM     22  C   UNL     1      -0.016   1.319   0.009  0.00  0.00    +0.142 A 
ATOM     23  N   UNL     1       1.075   2.048   0.003  0.00  0.00    -0.231 NA
ATOM     24  C   UNL     1       2.283   1.465  -0.012  0.00  0.00    +0.076 A 
ATOM     25  C   UNL     1       3.468   2.212  -0.019  0.00  0.00    +0.028 A 
ATOM     26  C   UNL     1       4.669   1.568  -0.035  0.00  0.00    +0.002 A 
ATOM     27  C   UNL     1       4.738   0.178  -0.044  0.00  0.00    +0.001 A 
ATOM     28  C   UNL     1       3.604  -0.580  -0.036  0.00  0.00    +0.013 A 
ATOM     29  C   UNL     1       2.355   0.050  -0.020  0.00  0.00    +0.040 A 
ATOM     30  C   UNL     1       1.142  -0.681  -0.013  0.00  0.00    +0.127 A 
ATOM     31  N   UNL     1       0.002  -0.004   0.002  0.00  0.00    -0.216 NA
BRANCH  30  32
ATOM     32  N   UNL     1       1.147  -2.060  -0.020  0.00  0.00    -0.343 N 
ATOM     33  H   UNL     1       0.309  -2.548  -0.014  0.00  0.00    +0.144 HD
ATOM     34  H   UNL     1       1.989  -2.542  -0.030  0.00  0.00    +0.144 HD
ENDBRANCH  30  32
ENDBRANCH  21  22
ENDBRANCH  20  21
ENDBRANCH   5  20
TORSDOF 6
