REMARK  Name = ZINC39951193
REMARK  9 active torsions:
REMARK  status: ('A' for Active; 'I' for Inactive)
REMARK    1  A    between atoms: C_1  and  C_2
REMARK    2  A    between atoms: C_2  and  C_3
REMARK    3  A    between atoms: C_3  and  C_4
REMARK    4  A    between atoms: C_9  and  C_26
REMARK    5  A    between atoms: C_10  and  O_12
REMARK    6  A    between atoms: C_16  and  C_18
REMARK    7  A    between atoms: C_21  and  O_25
REMARK    8  A    between atoms: C_22  and  O_24
REMARK    9  A    between atoms: C_26  and  C_27
REMARK                            x       y       z     vdW  Elec       q    Type
REMARK                         _______ _______ _______ _____ _____    ______ ____
ROOT
ATOM      1  C   UNL     1       0.676  -2.118   1.393  0.00  0.00    -0.005 C 
ATOM      2  C   UNL     1       1.463  -2.686   0.204  0.00  0.00    +0.090 C 
ATOM      3  N   UNL     1       1.381  -4.131   0.257  0.00  0.00    -0.311 NA
ATOM      4  C   UNL     1       2.353  -4.803   1.076  0.00  0.00    +0.083 C 
ATOM      5  C   UNL     1       1.871  -5.099   2.462  0.00  0.00    +0.023 C 
ATOM      6  C   UNL     1       0.958  -4.056   3.049  0.00  0.00    -0.016 C 
ATOM      7  C   UNL     1       1.271  -2.630   2.689  0.00  0.00    +0.125 C 
ATOM      8  C   UNL     1      -0.493  -4.420   2.720  0.00  0.00    -0.067 C 
ATOM      9  N   UNL     1      -0.811  -4.028   1.350  0.00  0.00    +0.394 N 
ATOM     10  C   UNL     1      -0.782  -2.565   1.246  0.00  0.00    -0.065 C 
ATOM     11  C   UNL     1       0.028  -4.660   0.347  0.00  0.00    +0.033 C 
ATOM     12  H   UNL     1      -1.759  -4.322   1.167  0.00  0.00    -0.079 HD
ENDROOT
BRANCH  11  13
ATOM     13  C   UNL     1       0.112  -6.133   0.657  0.00  0.00    -0.044 A 
ATOM     14  C   UNL     1      -0.843  -6.724   1.462  0.00  0.00    +0.007 A 
ATOM     15  C   UNL     1      -0.770  -8.074   1.749  0.00  0.00    +0.049 A 
ATOM     16  C   UNL     1       0.262  -8.838   1.229  0.00  0.00    +0.158 A 
ATOM     17  C   UNL     1       1.224  -8.243   0.418  0.00  0.00    +0.158 A 
ATOM     18  C   UNL     1       1.142  -6.890   0.130  0.00  0.00    +0.052 A 
BRANCH  17  19
ATOM     19  O   UNL     1       2.239  -8.989  -0.095  0.00  0.00    -0.503 OA
ATOM     20  H   UNL     1       2.042  -9.383  -0.955  0.00  0.00    +0.292 HD
ENDBRANCH  17  19
BRANCH  16  21
ATOM     21  O   UNL     1       0.336 -10.167   1.511  0.00  0.00    -0.503 OA
ATOM     22  H   UNL     1      -0.134 -10.729   0.880  0.00  0.00    +0.292 HD
ENDBRANCH  16  21
ENDBRANCH  11  13
BRANCH   7  23
ATOM     23  O   UNL     1       0.808  -1.794   3.751  0.00  0.00    -0.391 OA
ATOM     24  H   UNL     1      -0.155  -1.762   3.835  0.00  0.00    +0.210 HD
ENDBRANCH   7  23
BRANCH   6  25
ATOM     25  C   UNL     1       1.085  -4.165   4.569  0.00  0.00    +0.004 C 
ATOM     26  C   UNL     1       0.792  -5.603   5.004  0.00  0.00    +0.004 C 
ENDBRANCH   6  25
BRANCH   1  27
ATOM     27  C   UNL     1       0.746  -0.589   1.369  0.00  0.00    +0.008 C 
BRANCH  27  29
ATOM     28  C   UNL     1       0.214   1.456   0.036  0.00  0.00    +0.004 C 
ATOM     29  C   UNL     1       0.144  -0.072   0.060  0.00  0.00    -0.003 C 
ENDBRANCH  27  29
ENDBRANCH   1  27
TORSDOF 7
