REMARK  Name = ZINC62432037
REMARK  4 active torsions:
REMARK  status: ('A' for Active; 'I' for Inactive)
REMARK    1  A    between atoms: C_1  and  C_2
REMARK    2  A    between atoms: C_5  and  C_8
REMARK    3  A    between atoms: C_8  and  C_9
REMARK    4  A    between atoms: C_10  and  N_19
REMARK                            x       y       z     vdW  Elec       q    Type
REMARK                         _______ _______ _______ _____ _____    ______ ____
ROOT
ATOM      1  C   UNL     1       1.487  -4.759  -0.032  0.00  0.00    +0.086 A 
ATOM      2  C   UNL     1       2.232  -5.003  -1.139  0.00  0.00    +0.124 A 
ATOM      3  N   UNL     1       3.462  -5.423  -0.712  0.00  0.00    -0.287 N 
ATOM      4  C   UNL     1       4.596  -5.801  -1.379  0.00  0.00    +0.109 A 
ATOM      5  C   UNL     1       5.697  -6.181  -0.698  0.00  0.00    +0.035 A 
ATOM      6  C   UNL     1       5.695  -6.192   0.709  0.00  0.00    +0.020 A 
ATOM      7  C   UNL     1       4.577  -5.819   1.385  0.00  0.00    +0.048 A 
ATOM      8  C   UNL     1       3.431  -5.424   0.664  0.00  0.00    +0.139 A 
ATOM      9  N   UNL     1       2.232  -5.016   1.049  0.00  0.00    -0.230 NA
ATOM     10 BR   UNL     1       7.252  -6.700  -1.641  0.00  0.00    -0.049 Br
ENDROOT
BRANCH   2  11
ATOM     11  N   UNL     1       1.821  -4.852  -2.469  0.00  0.00    -0.343 N 
ATOM     12  H   UNL     1       0.922  -4.547  -2.667  0.00  0.00    +0.144 HD
ATOM     13  H   UNL     1       2.434  -5.054  -3.193  0.00  0.00    +0.144 HD
ENDBRANCH   2  11
BRANCH   1  14
ATOM     14  C   UNL     1       0.059  -4.275  -0.021  0.00  0.00    +0.094 C 
BRANCH  14  19
ATOM     15  C   UNL     1      -0.018   1.503   0.010  0.00  0.00    +0.044 C 
ATOM     16  C   UNL     1       0.002  -0.004   0.002  0.00  0.00    -0.050 A 
ATOM     17  C   UNL     1       0.006  -0.689  -1.199  0.00  0.00    +0.003 A 
ATOM     18  C   UNL     1       0.025  -2.071  -1.206  0.00  0.00    +0.004 A 
ATOM     19  C   UNL     1       0.040  -2.768  -0.013  0.00  0.00    -0.041 A 
ATOM     20  C   UNL     1       0.037  -2.084   1.188  0.00  0.00    +0.004 A 
ATOM     21  C   UNL     1       0.023  -0.702   1.195  0.00  0.00    +0.003 A 
ENDBRANCH  14  19
ENDBRANCH   1  14
TORSDOF 3
