REMARK  Name = ZINC39686253
REMARK  8 active torsions:
REMARK  status: ('A' for Active; 'I' for Inactive)
REMARK    1  A    between atoms: C_1  and  C_2
REMARK    2  A    between atoms: C_5  and  C_10
REMARK    3  A    between atoms: C_14  and  C_23
REMARK    4  A    between atoms: N_25  and  C_26
REMARK    5  A    between atoms: C_32  and  C_34
REMARK    6  A    between atoms: C_34  and  C_35
REMARK    7  A    between atoms: C_35  and  C_36
REMARK    8  A    between atoms: C_35  and  C_37
REMARK                            x       y       z     vdW  Elec       q    Type
REMARK                         _______ _______ _______ _____ _____    ______ ____
ROOT
ATOM      1  C   UNL     1       0.160  -4.531   0.066  0.00  0.00    +0.250 C 
ATOM      2  O   UNL     1       0.289  -5.231   1.052  0.00  0.00    -0.270 OA
ATOM      3  N   UNL     1       0.024  -5.098  -1.150  0.00  0.00    -0.296 N 
ATOM      4  C   UNL     1      -0.036  -4.420  -2.466  0.00  0.00    +0.121 C 
ATOM      5  C   UNL     1       0.779  -5.332  -3.412  0.00  0.00    +0.100 C 
ATOM      6  C   UNL     1       0.731  -6.721  -2.754  0.00  0.00    -0.004 C 
ATOM      7  C   UNL     1      -0.093  -6.540  -1.472  0.00  0.00    +0.115 C 
ATOM      8  C   UNL     1       2.141  -7.190  -2.406  0.00  0.00    -0.010 C 
ATOM      9  C   UNL     1       2.072  -8.597  -1.806  0.00  0.00    -0.082 C 
ATOM     10  N   UNL     1       1.456  -9.513  -2.773  0.00  0.00    +0.379 N 
ATOM     11  C   UNL     1       0.069  -9.109  -3.032  0.00  0.00    -0.082 C 
ATOM     12  C   UNL     1       0.052  -7.723  -3.683  0.00  0.00    -0.010 C 
ATOM     13  H   UNL     1       1.978  -9.491  -3.636  0.00  0.00    -0.086 HD
ATOM     14  H   UNL     1       1.467 -10.451  -2.400  0.00  0.00    -0.086 HD
ENDROOT
BRANCH   1  19
ATOM     15  C   UNL     1       0.126   1.202   0.583  0.00  0.00    +0.047 C 
ATOM     16  C   UNL     1       0.137  -0.299   0.449  0.00  0.00    -0.012 A 
ATOM     17  C   UNL     1      -0.641  -0.910  -0.520  0.00  0.00    +0.007 A 
ATOM     18  C   UNL     1      -0.637  -2.282  -0.649  0.00  0.00    +0.016 A 
ATOM     19  C   UNL     1       0.153  -3.060   0.200  0.00  0.00    +0.075 A 
ATOM     20  C   UNL     1       0.938  -2.441   1.176  0.00  0.00    +0.171 A 
ATOM     21  C   UNL     1       0.928  -1.060   1.292  0.00  0.00    +0.162 A 
ATOM     22  F   UNL     1       1.689  -0.456   2.231  0.00  0.00    -0.202 F 
ATOM     23  F   UNL     1       1.706  -3.185   2.002  0.00  0.00    -0.202 F 
ENDBRANCH   1  19
BRANCH   5  24
ATOM     24  C   UNL     1       2.201  -4.845  -3.513  0.00  0.00    +0.218 C 
ATOM     25  O   UNL     1       2.714  -4.272  -2.576  0.00  0.00    -0.275 OA
ATOM     26  N   UNL     1       2.903  -5.047  -4.646  0.00  0.00    -0.312 N 
ATOM     27  H   UNL     1       2.493  -5.506  -5.395  0.00  0.00    +0.149 HD
BRANCH  26  28
ATOM     28  C   UNL     1       4.286  -4.574  -4.744  0.00  0.00    +0.076 C 
ATOM     29  C   UNL     1       4.293  -3.105  -5.174  0.00  0.00    +0.041 C 
ATOM     30  C   UNL     1       5.739  -2.604  -5.242  0.00  0.00    +0.109 C 
ATOM     31  N   UNL     1       6.507  -3.494  -6.124  0.00  0.00    -0.301 N 
ATOM     32  C   UNL     1       6.494  -4.939  -5.854  0.00  0.00    +0.109 C 
ATOM     33  C   UNL     1       5.040  -5.413  -5.779  0.00  0.00    +0.041 C 
ATOM     34  C   UNL     1       7.209  -2.996  -7.161  0.00  0.00    +0.216 C 
ATOM     35  O   UNL     1       7.211  -1.802  -7.373  0.00  0.00    -0.276 OA
BRANCH  34  36
ATOM     36  C   UNL     1       7.991  -3.922  -8.056  0.00  0.00    +0.099 C 
BRANCH  36  37
ATOM     37  C   UNL     1       8.691  -3.107  -9.146  0.00  0.00    -0.008 C 
ATOM     38  C   UNL     1       9.584  -4.030  -9.978  0.00  0.00    +0.008 C 
ATOM     39  C   UNL     1       7.642  -2.459 -10.051  0.00  0.00    +0.008 C 
ENDBRANCH  36  37
ENDBRANCH  34  36
ENDBRANCH  26  28
ENDBRANCH   5  24
TORSDOF 5
