REMARK  Name = ZINC16033221
REMARK  8 active torsions:
REMARK  status: ('A' for Active; 'I' for Inactive)
REMARK    1  A    between atoms: C_1  and  O_2
REMARK    2  A    between atoms: O_2  and  C_3
REMARK    3  A    between atoms: C_3  and  C_4
REMARK    4  A    between atoms: C_4  and  C_5
REMARK    5  A    between atoms: C_5  and  N_6
REMARK    6  A    between atoms: C_26  and  C_28
REMARK    7  A    between atoms: C_28  and  C_30
REMARK    8  A    between atoms: C_28  and  O_37
REMARK                            x       y       z     vdW  Elec       q    Type
REMARK                         _______ _______ _______ _____ _____    ______ ____
ROOT
ATOM      1  N   UNL     1      -0.097   2.441  -3.965  0.00  0.00    -0.241 N 
ATOM      2  C   UNL     1       0.737   2.894  -2.973  0.00  0.00    +0.227 C 
ATOM      3  O   UNL     1       0.892   4.037  -2.600  0.00  0.00    -0.275 OA
ATOM      4  C   UNL     1       1.389   1.706  -2.473  0.00  0.00    +0.110 C 
ATOM      5  C   UNL     1       0.214   0.648  -2.578  0.00  0.00    +0.123 C 
ATOM      6  C   UNL     1      -0.258   1.084  -3.939  0.00  0.00    +0.228 C 
ATOM      7  O   UNL     1      -0.691   0.380  -4.826  0.00  0.00    -0.275 OA
ATOM      8  C   UNL     1       1.063  -0.601  -2.410  0.00  0.00    +0.136 C 
ATOM      9  C   UNL     1       0.270  -1.763  -1.882  0.00  0.00    +0.003 A 
ATOM     10  C   UNL     1      -0.484  -1.957  -0.747  0.00  0.00    +0.008 A 
ATOM     11  C   UNL     1      -1.112  -3.171  -0.532  0.00  0.00    +0.000 A 
ATOM     12  C   UNL     1      -0.981  -4.188  -1.461  0.00  0.00    +0.002 A 
ATOM     13  C   UNL     1      -0.228  -3.997  -2.600  0.00  0.00    +0.023 A 
ATOM     14  C   UNL     1       0.407  -2.777  -2.825  0.00  0.00    +0.039 A 
ATOM     15  N   UNL     1       1.210  -2.348  -3.884  0.00  0.00    -0.283 N 
ATOM     16  C   UNL     1       1.633  -1.080  -3.718  0.00  0.00    +0.243 C 
ATOM     17  O   UNL     1       2.337  -0.448  -4.476  0.00  0.00    -0.273 OA
ATOM     18  N   UNL     1       2.164  -0.246  -1.492  0.00  0.00    -0.293 NA
ATOM     19  C   UNL     1       2.094   1.241  -1.261  0.00  0.00    +0.101 C 
ATOM     20  H   UNL     1       1.425  -3.028  -4.721  0.00  0.00    +0.155 HD
ATOM     21  H   UNL     1       2.039  -0.790  -0.543  0.00  0.00    +0.124 HD
ENDROOT
BRANCH   1  22
ATOM     22  C   UNL     1      -0.744   3.317  -4.945  0.00  0.00    +0.118 C 
BRANCH  22  23
ATOM     23  C   UNL     1      -2.100   3.773  -4.404  0.00  0.00    +0.047 C 
BRANCH  23  24
ATOM     24  C   UNL     1      -2.776   4.688  -5.427  0.00  0.00    +0.161 C 
BRANCH  24  26
ATOM     25  C   UNL     1      -4.761   5.978  -5.806  0.00  0.00    +0.193 C 
ATOM     26  O   UNL     1      -4.043   5.114  -4.922  0.00  0.00    -0.383 OA
ENDBRANCH  24  26
ENDBRANCH  23  24
ENDBRANCH  22  23
ENDBRANCH   1  22
BRANCH  19  27
ATOM     27  C   UNL     1       1.286   1.562  -0.002  0.00  0.00    +0.162 C 
BRANCH  27  28
ATOM     28  C   UNL     1       1.216   3.056   0.183  0.00  0.00    -0.018 A 
ATOM     29  C   UNL     1       2.283   3.734   0.742  0.00  0.00    +0.007 A 
ATOM     30  C   UNL     1       2.221   5.105   0.906  0.00  0.00    +0.020 A 
ATOM     31  C   UNL     1       1.087   5.797   0.521  0.00  0.00    +0.041 A 
ATOM     32  C   UNL     1       0.017   5.117  -0.033  0.00  0.00    +0.020 A 
ATOM     33  C   UNL     1       0.082   3.747  -0.202  0.00  0.00    +0.007 A 
ATOM     34 CL   UNL     1       1.006   7.518   0.734  0.00  0.00    -0.084 Cl
ENDBRANCH  27  28
BRANCH  27  35
ATOM     35  O   UNL     1       1.921   0.971   1.134  0.00  0.00    -0.386 OA
ATOM     36  H   UNL     1       1.482   1.095   2.135  0.00  0.00    +0.210 HD
ENDBRANCH  27  35
ENDBRANCH  19  27
TORSDOF 7
