REMARK  Name = ZINC13346757
REMARK  7 active torsions:
REMARK  status: ('A' for Active; 'I' for Inactive)
REMARK    1  A    between atoms: C_1  and  N_2
REMARK    2  A    between atoms: C_3  and  C_20
REMARK    3  A    between atoms: C_6  and  S_7
REMARK    4  A    between atoms: S_7  and  C_8
REMARK    5  A    between atoms: C_8  and  C_9
REMARK    6  A    between atoms: N_11  and  C_12
REMARK    7  A    between atoms: C_15  and  C_18
REMARK                            x       y       z     vdW  Elec       q    Type
REMARK                         _______ _______ _______ _____ _____    ______ ____
ROOT
ATOM      1  C   UNL     1       2.286  -0.422   1.321  0.00  0.00    +0.153 C 
ATOM      2  N   UNL     1       0.993  -0.832   0.767  0.00  0.00    -0.306 N 
ATOM      3  C   UNL     1      -0.044  -0.018   0.402  0.00  0.00    +0.178 A 
ATOM      4  N   UNL     1      -0.999  -0.783  -0.045  0.00  0.00    -0.130 NA
ATOM      5  N   UNL     1      -0.641  -2.016   0.015  0.00  0.00    -0.122 NA
ATOM      6  C   UNL     1       0.572  -2.105   0.509  0.00  0.00    +0.192 A 
ENDROOT
BRANCH   3   7
ATOM      7  C   UNL     1      -0.074   1.486   0.495  0.00  0.00    +0.278 C 
ATOM      8  C   UNL     1      -0.973   1.914   1.663  0.00  0.00    +0.281 C 
ATOM      9  O   UNL     1      -0.990   3.345   1.714  0.00  0.00    -0.484 OA
ATOM     10  C   UNL     1      -1.176   3.997   0.533  0.00  0.00    +0.162 A 
ATOM     11  C   UNL     1      -1.560   5.330   0.545  0.00  0.00    +0.049 A 
ATOM     12  C   UNL     1      -1.750   6.005  -0.645  0.00  0.00    +0.004 A 
ATOM     13  C   UNL     1      -1.559   5.355  -1.851  0.00  0.00    +0.004 A 
ATOM     14  C   UNL     1      -1.177   4.027  -1.869  0.00  0.00    +0.049 A 
ATOM     15  C   UNL     1      -0.986   3.343  -0.678  0.00  0.00    +0.163 A 
ATOM     16  O   UNL     1      -0.616   2.033  -0.712  0.00  0.00    -0.474 OA
ENDBRANCH   3   7
BRANCH   6  17
ATOM     17  S   UNL     1       1.487  -3.586   0.782  0.00  0.00    -0.077 S 
BRANCH  17  18
ATOM     18  C   UNL     1       0.286  -4.809   0.200  0.00  0.00    +0.173 C 
BRANCH  18  19
ATOM     19  C   UNL     1       0.868  -6.191   0.342  0.00  0.00    +0.227 C 
ATOM     20  O   UNL     1       1.985  -6.336   0.793  0.00  0.00    -0.275 OA
ATOM     21  N   UNL     1       0.147  -7.268  -0.031  0.00  0.00    -0.285 N 
ATOM     22  H   UNL     1      -0.772  -7.159  -0.319  0.00  0.00    +0.155 HD
BRANCH  21  23
ATOM     23  C   UNL     1       0.724  -8.536  -0.003  0.00  0.00    +0.033 A 
ATOM     24  C   UNL     1       2.078  -8.690  -0.288  0.00  0.00    +0.024 A 
ATOM     25  C   UNL     1       2.651  -9.941  -0.256  0.00  0.00    +0.017 A 
ATOM     26  C   UNL     1       1.871 -11.059   0.052  0.00  0.00    +0.063 A 
ATOM     27  C   UNL     1       0.510 -10.901   0.332  0.00  0.00    +0.017 A 
ATOM     28  C   UNL     1      -0.056  -9.647   0.304  0.00  0.00    +0.024 A 
BRANCH  26  29
ATOM     29  C   UNL     1       2.480 -12.401   0.080  0.00  0.00    +0.387 C 
ATOM     30  O   UNL     1       1.800 -13.372   0.347  0.00  0.00    -0.241 OA
ATOM     31  O   UNL     1       3.792 -12.551  -0.190  0.00  0.00    -0.241 OA
ENDBRANCH  26  29
ENDBRANCH  21  23
ENDBRANCH  18  19
ENDBRANCH  17  18
ENDBRANCH   6  17
TORSDOF 6
