REMARK  Name = ZINC13464758
REMARK  5 active torsions:
REMARK  status: ('A' for Active; 'I' for Inactive)
REMARK    1  A    between atoms: C_3  and  S_10
REMARK    2  A    between atoms: C_6  and  N_7
REMARK    3  A    between atoms: S_10  and  N_13
REMARK    4  A    between atoms: N_13  and  C_14
REMARK    5  A    between atoms: C_19  and  C_20
REMARK                            x       y       z     vdW  Elec       q    Type
REMARK                         _______ _______ _______ _____ _____    ______ ____
ROOT
ATOM      1  S   UNL     1       1.410   1.808  -0.108  0.00  0.00    +0.072 S 
ATOM      2  O   UNL     1       2.458   0.860   0.047  0.00  0.00    -0.150 OA
ATOM      3  O   UNL     1       1.298   2.638  -1.256  0.00  0.00    -0.150 OA
ENDROOT
BRANCH   1   6
ATOM      4  C   UNL     1       2.149   3.294   3.551  0.00  0.00    +0.034 A 
ATOM      5  C   UNL     1       2.084   2.450   2.458  0.00  0.00    +0.031 A 
ATOM      6  C   UNL     1       1.494   2.883   1.285  0.00  0.00    +0.109 A 
ATOM      7  C   UNL     1       0.974   4.161   1.204  0.00  0.00    +0.031 A 
ATOM      8  C   UNL     1       1.036   5.003   2.298  0.00  0.00    +0.034 A 
ATOM      9  C   UNL     1       1.625   4.570   3.471  0.00  0.00    +0.126 A 
BRANCH   9  10
ATOM     10  N   UNL     1       1.695   5.474   4.642  0.00  0.00    +0.056 N 
ATOM     11  O   UNL     1       2.215   5.092   5.675  0.00  0.00    -0.126 OA
ATOM     12  O   UNL     1       1.234   6.599   4.571  0.00  0.00    -0.126 OA
ENDBRANCH   9  10
ENDBRANCH   1   6
BRANCH   1  13
ATOM     13  N   UNL     1      -0.011   0.966   0.007  0.00  0.00    -0.215 N 
ATOM     14  H   UNL     1       0.002  -0.002   0.068  0.00  0.00    +0.174 HD
BRANCH  13  15
ATOM     15  C   UNL     1      -1.222   1.645   0.012  0.00  0.00    +0.062 A 
ATOM     16  C   UNL     1      -1.385   2.788  -0.761  0.00  0.00    +0.026 A 
ATOM     17  C   UNL     1      -2.589   3.462  -0.755  0.00  0.00    +0.016 A 
ATOM     18  C   UNL     1      -3.644   3.006   0.020  0.00  0.00    +0.014 A 
ATOM     19  C   UNL     1      -3.502   1.875   0.794  0.00  0.00    +0.031 A 
ATOM     20  C   UNL     1      -2.290   1.178   0.794  0.00  0.00    +0.086 A 
ATOM     21  I   UNL     1      -5.465   4.042   0.015  0.00  0.00    -0.044 I 
BRANCH  20  22
ATOM     22  C   UNL     1      -2.133  -0.036   1.614  0.00  0.00    +0.388 C 
ATOM     23  O   UNL     1      -1.077  -0.636   1.615  0.00  0.00    -0.241 OA
ATOM     24  O   UNL     1      -3.162  -0.481   2.363  0.00  0.00    -0.241 OA
ENDBRANCH  20  22
ENDBRANCH  13  15
ENDBRANCH   1  13
TORSDOF 5
