REMARK  Name = ZINC44411022
REMARK  10 active torsions:
REMARK  status: ('A' for Active; 'I' for Inactive)
REMARK    1  A    between atoms: C_1  and  C_2
REMARK    2  A    between atoms: C_4  and  O_29
REMARK    3  A    between atoms: C_5  and  C_24
REMARK    4  A    between atoms: C_12  and  C_23
REMARK    5  A    between atoms: C_13  and  O_21
REMARK    6  A    between atoms: C_15  and  C_18
REMARK    7  A    between atoms: O_21  and  C_22
REMARK    8  A    between atoms: C_24  and  C_25
REMARK    9  A    between atoms: C_25  and  C_27
REMARK   10  A    between atoms: C_25  and  N_28
REMARK                            x       y       z     vdW  Elec       q    Type
REMARK                         _______ _______ _______ _____ _____    ______ ____
ROOT
ATOM      1  C   UNL     1       0.210   1.354  -0.532  0.00  0.00    +0.045 C 
ATOM      2  C   UNL     1       0.228  -0.151  -0.461  0.00  0.00    -0.029 A 
ATOM      3  C   UNL     1       0.134  -0.902  -1.613  0.00  0.00    +0.050 A 
ATOM      4  C   UNL     1       0.149  -2.292  -1.548  0.00  0.00    +0.124 A 
ATOM      5  C   UNL     1       0.222  -2.939  -0.321  0.00  0.00    +0.035 A 
ATOM      6  C   UNL     1       0.287  -2.196   0.841  0.00  0.00    +0.149 A 
ATOM      7  C   UNL     1       0.346  -0.794   0.769  0.00  0.00    +0.105 A 
ATOM      8  C   UNL     1       0.594  -0.044   2.011  0.00  0.00    +0.348 C 
ATOM      9  O   UNL     1      -0.203   0.783   2.408  0.00  0.00    -0.244 OA
ATOM     10  O   UNL     1       1.720  -0.293   2.695  0.00  0.00    -0.418 OA
ATOM     11  C   UNL     1       1.982  -1.509   3.242  0.00  0.00    +0.181 A 
ATOM     12  C   UNL     1       3.007  -1.536   4.188  0.00  0.00    +0.037 A 
ATOM     13  C   UNL     1       3.383  -2.717   4.807  0.00  0.00    +0.127 A 
ATOM     14  C   UNL     1       2.736  -3.896   4.489  0.00  0.00    +0.065 A 
ATOM     15  C   UNL     1       1.705  -3.884   3.550  0.00  0.00    +0.112 A 
ATOM     16  C   UNL     1       1.317  -2.678   2.925  0.00  0.00    +0.185 A 
ATOM     17  O   UNL     1       0.271  -2.769   2.061  0.00  0.00    -0.450 OA
ATOM     18  C   UNL     1       3.721  -0.257   4.541  0.00  0.00    +0.051 C 
ENDROOT
BRANCH  15  19
ATOM     19  C   UNL     1       1.015  -5.138   3.208  0.00  0.00    +0.390 C 
ATOM     20  O   UNL     1      -0.206  -5.164   3.136  0.00  0.00    -0.240 OA
ATOM     21  O   UNL     1       1.662  -6.154   2.995  0.00  0.00    -0.240 OA
ENDBRANCH  15  19
BRANCH  13  22
ATOM     22  O   UNL     1       4.385  -2.716   5.725  0.00  0.00    -0.495 OA
ATOM     23  C   UNL     1       4.719  -3.970   6.323  0.00  0.00    +0.277 C 
ENDBRANCH  13  22
BRANCH   4  24
ATOM     24  O   UNL     1       0.092  -3.020  -2.692  0.00  0.00    -0.506 OA
ATOM     25  H   UNL     1       0.957  -3.224  -3.072  0.00  0.00    +0.292 HD
ENDBRANCH   4  24
BRANCH   5  26
ATOM     26  C   UNL     1       0.228  -4.444  -0.258  0.00  0.00    +0.026 C 
BRANCH  26  27
ATOM     27  C   UNL     1       1.673  -4.947  -0.220  0.00  0.00    -0.074 C 
ATOM     28  C   UNL     1       1.681  -6.465  -0.031  0.00  0.00    -0.014 C 
BRANCH  27  29
ATOM     29  N   UNL     1       2.343  -4.607  -1.482  0.00  0.00    +0.380 N 
ATOM     30  H   UNL     1       3.296  -4.938  -1.457  0.00  0.00    -0.090 HD
ATOM     31  H   UNL     1       1.855  -5.044  -2.250  0.00  0.00    -0.090 HD
ATOM     32  H   UNL     1       2.338  -3.606  -1.607  0.00  0.00    -0.090 HD
ENDBRANCH  27  29
ENDBRANCH  26  27
ENDBRANCH   5  26
TORSDOF 6
