REMARK  Name = ZINC63625835
REMARK  5 active torsions:
REMARK  status: ('A' for Active; 'I' for Inactive)
REMARK    1  A    between atoms: C_4  and  C_7
REMARK    2  A    between atoms: C_14  and  N_18
REMARK    3  A    between atoms: C_19  and  C_21
REMARK    4  A    between atoms: C_21  and  S_22
REMARK    5  A    between atoms: S_22  and  C_23
REMARK                            x       y       z     vdW  Elec       q    Type
REMARK                         _______ _______ _______ _____ _____    ______ ____
ROOT
ATOM      1  N   UNL     1       3.647  -4.766   1.370  0.00  0.00    -0.286 N 
ATOM      2  C   UNL     1       4.151  -4.661   2.615  0.00  0.00    +0.227 C 
ATOM      3  O   UNL     1       5.181  -4.048   2.803  0.00  0.00    -0.275 OA
ATOM      4  H   UNL     1       2.789  -5.196   1.229  0.00  0.00    +0.155 HD
ENDROOT
BRANCH   1  11
ATOM      5  C   UNL     1       3.810  -0.679   0.054  0.00  0.00    +0.103 C 
ATOM      6  C   UNL     1       4.082  -1.196  -1.382  0.00  0.00    +0.130 C 
ATOM      7  N   UNL     1       4.846  -2.429  -1.184  0.00  0.00    -0.314 N 
ATOM      8  C   UNL     1       5.511  -3.215  -2.115  0.00  0.00    +0.072 C 
ATOM      9  C   UNL     1       5.457  -4.548  -1.889  0.00  0.00    +0.017 C 
ATOM     10  C   UNL     1       4.703  -5.055  -0.736  0.00  0.00    +0.023 C 
ATOM     11  C   UNL     1       4.357  -4.258   0.286  0.00  0.00    +0.046 C 
ATOM     12  C   UNL     1       4.750  -2.802   0.243  0.00  0.00    +0.187 C 
ATOM     13  N   UNL     1       3.705  -1.944   0.838  0.00  0.00    -0.285 NA
ATOM     14  H   UNL     1       3.884  -1.778   1.817  0.00  0.00    +0.125 HD
BRANCH   5  18
ATOM     15  C   UNL     1       0.146   1.512   0.207  0.00  0.00    +0.000 A 
ATOM     16  C   UNL     1       1.354   2.185   0.197  0.00  0.00    +0.000 A 
ATOM     17  C   UNL     1       2.539   1.475   0.147  0.00  0.00    +0.005 A 
ATOM     18  C   UNL     1       2.517   0.094   0.109  0.00  0.00    -0.029 A 
ATOM     19  C   UNL     1       1.310  -0.579   0.120  0.00  0.00    +0.005 A 
ATOM     20  C   UNL     1       0.124   0.131   0.168  0.00  0.00    +0.000 A 
ENDBRANCH   5  18
ENDBRANCH   1  11
BRANCH   2  21
ATOM     21  C   UNL     1       3.436  -5.306   3.775  0.00  0.00    +0.169 C 
BRANCH  21  22
ATOM     22  S   UNL     1       4.356  -4.988   5.305  0.00  0.00    -0.106 S 
BRANCH  22  23
ATOM     23  C   UNL     1       3.377  -5.819   6.587  0.00  0.00    +0.236 C 
ATOM     24  N   UNL     1       3.217  -7.241   6.257  0.00  0.00    -0.355 N 
ATOM     25  C   UNL     1       1.943  -7.471   6.129  0.00  0.00    +0.061 A 
ATOM     26  C   UNL     1       1.174  -8.682   5.810  0.00  0.00    +0.027 A 
ATOM     27  C   UNL     1      -0.171  -8.618   5.745  0.00  0.00    +0.002 A 
ATOM     28  C   UNL     1      -0.885  -7.428   5.971  0.00  0.00    +0.002 A 
ATOM     29  C   UNL     1      -0.278  -6.262   6.270  0.00  0.00    +0.027 A 
ATOM     30  C   UNL     1       1.187  -6.211   6.368  0.00  0.00    +0.061 A 
ATOM     31  N   UNL     1       2.024  -5.250   6.634  0.00  0.00    -0.355 N 
ATOM     32  H   UNL     1       3.931  -7.889   6.153  0.00  0.00    +0.162 HD
ATOM     33  H   UNL     1       1.795  -4.328   6.829  0.00  0.00    +0.162 HD
ENDBRANCH  22  23
ENDBRANCH  21  22
ENDBRANCH   2  21
TORSDOF 5
