REMARK  Name = ZINC38508888
REMARK  14 active torsions:
REMARK  status: ('A' for Active; 'I' for Inactive)
REMARK    1  A    between atoms: C_1  and  C_2
REMARK    2  A    between atoms: C_2  and  O_3
REMARK    3  A    between atoms: O_3  and  C_4
REMARK    4  A    between atoms: C_4  and  C_6
REMARK    5  A    between atoms: C_10  and  N_11
REMARK    6  A    between atoms: C_12  and  C_14
REMARK    7  A    between atoms: C_16  and  C_22
REMARK    8  A    between atoms: N_17  and  C_19
REMARK    9  A    between atoms: C_19  and  C_20
REMARK   10  A    between atoms: C_19  and  C_21
REMARK   11  A    between atoms: C_23  and  C_29
REMARK   12  A    between atoms: C_23  and  C_30
REMARK   13  A    between atoms: C_25  and  C_27
REMARK   14  A    between atoms: C_25  and  C_28
REMARK                            x       y       z     vdW  Elec       q    Type
REMARK                         _______ _______ _______ _____ _____    ______ ____
ROOT
ATOM      1  C   UNL     1       1.449  -2.344  -2.516  0.00  0.00    +0.091 A 
ATOM      2  C   UNL     1       2.869  -2.617  -2.532  0.00  0.00    -0.024 A 
ATOM      3  C   UNL     1       3.335  -3.111  -3.702  0.00  0.00    -0.016 A 
ATOM      4  S   UNL     1       1.905  -3.214  -4.737  0.00  0.00    -0.079 S 
ATOM      5  C   UNL     1       0.742  -2.622  -3.680  0.00  0.00    +0.087 A 
ATOM      6  C   UNL     1       4.750  -3.468  -4.013  0.00  0.00    -0.041 C 
ATOM      7  N   UNL     1       5.611  -3.391  -2.834  0.00  0.00    +0.389 N 
ATOM      8  C   UNL     1       4.951  -3.467  -1.538  0.00  0.00    -0.069 C 
ATOM      9  C   UNL     1       3.850  -2.410  -1.389  0.00  0.00    +0.024 C 
ATOM     10  C   UNL     1       6.003  -3.209  -0.442  0.00  0.00    -0.010 C 
ATOM     11  C   UNL     1       4.358  -4.857  -1.299  0.00  0.00    -0.010 C 
ATOM     12  C   UNL     1       4.802  -4.877  -4.620  0.00  0.00    -0.005 C 
ATOM     13  C   UNL     1       5.276  -2.478  -5.072  0.00  0.00    -0.005 C 
ATOM     14  H   UNL     1       6.306  -4.138  -2.889  0.00  0.00    -0.084 HD
ATOM     15  H   UNL     1       6.141  -2.518  -2.876  0.00  0.00    -0.084 HD
ENDROOT
BRANCH   5  16
ATOM     16  N   UNL     1      -0.613  -2.450  -3.913  0.00  0.00    -0.274 N 
ATOM     17  C   UNL     1      -1.137  -2.774  -5.112  0.00  0.00    +0.269 C 
ATOM     18  O   UNL     1      -0.421  -3.218  -5.988  0.00  0.00    -0.268 OA
ATOM     19  H   UNL     1      -1.184  -2.095  -3.214  0.00  0.00    +0.156 HD
BRANCH  17  20
ATOM     20  C   UNL     1      -2.581  -2.590  -5.360  0.00  0.00    +0.148 A 
ATOM     21  C   UNL     1      -3.274  -2.889  -6.557  0.00  0.00    +0.057 A 
ATOM     22  C   UNL     1      -4.565  -2.559  -6.319  0.00  0.00    +0.037 A 
ATOM     23  N   UNL     1      -4.632  -2.093  -5.054  0.00  0.00    -0.265 N 
ATOM     24  N   UNL     1      -3.470  -2.123  -4.507  0.00  0.00    -0.166 NA
ATOM     25  C   UNL     1      -5.714  -2.689  -7.286  0.00  0.00    +0.065 C 
BRANCH  23  26
ATOM     26  C   UNL     1      -5.856  -1.625  -4.397  0.00  0.00    +0.101 C 
ATOM     27  C   UNL     1      -6.125  -2.477  -3.155  0.00  0.00    +0.032 C 
ATOM     28  C   UNL     1      -5.686  -0.162  -3.985  0.00  0.00    +0.032 C 
ENDBRANCH  23  26
ENDBRANCH  17  20
ENDBRANCH   5  16
BRANCH   1  29
ATOM     29  C   UNL     1       0.776  -1.800  -1.335  0.00  0.00    +0.342 C 
ATOM     30  O   UNL     1       0.312  -2.552  -0.499  0.00  0.00    -0.245 OA
BRANCH  29  31
ATOM     31  O   UNL     1       0.671  -0.465  -1.174  0.00  0.00    -0.461 OA
BRANCH  31  33
ATOM     32  C   UNL     1      -0.019   1.526   0.010  0.00  0.00    +0.048 C 
ATOM     33  C   UNL     1       0.002  -0.004   0.002  0.00  0.00    +0.229 C 
ENDBRANCH  31  33
ENDBRANCH  29  31
ENDBRANCH   1  29
TORSDOF 6
