REMARK  Name = ZINC06516673
REMARK  7 active torsions:
REMARK  status: ('A' for Active; 'I' for Inactive)
REMARK    1  A    between atoms: C_1  and  C_2
REMARK    2  A    between atoms: C_2  and  C_4
REMARK    3  A    between atoms: C_2  and  N_14
REMARK    4  A    between atoms: C_15  and  C_17
REMARK    5  A    between atoms: C_17  and  S_18
REMARK    6  A    between atoms: S_18  and  C_19
REMARK    7  A    between atoms: C_25  and  N_27
REMARK                            x       y       z     vdW  Elec       q    Type
REMARK                         _______ _______ _______ _____ _____    ______ ____
ROOT
ATOM      1  N   UNL     1       0.688  -0.476  -1.203  0.00  0.00    -0.312 N 
ATOM      2  C   UNL     1       0.006  -0.608  -2.358  0.00  0.00    +0.224 C 
ATOM      3  O   UNL     1      -1.175  -0.336  -2.400  0.00  0.00    -0.275 OA
ATOM      4  H   UNL     1       1.632  -0.695  -1.170  0.00  0.00    +0.149 HD
ENDROOT
BRANCH   1   6
ATOM      5  C   UNL     1      -0.019   1.526   0.010  0.00  0.00    +0.028 C 
ATOM      6  C   UNL     1       0.002  -0.004   0.002  0.00  0.00    +0.076 C 
BRANCH   6   7
ATOM      7  C   UNL     1       0.742  -0.511   1.242  0.00  0.00    -0.010 C 
ATOM      8  C   UNL     1       0.763  -2.041   1.233  0.00  0.00    +0.012 C 
ATOM      9  C   UNL     1       1.503  -2.548   2.473  0.00  0.00    -0.010 C 
ATOM     10  C   UNL     1       0.787  -2.054   3.732  0.00  0.00    +0.007 C 
ATOM     11  C   UNL     1       0.766  -0.524   3.740  0.00  0.00    -0.010 C 
ATOM     12  C   UNL     1       0.026  -0.018   2.500  0.00  0.00    +0.012 C 
ATOM     13  C   UNL     1       2.201   0.005   3.729  0.00  0.00    +0.007 C 
ATOM     14  C   UNL     1       2.917  -0.488   2.470  0.00  0.00    -0.010 C 
ATOM     15  C   UNL     1       2.938  -2.018   2.462  0.00  0.00    +0.007 C 
ATOM     16  C   UNL     1       2.178   0.019   1.231  0.00  0.00    +0.012 C 
ENDBRANCH   6   7
ENDBRANCH   1   6
BRANCH   2  17
ATOM     17  C   UNL     1       0.712  -1.094  -3.598  0.00  0.00    +0.173 C 
BRANCH  17  18
ATOM     18  S   UNL     1      -0.466  -1.164  -4.976  0.00  0.00    -0.078 S 
BRANCH  18  19
ATOM     19  C   UNL     1       0.498  -1.742  -6.333  0.00  0.00    +0.171 A 
ATOM     20  N   UNL     1      -0.092  -1.905  -7.550  0.00  0.00    -0.302 N 
ATOM     21  H   UNL     1      -1.034  -1.703  -7.662  0.00  0.00    +0.171 HD
ATOM     22  C   UNL     1       0.631  -2.347  -8.600  0.00  0.00    +0.254 A 
ATOM     23  O   UNL     1       0.110  -2.495  -9.694  0.00  0.00    -0.268 OA
ATOM     24  C   UNL     1       1.988  -2.631  -8.414  0.00  0.00    +0.113 A 
ATOM     25  C   UNL     1       2.541  -2.447  -7.154  0.00  0.00    +0.124 A 
ATOM     26  N   UNL     1       1.777  -2.002  -6.151  0.00  0.00    -0.209 NA
BRANCH  25  27
ATOM     27  N   UNL     1       3.878  -2.719  -6.939  0.00  0.00    -0.343 N 
ATOM     28  H   UNL     1       4.431  -3.038  -7.668  0.00  0.00    +0.144 HD
ATOM     29  H   UNL     1       4.263  -2.591  -6.058  0.00  0.00    +0.144 HD
ENDBRANCH  25  27
ENDBRANCH  18  19
ENDBRANCH  17  18
ENDBRANCH   2  17
TORSDOF 6
