REMARK  Name = ZINC01049903
REMARK  5 active torsions:
REMARK  status: ('A' for Active; 'I' for Inactive)
REMARK    1  A    between atoms: C_1  and  C_2
REMARK    2  A    between atoms: C_2  and  C_4
REMARK    3  A    between atoms: C_2  and  N_10
REMARK    4  A    between atoms: C_11  and  C_13
REMARK    5  A    between atoms: C_13  and  C_14
REMARK                            x       y       z     vdW  Elec       q    Type
REMARK                         _______ _______ _______ _____ _____    ______ ____
ROOT
ATOM      1  C   UNL     1      -0.191  -1.204   4.756  0.00  0.00    +0.166 C 
ATOM      2  C   UNL     1       0.543  -1.637   6.000  0.00  0.00    +0.238 C 
ATOM      3  O   UNL     1       0.609  -0.910   6.969  0.00  0.00    -0.273 OA
ATOM      4  N   UNL     1       1.121  -2.843   6.007  0.00  0.00    -0.283 N 
ATOM      5  C   UNL     1       1.177  -3.808   5.025  0.00  0.00    +0.043 A 
ATOM      6  C   UNL     1       2.378  -4.516   4.984  0.00  0.00    +0.024 A 
ATOM      7  C   UNL     1       2.548  -5.622   4.170  0.00  0.00    +0.002 A 
ATOM      8  C   UNL     1       1.523  -6.070   3.397  0.00  0.00    +0.009 A 
ATOM      9  C   UNL     1       0.297  -5.382   3.398  0.00  0.00    -0.014 A 
ATOM     10  C   UNL     1       0.151  -4.176   4.141  0.00  0.00    +0.024 A 
ATOM     11  C   UNL     1      -1.031  -3.426   3.929  0.00  0.00    +0.037 A 
ATOM     12  C   UNL     1      -2.046  -3.943   3.144  0.00  0.00    +0.023 A 
ATOM     13  C   UNL     1      -1.921  -5.172   2.513  0.00  0.00    +0.002 A 
ATOM     14  C   UNL     1      -0.769  -5.885   2.634  0.00  0.00    +0.009 A 
ATOM     15  N   UNL     1      -1.213  -2.195   4.495  0.00  0.00    -0.332 N 
ATOM     16  H   UNL     1       1.572  -3.076   6.834  0.00  0.00    +0.155 HD
ATOM     17  H   UNL     1      -2.120  -1.962   4.747  0.00  0.00    +0.147 HD
ENDROOT
BRANCH   1  18
ATOM     18  C   UNL     1       0.780  -1.133   3.576  0.00  0.00    +0.127 C 
BRANCH  18  20
ATOM     19  N   UNL     1       0.711  -0.489   1.189  0.00  0.00    -0.309 N 
ATOM     20  C   UNL     1       0.051  -0.633   2.355  0.00  0.00    +0.216 C 
ATOM     21  O   UNL     1      -1.129  -0.361   2.423  0.00  0.00    -0.276 OA
ATOM     22  H   UNL     1       1.654  -0.707   1.135  0.00  0.00    +0.149 HD
BRANCH  19  24
ATOM     23  C   UNL     1      -0.019   1.526   0.010  0.00  0.00    +0.033 C 
ATOM     24  C   UNL     1       0.002  -0.004   0.002  0.00  0.00    +0.100 C 
BRANCH  24  25
ATOM     25  C   UNL     1       0.707  -0.490  -1.238  0.00  0.00    -0.027 A 
ATOM     26  C   UNL     1       2.089  -0.500  -1.288  0.00  0.00    +0.005 A 
ATOM     27  C   UNL     1       2.736  -0.950  -2.424  0.00  0.00    +0.000 A 
ATOM     28  C   UNL     1       2.002  -1.381  -3.513  0.00  0.00    +0.000 A 
ATOM     29  C   UNL     1       0.620  -1.366  -3.464  0.00  0.00    +0.000 A 
ATOM     30  C   UNL     1      -0.027  -0.920  -2.327  0.00  0.00    +0.005 A 
ENDBRANCH  24  25
ENDBRANCH  19  24
ENDBRANCH  18  20
ENDBRANCH   1  18
TORSDOF 4
