REMARK  Name = ZINC01873474
REMARK  13 active torsions:
REMARK  status: ('A' for Active; 'I' for Inactive)
REMARK    1  A    between atoms: C_1  and  C_2
REMARK    2  A    between atoms: C_2  and  O_3
REMARK    3  A    between atoms: O_3  and  C_4
REMARK    4  A    between atoms: C_4  and  C_6
REMARK    5  A    between atoms: C_7  and  C_39
REMARK    6  A    between atoms: C_8  and  C_34
REMARK    7  A    between atoms: C_10  and  N_11
REMARK    8  A    between atoms: C_12  and  C_14
REMARK    9  A    between atoms: C_19  and  C_30
REMARK   10  A    between atoms: C_22  and  C_25
REMARK   11  A    between atoms: C_34  and  O_36
REMARK   12  A    between atoms: O_36  and  C_37
REMARK   13  A    between atoms: C_37  and  C_38
REMARK                            x       y       z     vdW  Elec       q    Type
REMARK                         _______ _______ _______ _____ _____    ______ ____
ROOT
ATOM      1  N   UNL     1       3.163  -2.062  -0.035  0.00  0.00    -0.274 N 
ATOM      2  C   UNL     1       1.839  -1.808  -0.022  0.00  0.00    +0.269 C 
ATOM      3  O   UNL     1       1.044  -2.727  -0.021  0.00  0.00    -0.268 OA
ATOM      4  H   UNL     1       3.797  -1.328  -0.036  0.00  0.00    +0.156 HD
ENDROOT
BRANCH   2   5
ATOM      5  C   UNL     1       1.355  -0.413  -0.011  0.00  0.00    +0.149 A 
ATOM      6  C   UNL     1       0.002  -0.004   0.002  0.00  0.00    +0.078 A 
ATOM      7  C   UNL     1      -0.016   1.343   0.009  0.00  0.00    +0.119 A 
ATOM      8  N   UNL     1       1.276   1.786  -0.001  0.00  0.00    -0.238 N 
ATOM      9  N   UNL     1       2.112   0.671  -0.012  0.00  0.00    -0.164 NA
ATOM     10  C   UNL     1       1.650   3.204  -0.001  0.00  0.00    +0.215 C 
ATOM     11  C   UNL     1       0.448   4.033  -0.469  0.00  0.00    +0.063 C 
ATOM     12  C   UNL     1      -0.803   3.630   0.320  0.00  0.00    +0.111 C 
ATOM     13  N   UNL     1      -1.108   2.216   0.030  0.00  0.00    -0.322 N 
ATOM     14  H   UNL     1      -2.013   1.911  -0.139  0.00  0.00    +0.148 HD
BRANCH  12  15
ATOM     15  C   UNL     1      -0.546   3.797   1.796  0.00  0.00    +0.010 A 
ATOM     16  C   UNL     1      -0.912   4.812   2.616  0.00  0.00    +0.013 A 
ATOM     17  C   UNL     1      -0.567   4.751   3.953  0.00  0.00    +0.008 A 
ATOM     18  C   UNL     1       0.136   3.682   4.402  0.00  0.00    +0.045 A 
ATOM     19  S   UNL     1       0.325   2.713   2.915  0.00  0.00    -0.100 S 
ENDBRANCH  12  15
BRANCH  10  20
ATOM     20  C   UNL     1       2.828   3.423  -0.952  0.00  0.00    +0.412 C 
ATOM     21  F   UNL     1       2.461   3.038  -2.246  0.00  0.00    -0.168 F 
ATOM     22  F   UNL     1       3.183   4.776  -0.950  0.00  0.00    -0.168 F 
ATOM     23  F   UNL     1       3.918   2.655  -0.528  0.00  0.00    -0.168 F 
ENDBRANCH  10  20
ENDBRANCH   2   5
BRANCH   1  28
ATOM     24  C   UNL     1       4.935  -3.831  -0.058  0.00  0.00    +0.091 A 
ATOM     25  C   UNL     1       5.135  -5.202  -0.067  0.00  0.00    -0.014 A 
ATOM     26  C   UNL     1       4.027  -6.007  -0.063  0.00  0.00    +0.102 A 
ATOM     27  S   UNL     1       2.688  -4.830  -0.038  0.00  0.00    -0.066 S 
ATOM     28  C   UNL     1       3.615  -3.365  -0.045  0.00  0.00    +0.087 A 
ATOM     29  C   UNL     1       6.524  -5.787  -0.081  0.00  0.00    +0.046 C 
BRANCH  24  30
ATOM     30  C   UNL     1       6.068  -2.898  -0.063  0.00  0.00    +0.342 C 
ATOM     31  O   UNL     1       6.546  -2.518   0.988  0.00  0.00    -0.245 OA
BRANCH  30  32
ATOM     32  O   UNL     1       6.578  -2.464  -1.233  0.00  0.00    -0.461 OA
BRANCH  32  34
ATOM     33  C   UNL     1       8.138  -1.164  -2.577  0.00  0.00    +0.048 C 
ATOM     34  C   UNL     1       7.699  -1.543  -1.161  0.00  0.00    +0.229 C 
ENDBRANCH  32  34
ENDBRANCH  30  32
ENDBRANCH  24  30
BRANCH  26  35
ATOM     35  C   UNL     1       3.959  -7.467  -0.070  0.00  0.00    +0.346 C 
ATOM     36  O   UNL     1       4.983  -8.124  -0.082  0.00  0.00    -0.244 OA
BRANCH  35  37
ATOM     37  O   UNL     1       2.760  -8.087  -0.064  0.00  0.00    -0.461 OA
BRANCH  37  38
ATOM     38  C   UNL     1       2.769  -9.516  -0.071  0.00  0.00    +0.229 C 
ATOM     39  C   UNL     1       1.329 -10.034  -0.062  0.00  0.00    +0.048 C 
ENDBRANCH  37  38
ENDBRANCH  35  37
ENDBRANCH  26  35
ENDBRANCH   1  28
TORSDOF 10
