REMARK  Name = ZINC05025369
REMARK  8 active torsions:
REMARK  status: ('A' for Active; 'I' for Inactive)
REMARK    1  A    between atoms: C_1  and  C_2
REMARK    2  A    between atoms: C_5  and  C_8
REMARK    3  A    between atoms: N_9  and  N_10
REMARK    4  A    between atoms: N_15  and  C_16
REMARK    5  A    between atoms: C_16  and  C_17
REMARK    6  A    between atoms: C_17  and  O_18
REMARK    7  A    between atoms: O_18  and  C_19
REMARK    8  A    between atoms: N_31  and  C_32
REMARK                            x       y       z     vdW  Elec       q    Type
REMARK                         _______ _______ _______ _____ _____    ______ ____
ROOT
ATOM      1  N   UNL     1      -2.494   5.878   2.446  0.00  0.00    -0.206 N 
ATOM      2  C   UNL     1      -2.477   6.311   1.140  0.00  0.00    +0.218 A 
ATOM      3  N   UNL     1      -2.423   7.571   0.755  0.00  0.00    -0.195 NA
ATOM      4  C   UNL     1      -2.427   7.641  -0.577  0.00  0.00    +0.170 A 
ATOM      5  C   UNL     1      -2.481   6.340  -1.065  0.00  0.00    +0.153 A 
ATOM      6  N   UNL     1      -2.508   5.506   0.044  0.00  0.00    -0.302 N 
ATOM      7  C   UNL     1      -2.496   6.128  -2.456  0.00  0.00    +0.280 A 
ATOM      8  O   UNL     1      -2.543   4.997  -2.906  0.00  0.00    -0.265 OA
ATOM      9  N   UNL     1      -2.459   7.192  -3.285  0.00  0.00    -0.273 N 
ATOM     10  H   UNL     1      -2.470   7.045  -4.274  0.00  0.00    +0.173 HD
ATOM     11  C   UNL     1      -2.407   8.445  -2.803  0.00  0.00    +0.331 A 
ATOM     12  O   UNL     1      -2.374   9.379  -3.580  0.00  0.00    -0.246 OA
ATOM     13  N   UNL     1      -2.390   8.692  -1.479  0.00  0.00    -0.280 N 
ATOM     14  C   UNL     1      -2.334  10.073  -0.993  0.00  0.00    +0.155 C 
ATOM     15  H   UNL     1      -2.532   4.929   2.642  0.00  0.00    +0.177 HD
ENDROOT
BRANCH   1  17
ATOM     16  C   UNL     1      -2.474   6.401   4.725  0.00  0.00    +0.138 C 
ATOM     17  N   UNL     1      -2.458   6.809   3.493  0.00  0.00    -0.188 NA
BRANCH  16  22
ATOM     18  C   UNL     1      -2.322  10.220   9.022  0.00  0.00    +0.044 C 
ATOM     19  C   UNL     1      -2.362   9.219   7.896  0.00  0.00    -0.050 A 
ATOM     20  C   UNL     1      -2.417   7.866   8.180  0.00  0.00    +0.004 A 
ATOM     21  C   UNL     1      -2.454   6.944   7.154  0.00  0.00    +0.010 A 
ATOM     22  C   UNL     1      -2.436   7.380   5.827  0.00  0.00    -0.005 A 
ATOM     23  C   UNL     1      -2.376   8.748   5.548  0.00  0.00    +0.010 A 
ATOM     24  C   UNL     1      -2.345   9.658   6.584  0.00  0.00    +0.004 A 
ENDBRANCH  16  22
ENDBRANCH   1  17
BRANCH   6  25
ATOM     25  C   UNL     1      -2.566   4.042   0.036  0.00  0.00    +0.166 C 
BRANCH  25  26
ATOM     26  C   UNL     1      -1.145   3.475   0.026  0.00  0.00    +0.250 C 
BRANCH  26  27
ATOM     27  O   UNL     1      -1.202   2.048   0.019  0.00  0.00    -0.490 OA
BRANCH  27  28
ATOM     28  C   UNL     1      -0.017   1.383   0.010  0.00  0.00    +0.121 A 
ATOM     29  C   UNL     1       1.177   2.091   0.002  0.00  0.00    +0.045 A 
ATOM     30  C   UNL     1       2.380   1.413  -0.013  0.00  0.00    +0.004 A 
ATOM     31  C   UNL     1       2.396   0.030  -0.021  0.00  0.00    +0.000 A 
ATOM     32  C   UNL     1       1.208  -0.677  -0.013  0.00  0.00    +0.004 A 
ATOM     33  C   UNL     1       0.002  -0.004   0.002  0.00  0.00    +0.045 A 
ENDBRANCH  27  28
ENDBRANCH  26  27
ENDBRANCH  25  26
ENDBRANCH   6  25
TORSDOF 6
