REMARK  Name = ZINC13067575
REMARK  6 active torsions:
REMARK  status: ('A' for Active; 'I' for Inactive)
REMARK    1  A    between atoms: C_3  and  C_28
REMARK    2  A    between atoms: C_5  and  S_7
REMARK    3  A    between atoms: S_7  and  N_10
REMARK    4  A    between atoms: N_13  and  S_16
REMARK    5  A    between atoms: S_16  and  C_19
REMARK    6  A    between atoms: C_22  and  N_25
REMARK                            x       y       z     vdW  Elec       q    Type
REMARK                         _______ _______ _______ _____ _____    ______ ____
ROOT
ATOM      1  N   UNL     1       1.190  -2.498  -4.306  0.00  0.00    -0.174 NA
ATOM      2  C   UNL     1       2.459  -2.262  -3.603  0.00  0.00    +0.126 C 
ATOM      3  C   UNL     1       2.484  -3.123  -2.334  0.00  0.00    +0.126 C 
ATOM      4  N   UNL     1       1.223  -2.923  -1.606  0.00  0.00    -0.174 NA
ATOM      5  C   UNL     1      -0.046  -3.164  -2.307  0.00  0.00    +0.126 C 
ATOM      6  C   UNL     1      -0.070  -2.297  -3.578  0.00  0.00    +0.126 C 
ENDROOT
BRANCH   1   7
ATOM      7  S   UNL     1       1.181  -2.981  -5.890  0.00  0.00    +0.061 S 
ATOM      8  O   UNL     1      -0.075  -2.590  -6.426  0.00  0.00    -0.153 OA
ATOM      9  O   UNL     1       2.416  -2.556  -6.451  0.00  0.00    -0.153 OA
BRANCH   7  14
ATOM     10  C   UNL     1       2.442  -6.800  -5.918  0.00  0.00    +0.003 A 
ATOM     11  C   UNL     1       1.263  -7.517  -5.909  0.00  0.00    +0.015 A 
ATOM     12  C   UNL     1       0.040  -6.843  -5.894  0.00  0.00    +0.065 A 
ATOM     13  C   UNL     1       0.019  -5.447  -5.888  0.00  0.00    +0.043 A 
ATOM     14  C   UNL     1       1.205  -4.743  -5.897  0.00  0.00    +0.106 A 
ATOM     15  C   UNL     1       2.414  -5.417  -5.918  0.00  0.00    +0.028 A 
BRANCH  12  16
ATOM     16  C   UNL     1      -1.226  -7.604  -5.885  0.00  0.00    +0.387 C 
ATOM     17  O   UNL     1      -2.288  -7.016  -5.872  0.00  0.00    -0.241 OA
ATOM     18  O   UNL     1      -1.202  -8.951  -5.891  0.00  0.00    -0.241 OA
ENDBRANCH  12  16
ENDBRANCH   7  14
ENDBRANCH   1   7
BRANCH   4  19
ATOM     19  S   UNL     1       1.232  -2.441  -0.022  0.00  0.00    +0.061 S 
ATOM     20  O   UNL     1       2.489  -2.832   0.515  0.00  0.00    -0.153 OA
ATOM     21  O   UNL     1      -0.002  -2.866   0.539  0.00  0.00    -0.153 OA
BRANCH  19  22
ATOM     22  C   UNL     1       1.208  -0.679  -0.013  0.00  0.00    +0.106 A 
ATOM     23  C   UNL     1       0.002  -0.004   0.002  0.00  0.00    +0.031 A 
ATOM     24  C   UNL     1      -0.017   1.378   0.010  0.00  0.00    +0.034 A 
ATOM     25  C   UNL     1       1.171   2.086   0.002  0.00  0.00    +0.126 A 
ATOM     26  C   UNL     1       2.377   1.411  -0.015  0.00  0.00    +0.034 A 
ATOM     27  C   UNL     1       2.396   0.029  -0.021  0.00  0.00    +0.031 A 
BRANCH  25  28
ATOM     28  N   UNL     1       1.151   3.566   0.010  0.00  0.00    +0.056 N 
ATOM     29  O   UNL     1       0.088   4.160   0.023  0.00  0.00    -0.126 OA
ATOM     30  O   UNL     1       2.197   4.189   0.003  0.00  0.00    -0.126 OA
ENDBRANCH  25  28
ENDBRANCH  19  22
ENDBRANCH   4  19
TORSDOF 6
