REMARK  Name = ZINC33256718
REMARK  13 active torsions:
REMARK  status: ('A' for Active; 'I' for Inactive)
REMARK    1  A    between atoms: C_1  and  C_2
REMARK    2  A    between atoms: C_2  and  C_3
REMARK    3  A    between atoms: C_3  and  C_5
REMARK    4  A    between atoms: C_3  and  N_6
REMARK    5  A    between atoms: C_7  and  C_9
REMARK    6  A    between atoms: C_9  and  S_10
REMARK    7  A    between atoms: S_10  and  C_11
REMARK    8  A    between atoms: C_18  and  C_32
REMARK    9  A    between atoms: N_24  and  C_25
REMARK   10  A    between atoms: C_25  and  C_26
REMARK   11  A    between atoms: N_34  and  C_35
REMARK   12  A    between atoms: C_35  and  C_36
REMARK   13  A    between atoms: C_35  and  C_37
REMARK                            x       y       z     vdW  Elec       q    Type
REMARK                         _______ _______ _______ _____ _____    ______ ____
ROOT
ATOM      1  C   UNL     1       2.644   5.233   0.004  0.00  0.00    +0.198 A 
ATOM      2  N   UNL     1       3.946   5.385  -0.009  0.00  0.00    -0.120 NA
ATOM      3  N   UNL     1       4.531   4.113  -0.021  0.00  0.00    -0.109 NA
ATOM      4  C   UNL     1       3.567   3.220  -0.016  0.00  0.00    +0.240 A 
ATOM      5  N   UNL     1       2.375   3.891  -0.001  0.00  0.00    -0.256 N 
ATOM      6  C   UNL     1       1.167   3.194   0.008  0.00  0.00    +0.065 A 
ATOM      7  C   UNL     1      -0.043   3.868   0.024  0.00  0.00    +0.040 A 
ATOM      8  C   UNL     1      -1.235   3.148   0.033  0.00  0.00    +0.039 A 
ATOM      9  C   UNL     1      -1.213   1.750   0.017  0.00  0.00    +0.014 A 
ATOM     10  C   UNL     1      -0.013   1.076   0.008  0.00  0.00    +0.016 A 
ATOM     11  C   UNL     1       1.184   1.791   0.000  0.00  0.00    +0.064 A 
ATOM     12  C   UNL     1       2.487   1.097  -0.016  0.00  0.00    +0.263 A 
ATOM     13  O   UNL     1       2.541  -0.117  -0.023  0.00  0.00    -0.267 OA
ATOM     14  N   UNL     1       3.617   1.834  -0.024  0.00  0.00    -0.272 N 
ENDROOT
BRANCH   8  15
ATOM     15  C   UNL     1      -2.530   3.865   0.050  0.00  0.00    +0.244 C 
ATOM     16  O   UNL     1      -2.552   5.080   0.058  0.00  0.00    -0.270 OA
ATOM     17  N   UNL     1      -3.685   3.170   0.059  0.00  0.00    -0.309 N 
ATOM     18  H   UNL     1      -3.665   2.070   0.052  0.00  0.00    +0.149 HD
BRANCH  17  19
ATOM     19  C   UNL     1      -4.967   3.880   0.076  0.00  0.00    +0.067 C 
ATOM     20  C   UNL     1      -6.053   2.986  -0.527  0.00  0.00    +0.027 C 
ATOM     21  C   UNL     1      -5.337   4.228   1.519  0.00  0.00    +0.027 C 
ENDBRANCH  17  19
ENDBRANCH   8  15
BRANCH   1  22
ATOM     22  S   UNL     1       1.451   6.529   0.022  0.00  0.00    -0.076 S 
BRANCH  22  23
ATOM     23  C   UNL     1       2.448   8.044   0.020  0.00  0.00    +0.173 C 
BRANCH  23  25
ATOM     24  N   UNL     1       2.061  10.488   0.036  0.00  0.00    -0.312 N 
ATOM     25  C   UNL     1       1.538   9.245   0.035  0.00  0.00    +0.224 C 
ATOM     26  O   UNL     1       0.335   9.094   0.046  0.00  0.00    -0.275 OA
ATOM     27  H   UNL     1       3.152  10.625   0.026  0.00  0.00    +0.149 HD
BRANCH  24  28
ATOM     28  C   UNL     1       1.176  11.655   0.051  0.00  0.00    +0.070 C 
ATOM     29  C   UNL     1       0.754  11.993  -1.381  0.00  0.00    +0.028 C 
BRANCH  28  31
ATOM     30  C   UNL     1       2.228  12.559   2.129  0.00  0.00    +0.005 C 
ATOM     31  C   UNL     1       1.916  12.848   0.659  0.00  0.00    +0.018 C 
ENDBRANCH  28  31
ENDBRANCH  24  28
ENDBRANCH  23  25
ENDBRANCH  22  23
ENDBRANCH   1  22
BRANCH  14  32
ATOM     32  C   UNL     1       4.917   1.160  -0.040  0.00  0.00    +0.163 C 
BRANCH  32  33
ATOM     33  C   UNL     1       5.349   0.937  -1.467  0.00  0.00    -0.028 A 
ATOM     34  C   UNL     1       5.001  -0.231  -2.119  0.00  0.00    +0.005 A 
ATOM     35  C   UNL     1       5.393  -0.434  -3.429  0.00  0.00    +0.000 A 
ATOM     36  C   UNL     1       6.142   0.526  -4.083  0.00  0.00    +0.000 A 
ATOM     37  C   UNL     1       6.494   1.692  -3.429  0.00  0.00    +0.000 A 
ATOM     38  C   UNL     1       6.098   1.897  -2.121  0.00  0.00    +0.005 A 
ENDBRANCH  32  33
ENDBRANCH  14  32
TORSDOF 9
