REMARK  Name = ZINC39675525
REMARK  9 active torsions:
REMARK  status: ('A' for Active; 'I' for Inactive)
REMARK    1  A    between atoms: C_1  and  C_2
REMARK    2  A    between atoms: C_2  and  C_4
REMARK    3  A    between atoms: C_2  and  N_14
REMARK    4  A    between atoms: C_4  and  C_5
REMARK    5  A    between atoms: C_5  and  C_6
REMARK    6  A    between atoms: C_9  and  O_12
REMARK    7  A    between atoms: O_12  and  C_13
REMARK    8  A    between atoms: C_15  and  C_17
REMARK    9  A    between atoms: C_28  and  C_30
REMARK                            x       y       z     vdW  Elec       q    Type
REMARK                         _______ _______ _______ _____ _____    ______ ____
ROOT
ATOM      1  C   UNL     1       0.712  -1.094  -3.598  0.00  0.00    +0.100 C 
ATOM      2  C   UNL     1       1.342  -2.483  -3.349  0.00  0.00    +0.121 C 
ATOM      3  N   UNL     1       0.333  -3.447  -3.848  0.00  0.00    -0.296 N 
ATOM      4  C   UNL     1      -0.202  -2.817  -5.079  0.00  0.00    +0.115 C 
ATOM      5  C   UNL     1      -0.298  -1.317  -4.737  0.00  0.00    -0.004 C 
ATOM      6  C   UNL     1      -1.709  -0.974  -4.266  0.00  0.00    -0.010 C 
ATOM      7  C   UNL     1      -2.687  -1.149  -5.431  0.00  0.00    -0.082 C 
ATOM      8  N   UNL     1      -2.292  -0.272  -6.540  0.00  0.00    +0.379 N 
ATOM      9  C   UNL     1      -0.973  -0.668  -7.047  0.00  0.00    -0.082 C 
ATOM     10  C   UNL     1       0.077  -0.473  -5.950  0.00  0.00    -0.010 C 
ATOM     11  C   UNL     1      -0.019  -4.629  -3.305  0.00  0.00    +0.252 C 
ATOM     12  O   UNL     1      -0.872  -5.313  -3.838  0.00  0.00    -0.270 OA
ATOM     13  H   UNL     1      -2.972  -0.344  -7.282  0.00  0.00    -0.086 HD
ATOM     14  H   UNL     1      -2.253   0.682  -6.214  0.00  0.00    -0.086 HD
ENDROOT
BRANCH  11  15
ATOM     15  C   UNL     1       0.629  -5.093  -2.064  0.00  0.00    +0.108 A 
ATOM     16  C   UNL     1       0.082  -4.765  -0.819  0.00  0.00    +0.138 A 
ATOM     17  C   UNL     1       0.696  -5.204   0.339  0.00  0.00    +0.041 A 
ATOM     18  C   UNL     1       1.848  -5.966   0.270  0.00  0.00    +0.026 A 
ATOM     19  C   UNL     1       2.397  -6.295  -0.957  0.00  0.00    +0.077 A 
ATOM     20  C   UNL     1       1.792  -5.869  -2.126  0.00  0.00    +0.156 A 
ATOM     21  F   UNL     1       2.325  -6.196  -3.323  0.00  0.00    -0.203 F 
ATOM     22 CL   UNL     1       3.844  -7.252  -1.030  0.00  0.00    -0.081 Cl
ATOM     23  F   UNL     1      -1.043  -4.020  -0.748  0.00  0.00    -0.205 F 
ENDBRANCH  11  15
BRANCH   1  25
ATOM     24  N   UNL     1      -0.107   0.714  -2.122  0.00  0.00    -0.312 N 
ATOM     25  C   UNL     1       0.006  -0.608  -2.358  0.00  0.00    +0.218 C 
ATOM     26  O   UNL     1      -0.459  -1.407  -1.573  0.00  0.00    -0.275 OA
ATOM     27  H   UNL     1       0.265   1.353  -2.750  0.00  0.00    +0.149 HD
BRANCH  24  29
ATOM     28  C   UNL     1      -2.299   1.253  -1.180  0.00  0.00    +0.028 C 
ATOM     29  C   UNL     1      -0.793   1.186  -0.917  0.00  0.00    +0.070 C 
BRANCH  29  30
ATOM     30  C   UNL     1      -0.278   2.579  -0.550  0.00  0.00    +0.026 C 
BRANCH  30  31
ATOM     31  C   UNL     1       1.201   2.491  -0.166  0.00  0.00    +0.037 C 
BRANCH  31  32
ATOM     32  C   UNL     1       1.709   3.863   0.196  0.00  0.00    -0.047 A 
ATOM     33  C   UNL     1       2.244   4.681  -0.782  0.00  0.00    +0.007 A 
ATOM     34  C   UNL     1       2.711   5.939  -0.453  0.00  0.00    +0.046 A 
ATOM     35  C   UNL     1       2.642   6.381   0.860  0.00  0.00    +0.120 A 
ATOM     36  C   UNL     1       2.104   5.559   1.839  0.00  0.00    +0.046 A 
ATOM     37  C   UNL     1       1.634   4.304   1.504  0.00  0.00    +0.007 A 
BRANCH  35  38
ATOM     38  O   UNL     1       3.100   7.618   1.186  0.00  0.00    -0.495 OA
ATOM     39  C   UNL     1       2.997   8.008   2.557  0.00  0.00    +0.277 C 
ENDBRANCH  35  38
ENDBRANCH  31  32
ENDBRANCH  30  31
ENDBRANCH  29  30
ENDBRANCH  24  29
ENDBRANCH   1  25
TORSDOF 7
