REMARK  Name = ZINC20292118
REMARK  9 active torsions:
REMARK  status: ('A' for Active; 'I' for Inactive)
REMARK    1  A    between atoms: C_1  and  C_2
REMARK    2  A    between atoms: C_2  and  N_3
REMARK    3  A    between atoms: N_3  and  C_4
REMARK    4  A    between atoms: N_3  and  C_6
REMARK    5  A    between atoms: C_4  and  C_5
REMARK    6  A    between atoms: C_6  and  C_7
REMARK    7  A    between atoms: C_7  and  N_8
REMARK    8  A    between atoms: C_27  and  C_29
REMARK    9  A    between atoms: C_27  and  C_30
REMARK                            x       y       z     vdW  Elec       q    Type
REMARK                         _______ _______ _______ _____ _____    ______ ____
ROOT
ATOM      1  N   UNL     1      -2.953  -3.725   0.645  0.00  0.00    -0.330 N 
ATOM      2  C   UNL     1      -4.146  -4.429   0.707  0.00  0.00    +0.136 A 
ATOM      3  C   UNL     1      -4.153  -5.802   0.902  0.00  0.00    +0.080 A 
ATOM      4  C   UNL     1      -5.357  -6.515   0.965  0.00  0.00    +0.093 A 
ATOM      5  C   UNL     1      -5.234  -7.970   1.176  0.00  0.00    +0.037 A 
ATOM      6  C   UNL     1      -6.311  -8.906   1.278  0.00  0.00    -0.027 A 
ATOM      7  C   UNL     1      -6.014 -10.210   1.463  0.00  0.00    +0.006 A 
ATOM      8  C   UNL     1      -4.668 -10.610   1.578  0.00  0.00    +0.127 A 
ATOM      9  N   UNL     1      -3.680  -9.742   1.491  0.00  0.00    -0.225 NA
ATOM     10  C   UNL     1      -3.930  -8.464   1.293  0.00  0.00    +0.113 A 
ATOM     11  S   UNL     1      -2.895  -7.031   1.118  0.00  0.00    -0.064 S 
ATOM     12  N   UNL     1      -4.375 -11.950   1.789  0.00  0.00    -0.311 N 
ATOM     13  C   UNL     1      -4.067 -12.845   0.662  0.00  0.00    +0.134 C 
ATOM     14  C   UNL     1      -2.764 -13.589   0.978  0.00  0.00    +0.178 C 
ATOM     15  O   UNL     1      -2.873 -14.203   2.264  0.00  0.00    -0.377 OA
ATOM     16  C   UNL     1      -3.046 -13.279   3.341  0.00  0.00    +0.178 C 
ATOM     17  C   UNL     1      -4.358 -12.517   3.147  0.00  0.00    +0.134 C 
ATOM     18  C   UNL     1      -7.015 -11.338   1.539  0.00  0.00    +0.108 C 
ATOM     19  S   UNL     1      -8.668 -10.688   1.905  0.00  0.00    -0.149 S 
ATOM     20  C   UNL     1      -8.763  -9.265   0.771  0.00  0.00    +0.015 C 
ATOM     21  C   UNL     1      -7.672  -8.283   1.174  0.00  0.00    +0.053 C 
ATOM     22  C   UNL     1     -10.134  -8.596   0.891  0.00  0.00    +0.023 C 
ATOM     23  C   UNL     1      -8.536  -9.732  -0.668  0.00  0.00    +0.023 C 
ATOM     24  N   UNL     1      -6.487  -5.785   0.826  0.00  0.00    -0.234 NA
ATOM     25  C   UNL     1      -6.443  -4.489   0.643  0.00  0.00    +0.224 A 
ATOM     26  N   UNL     1      -5.317  -3.802   0.586  0.00  0.00    -0.220 NA
ATOM     27  H   UNL     1      -2.109  -4.193   0.735  0.00  0.00    +0.147 HD
ENDROOT
BRANCH   1  28
ATOM     28  C   UNL     1      -2.969  -2.274   0.445  0.00  0.00    +0.084 C 
BRANCH  28  29
ATOM     29  C   UNL     1      -1.532  -1.748   0.414  0.00  0.00    -0.060 C 
BRANCH  29  30
ATOM     30  N   UNL     1      -1.541  -0.317   0.081  0.00  0.00    +0.380 N 
ATOM     31  H   UNL     1      -2.039  -0.177  -0.785  0.00  0.00    -0.082 HD
BRANCH  30  33
ATOM     32  C   UNL     1      -2.327   1.903   0.753  0.00  0.00    -0.017 C 
ATOM     33  C   UNL     1      -2.207   0.431   1.156  0.00  0.00    -0.082 C 
ENDBRANCH  30  33
BRANCH  30  34
ATOM     34  C   UNL     1      -0.160   0.160  -0.065  0.00  0.00    -0.082 C 
ATOM     35  C   UNL     1       0.485  -0.508  -1.281  0.00  0.00    -0.017 C 
ENDBRANCH  30  34
ENDBRANCH  29  30
ENDBRANCH  28  29
ENDBRANCH   1  28
TORSDOF 5
