REMARK  Name = ZINC55493040
REMARK  7 active torsions:
REMARK  status: ('A' for Active; 'I' for Inactive)
REMARK    1  A    between atoms: C_1  and  C_2
REMARK    2  A    between atoms: C_3  and  C_26
REMARK    3  A    between atoms: C_11  and  C_13
REMARK    4  A    between atoms: C_13  and  O_14
REMARK    5  A    between atoms: O_14  and  C_15
REMARK    6  A    between atoms: C_18  and  C_21
REMARK    7  A    between atoms: C_22  and  C_23
REMARK                            x       y       z     vdW  Elec       q    Type
REMARK                         _______ _______ _______ _____ _____    ______ ____
ROOT
ATOM      1  C   UNL     1      -0.018   1.503   0.010  0.00  0.00    +0.045 C 
ATOM      2  C   UNL     1       0.002  -0.004   0.002  0.00  0.00    -0.026 A 
ATOM      3  C   UNL     1       0.006  -0.677  -1.160  0.00  0.00    -0.008 A 
ATOM      4  S   UNL     1       0.032  -2.385  -0.648  0.00  0.00    -0.073 S 
ATOM      5  C   UNL     1       0.037  -2.144   1.110  0.00  0.00    +0.116 A 
ATOM      6  C   UNL     1       0.024  -0.745   1.250  0.00  0.00    +0.075 A 
ATOM      7  C   UNL     1       0.029  -0.257   2.597  0.00  0.00    +0.260 A 
ATOM      8  O   UNL     1       0.014   0.942   2.821  0.00  0.00    -0.267 OA
ATOM      9  N   UNL     1       0.051  -1.142   3.611  0.00  0.00    -0.308 N 
ATOM     10  H   UNL     1       0.054  -0.817   4.525  0.00  0.00    +0.170 HD
ATOM     11  C   UNL     1       0.067  -2.480   3.380  0.00  0.00    +0.149 A 
ATOM     12  N   UNL     1       0.053  -2.956   2.163  0.00  0.00    -0.223 NA
ATOM     13  C   UNL     1      -0.009  -0.122  -2.561  0.00  0.00    +0.052 C 
ENDROOT
BRANCH  11  14
ATOM     14  C   UNL     1       0.090  -3.432   4.547  0.00  0.00    +0.303 C 
BRANCH  14  15
ATOM     15  O   UNL     1       0.104  -4.777   4.065  0.00  0.00    -0.484 OA
BRANCH  15  16
ATOM     16  C   UNL     1       0.126  -5.765   4.995  0.00  0.00    +0.121 A 
ATOM     17  C   UNL     1       0.127  -5.443   6.348  0.00  0.00    +0.046 A 
ATOM     18  C   UNL     1       0.149  -6.441   7.295  0.00  0.00    +0.011 A 
ATOM     19  C   UNL     1       0.170  -7.783   6.894  0.00  0.00    -0.025 A 
ATOM     20  C   UNL     1       0.168  -8.102   5.530  0.00  0.00    +0.011 A 
ATOM     21  C   UNL     1       0.140  -7.096   4.591  0.00  0.00    +0.046 A 
BRANCH  19  22
ATOM     22  C   UNL     1       0.194  -8.852   7.901  0.00  0.00    +0.015 C 
ATOM     23  C   UNL     1       0.213 -10.148   7.511  0.00  0.00    +0.096 C 
BRANCH  23  24
ATOM     24  C   UNL     1       0.236 -11.177   8.480  0.00  0.00    +0.380 C 
ATOM     25  O   UNL     1       0.238 -10.896   9.672  0.00  0.00    -0.241 OA
ATOM     26  O   UNL     1       0.254 -12.351   8.127  0.00  0.00    -0.241 OA
ENDBRANCH  23  24
ENDBRANCH  19  22
ENDBRANCH  15  16
ENDBRANCH  14  15
ENDBRANCH  11  14
TORSDOF 5
