REMARK  Name = ZINC39671582
REMARK  9 active torsions:
REMARK  status: ('A' for Active; 'I' for Inactive)
REMARK    1  A    between atoms: C_1  and  C_2
REMARK    2  A    between atoms: C_2  and  C_3
REMARK    3  A    between atoms: C_2  and  C_4
REMARK    4  A    between atoms: C_4  and  C_6
REMARK    5  A    between atoms: C_4  and  O_33
REMARK    6  A    between atoms: C_10  and  C_19
REMARK    7  A    between atoms: N_21  and  C_22
REMARK    8  A    between atoms: C_22  and  C_23
REMARK    9  A    between atoms: O_33  and  C_34
REMARK                            x       y       z     vdW  Elec       q    Type
REMARK                         _______ _______ _______ _____ _____    ______ ____
ROOT
ATOM      1  C   UNL     1      -1.815  -0.384  -1.505  0.00  0.00    +0.257 C 
ATOM      2  O   UNL     1      -2.194  -1.260  -2.253  0.00  0.00    -0.272 OA
ATOM      3  N   UNL     1      -1.788   0.897  -1.926  0.00  0.00    -0.297 N 
ATOM      4  C   UNL     1      -1.256   2.078  -1.207  0.00  0.00    +0.121 C 
ATOM      5  C   UNL     1      -0.558   2.918  -2.300  0.00  0.00    +0.100 C 
ATOM      6  C   UNL     1      -1.240   2.497  -3.613  0.00  0.00    -0.004 C 
ATOM      7  C   UNL     1      -2.280   1.440  -3.215  0.00  0.00    +0.115 C 
ATOM      8  C   UNL     1      -0.217   1.889  -4.568  0.00  0.00    -0.010 C 
ATOM      9  C   UNL     1      -0.907   1.530  -5.887  0.00  0.00    -0.082 C 
ATOM     10  N   UNL     1      -1.498   2.738  -6.476  0.00  0.00    +0.379 N 
ATOM     11  C   UNL     1      -2.546   3.264  -5.593  0.00  0.00    -0.082 C 
ATOM     12  C   UNL     1      -1.925   3.696  -4.262  0.00  0.00    -0.010 C 
ATOM     13  H   UNL     1      -0.780   3.437  -6.598  0.00  0.00    -0.086 HD
ATOM     14  H   UNL     1      -1.898   2.511  -7.374  0.00  0.00    -0.086 HD
ENDROOT
BRANCH   5  15
ATOM     15  C   UNL     1       0.914   2.602  -2.346  0.00  0.00    +0.219 C 
ATOM     16  O   UNL     1       1.302   1.480  -2.098  0.00  0.00    -0.275 OA
ATOM     17  N   UNL     1       1.801   3.567  -2.662  0.00  0.00    -0.309 N 
ATOM     18  H   UNL     1       1.491   4.464  -2.861  0.00  0.00    +0.149 HD
BRANCH  17  19
ATOM     19  C   UNL     1       3.233   3.260  -2.706  0.00  0.00    +0.157 C 
BRANCH  19  20
ATOM     20  C   UNL     1       4.002   4.500  -3.082  0.00  0.00    +0.034 A 
ATOM     21  H   UNL     1       3.926   4.470  -5.163  0.00  0.00    +0.166 HD
ATOM     22  C   UNL     1       4.566   5.350  -2.210  0.00  0.00    +0.032 A 
ATOM     23  C   UNL     1       5.206   6.408  -2.996  0.00  0.00    -0.000 A 
ATOM     24  C   UNL     1       5.937   7.551  -2.670  0.00  0.00    +0.010 A 
ATOM     25  C   UNL     1       6.413   8.359  -3.665  0.00  0.00    +0.001 A 
ATOM     26  C   UNL     1       6.174   8.051  -4.997  0.00  0.00    +0.002 A 
ATOM     27  C   UNL     1       5.455   6.927  -5.341  0.00  0.00    +0.026 A 
ATOM     28  C   UNL     1       4.961   6.091  -4.345  0.00  0.00    +0.047 A 
ATOM     29  N   UNL     1       4.232   4.923  -4.362  0.00  0.00    -0.357 N 
ENDBRANCH  19  20
ENDBRANCH  17  19
ENDBRANCH   5  15
BRANCH   1  30
ATOM     30  C   UNL     1      -1.374  -0.726  -0.106  0.00  0.00    +0.261 C 
BRANCH  30  32
ATOM     31  C   UNL     1      -3.677  -1.427   0.561  0.00  0.00    +0.011 C 
ATOM     32  C   UNL     1      -2.525  -0.469   0.869  0.00  0.00    +0.033 C 
ATOM     33  C   UNL     1      -2.041  -0.698   2.302  0.00  0.00    +0.011 C 
ENDBRANCH  30  32
BRANCH  30  34
ATOM     34  O   UNL     1      -0.255   0.087   0.254  0.00  0.00    -0.479 OA
BRANCH  34  35
ATOM     35  C   UNL     1       0.725  -0.501   0.988  0.00  0.00    +0.122 A 
ATOM     36  C   UNL     1       0.634  -1.846   1.318  0.00  0.00    +0.045 A 
ATOM     37  C   UNL     1       1.632  -2.442   2.064  0.00  0.00    +0.004 A 
ATOM     38  C   UNL     1       2.722  -1.700   2.481  0.00  0.00    +0.000 A 
ATOM     39  C   UNL     1       2.815  -0.360   2.154  0.00  0.00    +0.004 A 
ATOM     40  C   UNL     1       1.822   0.239   1.403  0.00  0.00    +0.045 A 
ENDBRANCH  34  35
ENDBRANCH  30  34
ENDBRANCH   1  30
TORSDOF 7
