REMARK  Name = ZINC44862952
REMARK  7 active torsions:
REMARK  status: ('A' for Active; 'I' for Inactive)
REMARK    1  A    between atoms: C_1  and  C_2
REMARK    2  A    between atoms: C_2  and  C_3
REMARK    3  A    between atoms: C_3  and  C_4
REMARK    4  A    between atoms: C_4  and  C_6
REMARK    5  A    between atoms: C_4  and  C_10
REMARK    6  A    between atoms: N_7  and  O_8
REMARK    7  A    between atoms: N_12  and  C_13
REMARK                            x       y       z     vdW  Elec       q    Type
REMARK                         _______ _______ _______ _____ _____    ______ ____
ROOT
ATOM      1  C   UNL     1       1.548  -2.507  -2.443  0.00  0.00    +0.228 C 
ATOM      2  O   UNL     1       1.033  -3.211  -3.287  0.00  0.00    -0.275 OA
ATOM      3  N   UNL     1       2.848  -2.168  -2.550  0.00  0.00    -0.284 N 
ATOM      4  H   UNL     1       3.243  -1.554  -1.912  0.00  0.00    +0.155 HD
ENDROOT
BRANCH   3   5
ATOM      5  C   UNL     1       3.628  -2.703  -3.583  0.00  0.00    +0.053 A 
ATOM      6  C   UNL     1       3.063  -2.946  -4.827  0.00  0.00    +0.046 A 
ATOM      7  C   UNL     1       3.835  -3.474  -5.845  0.00  0.00    +0.061 A 
ATOM      8  C   UNL     1       5.172  -3.760  -5.624  0.00  0.00    +0.061 A 
ATOM      9  C   UNL     1       5.738  -3.518  -4.385  0.00  0.00    +0.043 A 
ATOM     10  C   UNL     1       4.971  -2.985  -3.365  0.00  0.00    +0.064 A 
ATOM     11 CL   UNL     1       5.684  -2.675  -1.813  0.00  0.00    -0.082 Cl
ATOM     12 CL   UNL     1       6.139  -4.423  -6.904  0.00  0.00    -0.082 Cl
ATOM     13 CL   UNL     1       3.129  -3.779  -7.401  0.00  0.00    -0.082 Cl
ENDBRANCH   3   5
BRANCH   1  14
ATOM     14  C   UNL     1       0.734  -2.013  -1.275  0.00  0.00    +0.141 C 
BRANCH  14  15
ATOM     15  C   UNL     1      -0.677  -2.530  -1.392  0.00  0.00    +0.144 C 
ATOM     16  N   UNL     1      -1.589  -1.799  -1.941  0.00  0.00    -0.076 NA
ATOM     17  N   UNL     1      -0.993  -3.782  -0.912  0.00  0.00    -0.343 N 
ATOM     18  H   UNL     1      -0.308  -4.331  -0.500  0.00  0.00    +0.144 HD
ATOM     19  H   UNL     1      -1.901  -4.115  -0.987  0.00  0.00    +0.144 HD
BRANCH  16  20
ATOM     20  O   UNL     1      -2.915  -2.285  -2.050  0.00  0.00    -0.408 OA
ATOM     21  H   UNL     1      -3.526  -1.667  -2.475  0.00  0.00    +0.328 HD
ENDBRANCH  16  20
ENDBRANCH  14  15
BRANCH  14  22
ATOM     22  C   UNL     1       0.718  -0.483  -1.276  0.00  0.00    +0.020 C 
BRANCH  22  24
ATOM     23  C   UNL     1      -0.018   1.550  -0.024  0.00  0.00    +0.004 C 
ATOM     24  C   UNL     1      -0.002   0.020  -0.023  0.00  0.00    -0.002 C 
ENDBRANCH  22  24
ENDBRANCH  14  22
ENDBRANCH   1  14
TORSDOF 6
