REMARK  Name = ZINC14459673
REMARK  5 active torsions:
REMARK  status: ('A' for Active; 'I' for Inactive)
REMARK    1  A    between atoms: C_1  and  O_2
REMARK    2  A    between atoms: O_2  and  C_3
REMARK    3  A    between atoms: C_7  and  C_10
REMARK    4  A    between atoms: C_8  and  O_9
REMARK    5  A    between atoms: C_20  and  N_27
REMARK                            x       y       z     vdW  Elec       q    Type
REMARK                         _______ _______ _______ _____ _____    ______ ____
ROOT
ATOM      1  C   UNL     1       1.282   4.703  -0.005  0.00  0.00    +0.109 C 
ATOM      2  C   UNL     1       0.697   3.352  -0.362  0.00  0.00    +0.029 C 
ATOM      3  C   UNL     1       1.232   2.119   0.377  0.00  0.00    +0.033 C 
ATOM      4  C   UNL     1       0.017   1.189   0.335  0.00  0.00    -0.030 C 
ATOM      5  C   UNL     1      -1.099   1.904   0.237  0.00  0.00    -0.023 C 
ATOM      6  C   UNL     1      -0.738   3.343   0.251  0.00  0.00    +0.051 C 
ATOM      7  C   UNL     1      -1.510   4.387  -0.451  0.00  0.00    +0.014 A 
ATOM      8  C   UNL     1      -2.869   4.256  -0.649  0.00  0.00    +0.132 A 
ATOM      9  C   UNL     1      -3.583   5.248  -1.294  0.00  0.00    +0.036 A 
ATOM     10  C   UNL     1      -2.928   6.380  -1.744  0.00  0.00    +0.042 A 
ATOM     11  C   UNL     1      -1.568   6.515  -1.558  0.00  0.00    +0.145 A 
ATOM     12  C   UNL     1      -0.832   5.516  -0.914  0.00  0.00    +0.069 A 
ATOM     13  N   UNL     1       0.542   5.713  -0.778  0.00  0.00    -0.334 N 
ATOM     14  F   UNL     1      -0.940   7.625  -2.004  0.00  0.00    -0.204 F 
ATOM     15  H   UNL     1       0.975   5.870  -1.676  0.00  0.00    +0.147 HD
ENDROOT
BRANCH   1  20
ATOM     16  C   UNL     1       1.900   4.713   3.729  0.00  0.00    +0.162 A 
ATOM     17  C   UNL     1       0.811   5.439   4.182  0.00  0.00    +0.049 A 
ATOM     18  C   UNL     1      -0.120   5.923   3.282  0.00  0.00    +0.004 A 
ATOM     19  C   UNL     1       0.036   5.689   1.928  0.00  0.00    +0.009 A 
ATOM     20  C   UNL     1       1.118   4.960   1.470  0.00  0.00    +0.018 A 
ATOM     21  C   UNL     1       2.055   4.472   2.367  0.00  0.00    +0.163 A 
BRANCH  16  23
ATOM     22  C   UNL     1       2.594   4.521   5.996  0.00  0.00    +0.277 C 
ATOM     23  O   UNL     1       2.817   4.236   4.614  0.00  0.00    -0.491 OA
ENDBRANCH  16  23
BRANCH  21  24
ATOM     24  O   UNL     1       3.123   3.761   1.918  0.00  0.00    -0.503 OA
ATOM     25  H   UNL     1       3.896   4.302   1.709  0.00  0.00    +0.292 HD
ENDBRANCH  21  24
ENDBRANCH   1  20
BRANCH   8  26
ATOM     26  N   UNL     1      -3.569   3.044  -0.168  0.00  0.00    +0.057 N 
ATOM     27  O   UNL     1      -4.303   2.426  -0.918  0.00  0.00    -0.126 OA
ATOM     28  O   UNL     1      -3.410   2.664   0.978  0.00  0.00    -0.126 OA
ENDBRANCH   8  26
TORSDOF 4
