REMARK  Name = ZINC20352052
REMARK  5 active torsions:
REMARK  status: ('A' for Active; 'I' for Inactive)
REMARK    1  A    between atoms: C_6  and  C_7
REMARK    2  A    between atoms: C_7  and  N_8
REMARK    3  A    between atoms: C_11  and  C_14
REMARK    4  A    between atoms: C_20  and  C_22
REMARK    5  A    between atoms: C_22  and  C_23
REMARK                            x       y       z     vdW  Elec       q    Type
REMARK                         _______ _______ _______ _____ _____    ______ ____
ROOT
ATOM      1  C   UNL     1      -5.117  -1.596  -2.632  0.00  0.00    -0.007 C 
ATOM      2  C   UNL     1      -5.593  -2.983  -2.194  0.00  0.00    +0.023 C 
ATOM      3  C   UNL     1      -7.116  -2.969  -2.033  0.00  0.00    +0.108 C 
ATOM      4  N   UNL     1      -7.720  -2.492  -3.285  0.00  0.00    -0.301 N 
ATOM      5  C   UNL     1      -7.268  -1.211  -3.844  0.00  0.00    +0.108 C 
ATOM      6  C   UNL     1      -5.743  -1.245  -3.984  0.00  0.00    +0.023 C 
ATOM      7  C   UNL     1      -8.669  -3.216  -3.909  0.00  0.00    +0.223 C 
ATOM      8  O   UNL     1      -9.034  -4.273  -3.438  0.00  0.00    -0.275 OA
ENDROOT
BRANCH   1  12
ATOM      9  N   UNL     1      -1.727  -1.018  -1.371  0.00  0.00    +0.383 N 
ATOM     10  C   UNL     1      -2.171   0.249  -2.007  0.00  0.00    -0.078 C 
ATOM     11  C   UNL     1      -3.088  -0.197  -3.166  0.00  0.00    -0.017 C 
ATOM     12  C   UNL     1      -3.593  -1.597  -2.761  0.00  0.00    -0.026 C 
ATOM     13  C   UNL     1      -2.938  -1.879  -1.392  0.00  0.00    -0.075 C 
ATOM     14  H   UNL     1      -0.984  -1.442  -1.906  0.00  0.00    -0.081 HD
BRANCH   9  15
ATOM     15  C   UNL     1      -1.293  -0.775   0.011  0.00  0.00    -0.043 C 
BRANCH  15  21
ATOM     16  C   UNL     1      -0.017   1.378   0.010  0.00  0.00    +0.003 A 
ATOM     17  C   UNL     1       1.171   2.086   0.002  0.00  0.00    +0.020 A 
ATOM     18  C   UNL     1       2.378   1.410  -0.013  0.00  0.00    +0.041 A 
ATOM     19  C   UNL     1       2.396   0.027  -0.021  0.00  0.00    +0.020 A 
ATOM     20  C   UNL     1       1.208  -0.679  -0.013  0.00  0.00    +0.003 A 
ATOM     21  C   UNL     1       0.002  -0.004   0.002  0.00  0.00    -0.064 A 
ATOM     22 CL   UNL     1       3.870   2.298  -0.023  0.00  0.00    -0.084 Cl
ENDBRANCH  15  21
ENDBRANCH   9  15
ENDBRANCH   1  12
BRANCH   7  23
ATOM     23  C   UNL     1      -9.279  -2.714  -5.193  0.00  0.00    +0.172 C 
BRANCH  23  24
ATOM     24  C   UNL     1     -10.306  -3.702  -5.682  0.00  0.00    +0.140 A 
ATOM     25  N   UNL     1     -11.057  -3.575  -6.825  0.00  0.00    -0.293 N 
ATOM     26  H   UNL     1     -11.016  -2.836  -7.452  0.00  0.00    +0.172 HD
ATOM     27  C   UNL     1     -11.861  -4.652  -6.927  0.00  0.00    +0.342 A 
ATOM     28  O   UNL     1     -12.662  -4.873  -7.817  0.00  0.00    -0.245 OA
ATOM     29  N   UNL     1     -11.614  -5.442  -5.860  0.00  0.00    -0.227 N 
ATOM     30  H   UNL     1     -12.042  -6.289  -5.661  0.00  0.00    +0.194 HD
ATOM     31  N   UNL     1     -10.622  -4.812  -5.096  0.00  0.00    -0.156 NA
ENDBRANCH  23  24
ENDBRANCH   7  23
TORSDOF 5
