REMARK  Name = ZINC36744415
REMARK  10 active torsions:
REMARK  status: ('A' for Active; 'I' for Inactive)
REMARK    1  A    between atoms: C_1  and  C_2
REMARK    2  A    between atoms: C_5  and  C_7
REMARK    3  A    between atoms: C_7  and  C_8
REMARK    4  A    between atoms: C_7  and  C_23
REMARK    5  A    between atoms: C_7  and  O_27
REMARK    6  A    between atoms: C_8  and  C_9
REMARK    7  A    between atoms: C_9  and  N_10
REMARK    8  A    between atoms: N_13  and  C_14
REMARK    9  A    between atoms: N_13  and  C_15
REMARK   10  A    between atoms: C_15  and  C_16
REMARK                            x       y       z     vdW  Elec       q    Type
REMARK                         _______ _______ _______ _____ _____    ______ ____
ROOT
ATOM      1  C   UNL     1       3.913  -4.088  -0.694  0.00  0.00    +0.109 C 
ENDROOT
BRANCH   1   2
ATOM      2  N   UNL     1       5.165  -3.720  -1.359  0.00  0.00    -0.299 N 
ATOM      3  C   UNL     1       6.193  -4.590  -1.391  0.00  0.00    +0.302 C 
ATOM      4  O   UNL     1       6.082  -5.682  -0.867  0.00  0.00    -0.253 OA
ATOM      5  N   UNL     1       7.345  -4.251  -2.003  0.00  0.00    -0.284 N 
ATOM      6  C   UNL     1       7.480  -2.936  -2.634  0.00  0.00    +0.134 C 
ATOM      7  H   UNL     1       5.254  -2.849  -1.777  0.00  0.00    +0.150 HD
BRANCH   5   8
ATOM      8  C   UNL     1       8.463  -5.198  -2.037  0.00  0.00    +0.144 C 
BRANCH   8   9
ATOM      9  C   UNL     1       8.355  -6.058  -3.270  0.00  0.00    -0.030 A 
ATOM     10  C   UNL     1       7.646  -7.244  -3.225  0.00  0.00    +0.006 A 
ATOM     11  C   UNL     1       7.546  -8.033  -4.356  0.00  0.00    +0.015 A 
ATOM     12  C   UNL     1       8.156  -7.636  -5.532  0.00  0.00    +0.018 A 
ATOM     13  C   UNL     1       8.865  -6.449  -5.576  0.00  0.00    +0.015 A 
ATOM     14  C   UNL     1       8.959  -5.658  -4.447  0.00  0.00    +0.006 A 
ATOM     15 BR   UNL     1       8.020  -8.715  -7.079  0.00  0.00    -0.050 Br
ENDBRANCH   8   9
ENDBRANCH   5   8
ENDBRANCH   1   2
BRANCH   1  16
ATOM     16  C   UNL     1       2.918  -2.930  -0.801  0.00  0.00    +0.071 C 
BRANCH  16  17
ATOM     17  C   UNL     1       1.628  -3.296  -0.064  0.00  0.00    +0.220 C 
BRANCH  17  22
ATOM     18  C   UNL     1       0.416  -6.854  -3.428  0.00  0.00    +0.086 C 
ATOM     19  C   UNL     1       0.515  -6.094  -2.131  0.00  0.00    +0.102 A 
ATOM     20  C   UNL     1      -0.032  -6.463  -0.959  0.00  0.00    +0.045 A 
ATOM     21  C   UNL     1       0.308  -5.466  -0.016  0.00  0.00    +0.048 A 
ATOM     22  C   UNL     1       1.043  -4.547  -0.668  0.00  0.00    +0.146 A 
ATOM     23  O   UNL     1       1.169  -4.935  -1.947  0.00  0.00    -0.462 OA
ENDBRANCH  17  22
BRANCH  17  24
ATOM     24  C   UNL     1       0.624  -2.149  -0.193  0.00  0.00    +0.425 C 
ATOM     25  F   UNL     1      -0.545  -2.472   0.503  0.00  0.00    -0.167 F 
ATOM     26  F   UNL     1       1.179  -0.982   0.342  0.00  0.00    -0.167 F 
ATOM     27  F   UNL     1       0.321  -1.944  -1.544  0.00  0.00    -0.167 F 
ENDBRANCH  17  24
BRANCH  17  28
ATOM     28  O   UNL     1       1.917  -3.524   1.317  0.00  0.00    -0.373 OA
ATOM     29  H   UNL     1       2.548  -4.240   1.474  0.00  0.00    +0.211 HD
ENDBRANCH  17  28
ENDBRANCH  16  17
ENDBRANCH   1  16
TORSDOF 8
