REMARK  Name = ZINC07647911
REMARK  7 active torsions:
REMARK  status: ('A' for Active; 'I' for Inactive)
REMARK    1  A    between atoms: C_1  and  C_2
REMARK    2  A    between atoms: C_2  and  C_3
REMARK    3  A    between atoms: C_7  and  C_14
REMARK    4  A    between atoms: C_14  and  N_47
REMARK    5  A    between atoms: C_15  and  C_17
REMARK    6  A    between atoms: C_15  and  C_23
REMARK    7  A    between atoms: C_15  and  N_47
REMARK                            x       y       z     vdW  Elec       q    Type
REMARK                         _______ _______ _______ _____ _____    ______ ____
ROOT
ATOM      1  N   UNL     1       2.205   4.096  -0.890  0.00  0.00    +0.391 N 
ATOM      2  H   UNL     1       3.096   4.133  -0.381  0.00  0.00    -0.084 HD
ATOM      3  H   UNL     1       2.297   3.461  -1.692  0.00  0.00    -0.084 HD
ENDROOT
BRANCH   1   4
ATOM      4  C   UNL     1       1.864   5.446  -1.374  0.00  0.00    -0.044 C 
BRANCH   4   9
ATOM      5  C   UNL     1       3.179   4.691  -6.327  0.00  0.00    -0.044 A 
ATOM      6  C   UNL     1       2.157   4.219  -5.516  0.00  0.00    +0.004 A 
ATOM      7  C   UNL     1       2.071   4.611  -4.210  0.00  0.00    +0.012 A 
ATOM      8  C   UNL     1       3.025   5.489  -3.685  0.00  0.00    +0.019 A 
ATOM      9  C   UNL     1       2.957   5.934  -2.290  0.00  0.00    -0.047 A 
ATOM     10  C   UNL     1       3.909   6.792  -1.844  0.00  0.00    +0.094 A 
ATOM     11  C   UNL     1       4.922   7.234  -2.722  0.00  0.00    +0.337 A 
ATOM     12  O   UNL     1       5.770   8.004  -2.310  0.00  0.00    -0.245 OA
ATOM     13  O   UNL     1       4.974   6.827  -4.000  0.00  0.00    -0.422 OA
ATOM     14  C   UNL     1       4.058   5.974  -4.506  0.00  0.00    +0.140 A 
ATOM     15  C   UNL     1       4.126   5.562  -5.831  0.00  0.00    +0.050 A 
BRANCH   5  17
ATOM     16  C   UNL     1       4.107   2.978  -7.862  0.00  0.00    +0.009 C 
ATOM     17  C   UNL     1       3.256   4.246  -7.765  0.00  0.00    +0.032 C 
ENDBRANCH   5  17
ENDBRANCH   4   9
ENDBRANCH   1   4
BRANCH   1  18
ATOM     18  C   UNL     1       1.151   3.592   0.010  0.00  0.00    +0.027 C 
BRANCH  18  19
ATOM     19  C   UNL     1       1.171   2.086   0.002  0.00  0.00    -0.054 A 
ATOM     20  C   UNL     1      -0.017   1.378   0.010  0.00  0.00    +0.002 A 
ATOM     21  C   UNL     1       0.002  -0.004   0.002  0.00  0.00    +0.000 A 
ATOM     22  C   UNL     1       1.208  -0.679  -0.014  0.00  0.00    +0.000 A 
ATOM     23  C   UNL     1       2.396   0.029  -0.021  0.00  0.00    +0.000 A 
ATOM     24  C   UNL     1       2.377   1.411  -0.014  0.00  0.00    +0.002 A 
ENDBRANCH  18  19
BRANCH  18  25
ATOM     25  C   UNL     1       1.403   4.091   1.409  0.00  0.00    +0.095 A 
ATOM     26  C   UNL     1       0.466   4.520   2.273  0.00  0.00    +0.043 A 
ATOM     27  C   UNL     1       1.140   4.889   3.460  0.00  0.00    +0.041 A 
ATOM     28  C   UNL     1       2.450   4.671   3.247  0.00  0.00    +0.195 A 
ATOM     29  O   UNL     1       2.604   4.188   2.003  0.00  0.00    -0.469 OA
ENDBRANCH  18  25
ENDBRANCH   1  18
TORSDOF 6
