REMARK  Name = ZINC65490039
REMARK  8 active torsions:
REMARK  status: ('A' for Active; 'I' for Inactive)
REMARK    1  A    between atoms: C_1  and  C_2
REMARK    2  A    between atoms: C_7  and  N_8
REMARK    3  A    between atoms: C_11  and  C_13
REMARK    4  A    between atoms: C_15  and  C_16
REMARK    5  A    between atoms: C_15  and  C_18
REMARK    6  A    between atoms: N_20  and  C_21
REMARK    7  A    between atoms: C_21  and  C_22
REMARK    8  A    between atoms: C_21  and  C_23
REMARK                            x       y       z     vdW  Elec       q    Type
REMARK                         _______ _______ _______ _____ _____    ______ ____
ROOT
ATOM      1  N   UNL     1       0.168   0.116   2.335  0.00  0.00    -0.236 N 
ATOM      2  C   UNL     1       0.380  -0.395   3.579  0.00  0.00    +0.049 A 
ATOM      3  C   UNL     1       0.384   0.646   4.438  0.00  0.00    +0.005 A 
ATOM      4  C   UNL     1       0.166   1.801   3.648  0.00  0.00    +0.137 A 
ATOM      5  N   UNL     1       0.052   1.394   2.396  0.00  0.00    -0.163 NA
ATOM      6  C   UNL     1       0.614   0.165   5.851  0.00  0.00    +0.039 C 
ATOM      7  C   UNL     1       0.326  -1.353   5.807  0.00  0.00    +0.011 C 
ATOM      8  C   UNL     1       0.608  -1.690   4.326  0.00  0.00    +0.056 C 
ENDROOT
BRANCH   1  15
ATOM      9  C   UNL     1      -2.001   0.601   0.558  0.00  0.00    +0.046 C 
ATOM     10  C   UNL     1      -0.948  -0.436   0.264  0.00  0.00    -0.025 A 
ATOM     11  C   UNL     1      -1.015  -1.180  -0.897  0.00  0.00    +0.005 A 
ATOM     12  C   UNL     1      -0.049  -2.132  -1.167  0.00  0.00    +0.000 A 
ATOM     13  C   UNL     1       0.987  -2.342  -0.276  0.00  0.00    +0.002 A 
ATOM     14  C   UNL     1       1.059  -1.602   0.888  0.00  0.00    +0.028 A 
ATOM     15  C   UNL     1       0.094  -0.641   1.159  0.00  0.00    +0.069 A 
ENDBRANCH   1  15
BRANCH   4  16
ATOM     16  C   UNL     1       0.085   3.188   4.128  0.00  0.00    +0.228 C 
ATOM     17  O   UNL     1       0.226   3.456   5.443  0.00  0.00    -0.284 OA
ATOM     18  C   UNL     1      -0.135   4.224   3.228  0.00  0.00    +0.162 C 
BRANCH  18  19
ATOM     19  C   UNL     1      -0.215   5.608   3.707  0.00  0.00    +0.258 C 
ATOM     20  O   UNL     1      -0.088   5.849   4.893  0.00  0.00    -0.269 OA
ATOM     21  N   UNL     1      -0.429   6.612   2.834  0.00  0.00    -0.308 N 
ATOM     22  H   UNL     1      -0.530   6.419   1.889  0.00  0.00    +0.149 HD
BRANCH  21  23
ATOM     23  C   UNL     1      -0.509   7.994   3.313  0.00  0.00    +0.067 C 
ATOM     24  C   UNL     1       0.900   8.580   3.416  0.00  0.00    +0.027 C 
ATOM     25  C   UNL     1      -1.337   8.827   2.332  0.00  0.00    +0.027 C 
ENDBRANCH  21  23
ENDBRANCH  18  19
BRANCH  18  26
ATOM     26  C   UNL     1      -0.285   3.940   1.833  0.00  0.00    +0.108 C 
ATOM     27  N   UNL     1      -0.403   3.715   0.725  0.00  0.00    -0.191 NA
ENDBRANCH  18  26
ENDBRANCH   4  16
TORSDOF 5
