REMARK  Name = ZINC03385426
REMARK  16 active torsions:
REMARK  status: ('A' for Active; 'I' for Inactive)
REMARK    1  A    between atoms: C_1  and  C_2
REMARK    2  A    between atoms: C_6  and  C_35
REMARK    3  A    between atoms: C_7  and  O_8
REMARK    4  A    between atoms: O_8  and  C_9
REMARK    5  A    between atoms: C_9  and  C_10
REMARK    6  A    between atoms: C_13  and  S_21
REMARK    7  A    between atoms: N_14  and  C_15
REMARK    8  A    between atoms: S_21  and  C_22
REMARK    9  A    between atoms: C_22  and  C_23
REMARK   10  A    between atoms: C_23  and  O_25
REMARK   11  A    between atoms: O_25  and  C_26
REMARK   12  A    between atoms: C_26  and  C_27
REMARK   13  A    between atoms: C_27  and  C_29
REMARK   14  A    between atoms: C_29  and  C_31
REMARK   15  A    between atoms: C_29  and  C_33
REMARK   16  A    between atoms: C_33  and  N_60
REMARK                            x       y       z     vdW  Elec       q    Type
REMARK                         _______ _______ _______ _____ _____    ______ ____
ROOT
ATOM      1  C   UNL     1       4.293   5.855  -0.007  0.00  0.00    +0.176 A 
ATOM      2  N   UNL     1       4.691   4.614  -0.018  0.00  0.00    -0.130 NA
ATOM      3  N   UNL     1       3.676   3.825  -0.007  0.00  0.00    -0.122 NA
ATOM      4  C   UNL     1       2.565   4.524   0.002  0.00  0.00    +0.197 A 
ATOM      5  N   UNL     1       2.924   5.845   0.005  0.00  0.00    -0.271 N 
ENDROOT
BRANCH   5   6
ATOM      6  C   UNL     1       2.068   6.955   0.020  0.00  0.00    +0.050 A 
ATOM      7  C   UNL     1       2.039   7.825  -1.061  0.00  0.00    +0.026 A 
ATOM      8  C   UNL     1       1.191   8.916  -1.045  0.00  0.00    +0.002 A 
ATOM      9  C   UNL     1       0.379   9.147   0.050  0.00  0.00    +0.000 A 
ATOM     10  C   UNL     1       0.410   8.285   1.131  0.00  0.00    +0.002 A 
ATOM     11  C   UNL     1       1.252   7.190   1.119  0.00  0.00    +0.026 A 
ENDBRANCH   5   6
BRANCH   1  12
ATOM     12  C   UNL     1       5.177   7.076  -0.009  0.00  0.00    +0.305 C 
BRANCH  12  13
ATOM     13  O   UNL     1       5.470   7.454   1.338  0.00  0.00    -0.484 OA
BRANCH  13  20
ATOM     14  C   UNL     1       8.258   7.027   1.491  0.00  0.00    +0.047 C 
ATOM     15  C   UNL     1       7.638   8.397   1.597  0.00  0.00    -0.009 A 
ATOM     16  C   UNL     1       8.441   9.507   1.772  0.00  0.00    +0.007 A 
ATOM     17  C   UNL     1       7.873  10.764   1.874  0.00  0.00    +0.001 A 
ATOM     18  C   UNL     1       6.501  10.913   1.798  0.00  0.00    +0.007 A 
ATOM     19  C   UNL     1       5.694   9.806   1.618  0.00  0.00    -0.009 A 
ATOM     20  C   UNL     1       6.261   8.544   1.514  0.00  0.00    +0.127 A 
ATOM     21  C   UNL     1       4.198   9.969   1.535  0.00  0.00    +0.047 C 
ENDBRANCH  13  20
ENDBRANCH  12  13
ENDBRANCH   1  12
BRANCH   4  22
ATOM     22  S   UNL     1       0.924   3.884   0.014  0.00  0.00    -0.074 S 
BRANCH  22  23
ATOM     23  C   UNL     1       1.279   2.109   0.001  0.00  0.00    +0.197 C 
BRANCH  23  24
ATOM     24  C   UNL     1      -0.016   1.338   0.009  0.00  0.00    +0.318 C 
ATOM     25  O   UNL     1      -1.071   1.928   0.018  0.00  0.00    -0.250 OA
BRANCH  24  26
ATOM     26  O   UNL     1       0.002  -0.004   0.002  0.00  0.00    -0.456 OA
BRANCH  26  27
ATOM     27  C   UNL     1      -1.282  -0.681   0.011  0.00  0.00    +0.308 C 
BRANCH  27  28
ATOM     28  C   UNL     1      -1.065  -2.172   0.001  0.00  0.00    +0.193 C 
ATOM     29  O   UNL     1       0.057  -2.618  -0.013  0.00  0.00    -0.292 OA
BRANCH  28  30
ATOM     30  C   UNL     1      -2.247  -3.106   0.007  0.00  0.00    +0.202 C 
BRANCH  30  31
ATOM     31  C   UNL     1      -2.694  -3.323   1.393  0.00  0.00    +0.080 C 
ATOM     32  N   UNL     1      -3.039  -3.490   2.462  0.00  0.00    -0.195 NA
ENDBRANCH  30  31
BRANCH  30  33
ATOM     33  C   UNL     1      -1.849  -4.425  -0.605  0.00  0.00    +0.003 C 
ATOM     34  C   UNL     1      -2.472  -4.868  -1.681  0.00  0.00    +0.028 C 
BRANCH  33  37
ATOM     35  H   UNL     1      -0.369  -4.848   0.755  0.00  0.00    +0.120 HD
ATOM     36  H   UNL     1      -0.571  -6.022  -0.429  0.00  0.00    +0.120 HD
ATOM     37  N   UNL     1      -1.009  -5.307   0.128  0.00  0.00    -0.419 NA
ATOM     38  H   UNL     1      -1.627  -5.834   0.756  0.00  0.00    +0.120 HD
ENDBRANCH  33  37
ENDBRANCH  30  33
ENDBRANCH  28  30
ENDBRANCH  27  28
ENDBRANCH  26  27
ENDBRANCH  24  26
ENDBRANCH  23  24
ENDBRANCH  22  23
ENDBRANCH   4  22
TORSDOF 14
