REMARK  Name = ZINC05488798
REMARK  7 active torsions:
REMARK  status: ('A' for Active; 'I' for Inactive)
REMARK    1  A    between atoms: C_1  and  C_2
REMARK    2  A    between atoms: C_4  and  C_27
REMARK    3  A    between atoms: C_6  and  O_8
REMARK    4  A    between atoms: O_8  and  C_9
REMARK    5  A    between atoms: C_13  and  C_21
REMARK    6  A    between atoms: C_19  and  O_20
REMARK    7  A    between atoms: C_21  and  N_51
REMARK                            x       y       z     vdW  Elec       q    Type
REMARK                         _______ _______ _______ _____ _____    ______ ____
ROOT
ATOM      1  C   UNL     1       0.558   5.072   3.164  0.00  0.00    +0.205 A 
ATOM      2  C   UNL     1       1.412   4.423   2.333  0.00  0.00    +0.245 A 
ATOM      3  O   UNL     1       1.245   3.134   2.015  0.00  0.00    -0.459 OA
ATOM      4  C   UNL     1       0.216   2.416   2.507  0.00  0.00    +0.143 A 
ATOM      5  C   UNL     1       0.058   1.085   2.168  0.00  0.00    +0.026 A 
ATOM      6  C   UNL     1      -1.013   0.358   2.695  0.00  0.00    +0.184 A 
ATOM      7  O   UNL     1      -1.165  -0.927   2.373  0.00  0.00    -0.288 OA
ATOM      8  C   UNL     1      -1.934   0.977   3.563  0.00  0.00    +0.052 A 
ATOM      9  C   UNL     1      -1.790   2.285   3.897  0.00  0.00    +0.019 A 
ATOM     10  C   UNL     1      -0.717   3.028   3.375  0.00  0.00    +0.063 A 
ATOM     11  C   UNL     1      -0.546   4.390   3.708  0.00  0.00    +0.173 A 
ENDROOT
BRANCH  11  12
ATOM     12  O   UNL     1      -1.409   5.016   4.536  0.00  0.00    -0.503 OA
ATOM     13  H   UNL     1      -1.163   4.966   5.470  0.00  0.00    +0.292 HD
ENDBRANCH  11  12
BRANCH   1  14
ATOM     14  O   UNL     1       0.763   6.383   3.463  0.00  0.00    -0.449 OA
BRANCH  14  20
ATOM     15  C   UNL     1       5.473   7.645   3.661  0.00  0.00    +0.044 C 
ATOM     16  C   UNL     1       4.138   7.644   2.962  0.00  0.00    -0.047 A 
ATOM     17  C   UNL     1       3.997   8.280   1.742  0.00  0.00    +0.007 A 
ATOM     18  C   UNL     1       2.773   8.281   1.099  0.00  0.00    -0.047 A 
ATOM     19  C   UNL     1       1.689   7.647   1.672  0.00  0.00    +0.049 A 
ATOM     20  C   UNL     1       1.828   7.008   2.896  0.00  0.00    +0.129 A 
ATOM     21  C   UNL     1       3.056   7.013   3.543  0.00  0.00    +0.049 A 
ATOM     22  C   UNL     1       2.623   8.975  -0.231  0.00  0.00    +0.044 C 
ENDBRANCH  14  20
ENDBRANCH   1  14
BRANCH   5  23
ATOM     23  C   UNL     1       1.040   0.418   1.240  0.00  0.00    -0.035 C 
BRANCH  23  29
ATOM     24  C   UNL     1      -0.665  -0.184  -0.371  0.00  0.00    -0.050 C 
ATOM     25  C   UNL     1      -1.140   0.043  -1.808  0.00  0.00    +0.141 C 
ATOM     26  O   UNL     1      -0.104  -0.346  -2.715  0.00  0.00    -0.383 OA
ATOM     27  C   UNL     1       1.123   0.364  -2.525  0.00  0.00    +0.141 C 
ATOM     28  C   UNL     1       1.621   0.140  -1.095  0.00  0.00    -0.050 C 
ATOM     29  N   UNL     1       0.574   0.590  -0.153  0.00  0.00    +0.385 N 
ATOM     30  H   UNL     1       0.381   1.585  -0.320  0.00  0.00    -0.081 HD
ENDBRANCH  23  29
ENDBRANCH   5  23
TORSDOF 5
