REMARK  Name = ZINC67427355
REMARK  6 active torsions:
REMARK  status: ('A' for Active; 'I' for Inactive)
REMARK    1  A    between atoms: C_1  and  C_2
REMARK    2  A    between atoms: C_2  and  N_3
REMARK    3  A    between atoms: C_5  and  N_8
REMARK    4  A    between atoms: C_14  and  C_17
REMARK    5  A    between atoms: C_17  and  C_19
REMARK    6  A    between atoms: C_17  and  O_26
REMARK                            x       y       z     vdW  Elec       q    Type
REMARK                         _______ _______ _______ _____ _____    ______ ____
ROOT
ATOM      1  N   UNL     1      -4.122  -2.427  -1.184  0.00  0.00    -0.267 N 
ATOM      2  C   UNL     1      -5.379  -2.551  -0.715  0.00  0.00    +0.307 C 
ATOM      3  O   UNL     1      -5.694  -2.014   0.330  0.00  0.00    -0.252 OA
ATOM      4  N   UNL     1      -6.288  -3.270  -1.403  0.00  0.00    -0.285 N 
ATOM      5  C   UNL     1      -5.895  -4.019  -2.604  0.00  0.00    +0.109 C 
ATOM      6  C   UNL     1      -6.812  -3.612  -3.762  0.00  0.00    +0.025 C 
ATOM      7  C   UNL     1      -8.271  -3.811  -3.346  0.00  0.00    +0.025 C 
ATOM      8  C   UNL     1      -8.587  -2.919  -2.143  0.00  0.00    +0.025 C 
ATOM      9  C   UNL     1      -7.689  -3.324  -0.964  0.00  0.00    +0.109 C 
ATOM     10  H   UNL     1      -3.850  -2.916  -1.976  0.00  0.00    +0.156 HD
ENDROOT
BRANCH   1  13
ATOM     11  N   UNL     1      -1.376  -0.503   0.006  0.00  0.00    -0.270 N 
ATOM     12  C   UNL     1      -1.913  -1.373  -0.887  0.00  0.00    +0.131 A 
ATOM     13  C   UNL     1      -3.203  -1.588  -0.524  0.00  0.00    +0.072 A 
ATOM     14  C   UNL     1      -3.459  -0.826   0.625  0.00  0.00    +0.157 A 
ATOM     15  N   UNL     1      -2.365  -0.183   0.945  0.00  0.00    -0.178 NA
BRANCH  11  17
ATOM     16  C   UNL     1      -0.025   1.536  -0.001  0.00  0.00    +0.029 C 
ATOM     17  C   UNL     1      -0.002   0.007  -0.005  0.00  0.00    +0.140 C 
ENDBRANCH  11  17
ENDBRANCH   1  13
BRANCH   7  18
ATOM     18  C   UNL     1      -9.189  -3.437  -4.512  0.00  0.00    +0.148 C 
BRANCH  18  19
ATOM     19  C   UNL     1     -10.626  -3.633  -4.103  0.00  0.00    -0.019 A 
ATOM     20  C   UNL     1     -11.180  -4.899  -4.111  0.00  0.00    +0.007 A 
ATOM     21  C   UNL     1     -12.498  -5.080  -3.735  0.00  0.00    +0.020 A 
ATOM     22  C   UNL     1     -13.263  -3.992  -3.352  0.00  0.00    +0.041 A 
ATOM     23  C   UNL     1     -12.708  -2.725  -3.345  0.00  0.00    +0.020 A 
ATOM     24  C   UNL     1     -11.388  -2.547  -3.714  0.00  0.00    +0.007 A 
ATOM     25 CL   UNL     1     -14.918  -4.218  -2.881  0.00  0.00    -0.084 Cl
ENDBRANCH  18  19
BRANCH  18  26
ATOM     26  O   UNL     1      -8.896  -4.271  -5.635  0.00  0.00    -0.387 OA
ATOM     27  H   UNL     1      -9.018  -5.215  -5.467  0.00  0.00    +0.210 HD
ENDBRANCH  18  26
ENDBRANCH   7  18
TORSDOF 5
