REMARK  Name = ZINC39503689
REMARK  4 active torsions:
REMARK  status: ('A' for Active; 'I' for Inactive)
REMARK    1  A    between atoms: C_4  and  O_26
REMARK    2  A    between atoms: C_5  and  C_7
REMARK    3  A    between atoms: N_17  and  C_18
REMARK    4  A    between atoms: C_23  and  O_24
REMARK                            x       y       z     vdW  Elec       q    Type
REMARK                         _______ _______ _______ _____ _____    ______ ____
ROOT
ATOM      1  C   UNL     1       1.227  -2.187  -0.022  0.00  0.00    +0.025 C 
ATOM      2  C   UNL     1       0.455  -2.743   1.193  0.00  0.00    +0.010 C 
ATOM      3  C   UNL     1      -0.294  -3.997   0.701  0.00  0.00    +0.026 C 
ATOM      4  C   UNL     1       0.039  -4.143  -0.790  0.00  0.00    +0.037 C 
ATOM      5  C   UNL     1       0.456  -2.732  -1.252  0.00  0.00    +0.034 C 
ATOM      6  C   UNL     1      -1.188  -4.623  -1.577  0.00  0.00    +0.041 C 
ATOM      7  C   UNL     1      -0.561  -5.555  -2.651  0.00  0.00    +0.071 C 
ATOM      8  C   UNL     1       0.618  -6.186  -1.868  0.00  0.00    +0.119 C 
ATOM      9  N   UNL     1       1.122  -5.101  -1.002  0.00  0.00    -0.320 N 
ATOM     10  I   UNL     1      -1.971  -7.068  -3.282  0.00  0.00    -0.080 I 
ENDROOT
BRANCH   1  15
ATOM     11  C   UNL     1      -0.017   1.378   0.010  0.00  0.00    +0.001 A 
ATOM     12  C   UNL     1       1.170   2.088   0.002  0.00  0.00    +0.004 A 
ATOM     13  C   UNL     1       2.377   1.417  -0.013  0.00  0.00    +0.046 A 
ATOM     14  C   UNL     1       2.399   0.030  -0.021  0.00  0.00    +0.120 A 
ATOM     15  C   UNL     1       1.207  -0.680  -0.013  0.00  0.00    -0.003 A 
ATOM     16  C   UNL     1       0.002  -0.004   0.002  0.00  0.00    +0.007 A 
BRANCH  14  17
ATOM     17  O   UNL     1       3.586  -0.632  -0.037  0.00  0.00    -0.506 OA
ATOM     18  H   UNL     1       3.938  -0.829   0.842  0.00  0.00    +0.292 HD
ENDBRANCH  14  17
ENDBRANCH   1  15
BRANCH   9  19
ATOM     19  C   UNL     1       2.415  -5.007  -0.475  0.00  0.00    +0.072 A 
ATOM     20  C   UNL     1       2.707  -5.577   0.756  0.00  0.00    +0.027 A 
ATOM     21  C   UNL     1       3.985  -5.483   1.274  0.00  0.00    +0.002 A 
ATOM     22  C   UNL     1       4.974  -4.822   0.570  0.00  0.00    +0.004 A 
ATOM     23  C   UNL     1       4.689  -4.251  -0.657  0.00  0.00    +0.047 A 
ATOM     24  C   UNL     1       3.413  -4.345  -1.186  0.00  0.00    +0.138 A 
BRANCH  24  25
ATOM     25  O   UNL     1       3.133  -3.788  -2.395  0.00  0.00    -0.505 OA
ATOM     26  H   UNL     1       2.835  -2.870  -2.346  0.00  0.00    +0.292 HD
ENDBRANCH  24  25
ENDBRANCH   9  19
TORSDOF 4
