REMARK  Name = ZINC33937109
REMARK  10 active torsions:
REMARK  status: ('A' for Active; 'I' for Inactive)
REMARK    1  A    between atoms: C_1  and  C_2
REMARK    2  A    between atoms: C_2  and  C_3
REMARK    3  A    between atoms: C_3  and  C_5
REMARK    4  A    between atoms: C_3  and  N_17
REMARK    5  A    between atoms: N_9  and  C_10
REMARK    6  A    between atoms: C_10  and  C_11
REMARK    7  A    between atoms: N_17  and  C_18
REMARK    8  A    between atoms: N_17  and  C_26
REMARK    9  A    between atoms: C_18  and  C_19
REMARK   10  A    between atoms: C_26  and  C_27
REMARK                            x       y       z     vdW  Elec       q    Type
REMARK                         _______ _______ _______ _____ _____    ______ ____
ROOT
ATOM      1  N   UNL     1      -2.251   0.089   1.978  0.00  0.00    +0.392 N 
ATOM      2  H   UNL     1      -1.672  -0.329   2.691  0.00  0.00    -0.080 HD
ENDROOT
BRANCH   1   3
ATOM      3  C   UNL     1      -1.628  -0.111   0.663  0.00  0.00    +0.003 C 
BRANCH   3   4
ATOM      4  C   UNL     1      -2.475   0.542  -0.399  0.00  0.00    +0.138 A 
ATOM      5  N   UNL     1      -3.782   0.503  -0.491  0.00  0.00    -0.115 NA
ATOM      6  N   UNL     1      -4.128   1.180  -1.531  0.00  0.00    -0.023 NA
ATOM      7  N   UNL     1      -3.076   1.650  -2.105  0.00  0.00    -0.044 NA
ATOM      8  N   UNL     1      -2.037   1.282  -1.434  0.00  0.00    -0.228 N 
BRANCH   8   9
ATOM      9  C   UNL     1      -0.642   1.607  -1.743  0.00  0.00    +0.178 C 
BRANCH   9  10
ATOM     10  C   UNL     1      -0.108   0.623  -2.786  0.00  0.00    +0.140 C 
ATOM     11  C   UNL     1       1.337   1.004  -3.194  0.00  0.00    +0.035 C 
ATOM     12  C   UNL     1       1.878  -0.368  -3.680  0.00  0.00    +0.031 C 
ATOM     13  C   UNL     1       1.156  -1.356  -2.738  0.00  0.00    +0.160 C 
ATOM     14  O   UNL     1      -0.006  -0.694  -2.223  0.00  0.00    -0.375 OA
ENDBRANCH   9  10
ENDBRANCH   8   9
ENDBRANCH   3   4
BRANCH   3  16
ATOM     15  C   UNL     1      -0.596  -2.260   1.411  0.00  0.00    +0.002 C 
ATOM     16  C   UNL     1      -1.514  -1.609   0.374  0.00  0.00    -0.011 C 
ENDBRANCH   3  16
ENDBRANCH   1   3
BRANCH   1  17
ATOM     17  C   UNL     1      -2.390   1.527   2.240  0.00  0.00    -0.042 C 
BRANCH  17  18
ATOM     18  C   UNL     1      -1.024   2.147   2.381  0.00  0.00    -0.064 A 
ATOM     19  C   UNL     1      -0.362   2.092   3.594  0.00  0.00    +0.004 A 
ATOM     20  C   UNL     1       0.891   2.659   3.724  0.00  0.00    +0.038 A 
ATOM     21  C   UNL     1       1.485   3.283   2.639  0.00  0.00    +0.123 A 
ATOM     22  C   UNL     1       0.821   3.337   1.425  0.00  0.00    +0.038 A 
ATOM     23  C   UNL     1      -0.430   2.765   1.296  0.00  0.00    +0.004 A 
ATOM     24  F   UNL     1       2.710   3.838   2.766  0.00  0.00    -0.205 F 
ENDBRANCH  17  18
ENDBRANCH   1  17
BRANCH   1  25
ATOM     25  C   UNL     1      -3.578  -0.542   1.992  0.00  0.00    -0.036 C 
BRANCH  25  26
ATOM     26  C   UNL     1      -4.154  -0.468   3.382  0.00  0.00    +0.001 A 
ATOM     27  C   UNL     1      -5.013   0.532   3.706  0.00  0.00    +0.017 A 
ATOM     28  C   UNL     1      -5.555   0.577   5.063  0.00  0.00    +0.002 A 
ATOM     29  C   UNL     1      -6.444   1.587   5.453  0.00  0.00    +0.059 A 
ATOM     30  C   UNL     1      -6.937   1.603   6.739  0.00  0.00    +0.167 A 
ATOM     31  C   UNL     1      -6.554   0.615   7.654  0.00  0.00    +0.168 A 
ATOM     32  C   UNL     1      -5.678  -0.386   7.278  0.00  0.00    +0.075 A 
ATOM     33  C   UNL     1      -5.171  -0.416   5.985  0.00  0.00    +0.053 A 
ATOM     34  N   UNL     1      -4.294  -1.407   5.592  0.00  0.00    -0.322 N 
ATOM     35  H   UNL     1      -4.030  -2.091   6.227  0.00  0.00    +0.169 HD
ATOM     36  C   UNL     1      -3.805  -1.441   4.340  0.00  0.00    +0.251 A 
ATOM     37  O   UNL     1      -3.035  -2.333   4.027  0.00  0.00    -0.268 OA
ATOM     38  O   UNL     1      -7.180   0.861   8.842  0.00  0.00    -0.453 OA
ATOM     39  C   UNL     1      -7.621   2.229   8.771  0.00  0.00    +0.466 C 
ATOM     40  O   UNL     1      -7.800   2.460   7.361  0.00  0.00    -0.453 OA
ENDBRANCH  25  26
ENDBRANCH   1  25
TORSDOF 9
