REMARK  Name = ZINC40151600
REMARK  4 active torsions:
REMARK  status: ('A' for Active; 'I' for Inactive)
REMARK    1  A    between atoms: C_1  and  C_2
REMARK    2  A    between atoms: C_2  and  C_4
REMARK    3  A    between atoms: C_2  and  N_11
REMARK    4  A    between atoms: C_18  and  C_20
REMARK                            x       y       z     vdW  Elec       q    Type
REMARK                         _______ _______ _______ _____ _____    ______ ____
ROOT
ATOM      1  N   UNL     1       0.711  -0.489   1.189  0.00  0.00    -0.293 N 
ATOM      2  C   UNL     1       2.054  -0.600   1.174  0.00  0.00    +0.303 C 
ATOM      3  O   UNL     1       2.677  -0.297   0.175  0.00  0.00    -0.253 OA
ATOM      4  N   UNL     1       2.706  -1.046   2.266  0.00  0.00    -0.276 N 
ATOM      5  C   UNL     1       2.077  -1.453   3.535  0.00  0.00    +0.110 C 
ATOM      6  C   UNL     1       3.186  -1.276   4.602  0.00  0.00    +0.021 C 
ATOM      7  C   UNL     1       4.448  -1.719   3.816  0.00  0.00    +0.032 C 
ATOM      8  C   UNL     1       4.161  -1.215   2.385  0.00  0.00    +0.146 C 
ATOM      9  H   UNL     1       0.213  -0.731   1.986  0.00  0.00    +0.151 HD
ENDROOT
BRANCH   8  10
ATOM     10  C   UNL     1       4.645  -2.224   1.376  0.00  0.00    +0.154 A 
ATOM     11  N   UNL     1       4.076  -3.364   1.085  0.00  0.00    -0.132 NA
ATOM     12  N   UNL     1       4.756  -3.967   0.173  0.00  0.00    -0.134 NA
ATOM     13  C   UNL     1       5.784  -3.239  -0.158  0.00  0.00    +0.134 A 
ATOM     14  N   UNL     1       5.746  -2.118   0.599  0.00  0.00    -0.313 N 
ATOM     15  C   UNL     1       6.717  -1.024   0.585  0.00  0.00    +0.125 C 
ATOM     16  C   UNL     1       7.361  -0.933  -0.801  0.00  0.00    +0.022 C 
ATOM     17  C   UNL     1       8.598  -1.828  -0.854  0.00  0.00    +0.002 C 
ATOM     18  C   UNL     1       8.214  -3.286  -0.615  0.00  0.00    +0.008 C 
ATOM     19  C   UNL     1       6.829  -3.556  -1.196  0.00  0.00    +0.076 C 
ENDBRANCH   8  10
BRANCH   1  21
ATOM     20  C   UNL     1      -0.019   1.526   0.010  0.00  0.00    +0.033 C 
ATOM     21  C   UNL     1       0.002  -0.004   0.002  0.00  0.00    +0.102 C 
BRANCH  21  22
ATOM     22  C   UNL     1      -1.412  -0.526   0.013  0.00  0.00    -0.027 A 
ATOM     23  C   UNL     1      -2.122  -0.571   1.198  0.00  0.00    +0.008 A 
ATOM     24  C   UNL     1      -3.419  -1.048   1.209  0.00  0.00    +0.038 A 
ATOM     25  C   UNL     1      -4.006  -1.482   0.032  0.00  0.00    +0.123 A 
ATOM     26  C   UNL     1      -3.294  -1.437  -1.154  0.00  0.00    +0.038 A 
ATOM     27  C   UNL     1      -1.999  -0.954  -1.163  0.00  0.00    +0.008 A 
ATOM     28  F   UNL     1      -5.274  -1.950   0.042  0.00  0.00    -0.205 F 
ENDBRANCH  21  22
ENDBRANCH   1  21
TORSDOF 3
