REMARK  Name = ZINC00083905
REMARK  5 active torsions:
REMARK  status: ('A' for Active; 'I' for Inactive)
REMARK    1  A    between atoms: C_1  and  C_2
REMARK    2  A    between atoms: C_5  and  C_25
REMARK    3  A    between atoms: N_6  and  C_7
REMARK    4  A    between atoms: C_10  and  C_13
REMARK    5  A    between atoms: N_18  and  C_19
REMARK                            x       y       z     vdW  Elec       q    Type
REMARK                         _______ _______ _______ _____ _____    ______ ____
ROOT
ATOM      1  C   UNL     1      -1.165   2.163   0.020  0.00  0.00    +0.047 A 
ATOM      2  C   UNL     1      -2.028   2.152  -1.070  0.00  0.00    +0.027 A 
ATOM      3  C   UNL     1      -3.162   2.935  -1.061  0.00  0.00    +0.013 A 
ATOM      4  C   UNL     1      -3.438   3.748   0.040  0.00  0.00    +0.020 A 
ATOM      5  C   UNL     1      -2.567   3.760   1.130  0.00  0.00    +0.013 A 
ATOM      6  C   UNL     1      -1.437   2.971   1.117  0.00  0.00    +0.027 A 
ENDROOT
BRANCH   1  12
ATOM      7  C   UNL     1       1.698   3.261   0.003  0.00  0.00    +0.064 C 
ATOM      8  C   UNL     1       1.272   1.816  -0.000  0.00  0.00    +0.021 A 
ATOM      9  C   UNL     1       2.095   0.748  -0.014  0.00  0.00    +0.023 A 
ATOM     10  C   UNL     1       1.289  -0.408  -0.012  0.00  0.00    +0.023 A 
ATOM     11  C   UNL     1       0.002  -0.004   0.002  0.00  0.00    +0.021 A 
ATOM     12  N   UNL     1      -0.016   1.362   0.009  0.00  0.00    -0.318 N 
ATOM     13  C   UNL     1      -1.206  -0.904   0.008  0.00  0.00    +0.064 C 
ENDBRANCH   1  12
BRANCH   4  14
ATOM     14  C   UNL     1      -4.652   4.593   0.050  0.00  0.00    +0.169 A 
ATOM     15  N   UNL     1      -5.169   5.170   1.099  0.00  0.00    -0.128 NA
ATOM     16  N   UNL     1      -6.306   5.880   0.688  0.00  0.00    -0.121 NA
ATOM     17  C   UNL     1      -6.443   5.693  -0.641  0.00  0.00    +0.207 A 
ATOM     18  S   UNL     1      -7.680   6.343  -1.630  0.00  0.00    -0.009 SA
ATOM     19  N   UNL     1      -5.431   4.902  -1.049  0.00  0.00    -0.270 N 
BRANCH  19  20
ATOM     20  C   UNL     1      -5.207   4.467  -2.362  0.00  0.00    +0.051 A 
ATOM     21  C   UNL     1      -4.074   4.883  -3.049  0.00  0.00    +0.026 A 
ATOM     22  C   UNL     1      -3.854   4.449  -4.341  0.00  0.00    +0.002 A 
ATOM     23  C   UNL     1      -4.765   3.609  -4.955  0.00  0.00    +0.000 A 
ATOM     24  C   UNL     1      -5.897   3.197  -4.276  0.00  0.00    +0.002 A 
ATOM     25  C   UNL     1      -6.120   3.624  -2.981  0.00  0.00    +0.026 A 
ENDBRANCH  19  20
ENDBRANCH   4  14
TORSDOF 3
