REMARK  Name = ZINC32859752
REMARK  8 active torsions:
REMARK  status: ('A' for Active; 'I' for Inactive)
REMARK    1  A    between atoms: C_1  and  C_2
REMARK    2  A    between atoms: C_4  and  C_25
REMARK    3  A    between atoms: C_5  and  N_9
REMARK    4  A    between atoms: C_10  and  C_12
REMARK    5  A    between atoms: C_12  and  N_13
REMARK    6  A    between atoms: C_14  and  C_24
REMARK    7  A    between atoms: C_16  and  C_23
REMARK    8  A    between atoms: C_17  and  C_20
REMARK                            x       y       z     vdW  Elec       q    Type
REMARK                         _______ _______ _______ _____ _____    ______ ____
ROOT
ATOM      1  C   UNL     1       2.226   5.540   0.614  0.00  0.00    +0.221 C 
ENDROOT
BRANCH   1   2
ATOM      2  N   UNL     1       3.520   6.101   1.010  0.00  0.00    -0.303 N 
ATOM      3  C   UNL     1       4.278   6.743   0.090  0.00  0.00    +0.020 A 
ATOM      4  C   UNL     1       5.480   7.281   0.419  0.00  0.00    +0.025 A 
ATOM      5  C   UNL     1       5.963   7.170   1.723  0.00  0.00    -0.031 A 
ATOM      6  C   UNL     1       5.191   6.506   2.674  0.00  0.00    +0.104 A 
ATOM      7  C   UNL     1       3.938   5.966   2.283  0.00  0.00    +0.264 A 
ATOM      8  O   UNL     1       3.244   5.381   3.096  0.00  0.00    -0.267 OA
ATOM      9  C   UNL     1       7.299   7.758   2.097  0.00  0.00    +0.045 C 
ATOM     10  C   UNL     1       3.775   6.867  -1.325  0.00  0.00    +0.063 C 
BRANCH   6  11
ATOM     11  C   UNL     1       5.665   6.368   4.060  0.00  0.00    +0.247 C 
ATOM     12  O   UNL     1       6.801   6.696   4.349  0.00  0.00    -0.270 OA
ATOM     13  N   UNL     1       4.843   5.877   5.008  0.00  0.00    -0.325 N 
ATOM     14  H   UNL     1       5.198   5.774   6.044  0.00  0.00    +0.145 HD
ATOM     15  H   UNL     1       3.817   5.580   4.746  0.00  0.00    +0.145 HD
ENDBRANCH   6  11
ENDBRANCH   1   2
BRANCH   1  17
ATOM     16  N   UNL     1       1.342   3.374  -0.190  0.00  0.00    -0.283 N 
ATOM     17  C   UNL     1       2.405   4.098   0.215  0.00  0.00    +0.237 C 
ATOM     18  O   UNL     1       3.505   3.589   0.257  0.00  0.00    -0.274 OA
ATOM     19  H   UNL     1       0.355   3.851  -0.283  0.00  0.00    +0.155 HD
BRANCH  16  24
ATOM     20  C   UNL     1       1.960  -2.133  -1.408  0.00  0.00    +0.044 C 
ATOM     21  C   UNL     1       1.796  -0.671  -1.084  0.00  0.00    -0.049 A 
ATOM     22  C   UNL     1       1.023   0.135  -1.900  0.00  0.00    +0.008 A 
ATOM     23  C   UNL     1       0.871   1.475  -1.607  0.00  0.00    -0.028 A 
ATOM     24  C   UNL     1       1.494   2.015  -0.490  0.00  0.00    +0.055 A 
ATOM     25  C   UNL     1       2.270   1.204   0.329  0.00  0.00    +0.063 A 
ATOM     26  C   UNL     1       2.419  -0.137   0.029  0.00  0.00    +0.025 A 
ATOM     27 CL   UNL     1       3.052   1.874   1.727  0.00  0.00    -0.082 Cl
ATOM     28  C   UNL     1       0.033   2.353  -2.501  0.00  0.00    +0.046 C 
ENDBRANCH  16  24
ENDBRANCH   1  17
TORSDOF 4
