REMARK  Name = ZINC09220066
REMARK  7 active torsions:
REMARK  status: ('A' for Active; 'I' for Inactive)
REMARK    1  A    between atoms: C_1  and  C_2
REMARK    2  A    between atoms: C_7  and  C_33
REMARK    3  A    between atoms: N_9  and  S_10
REMARK    4  A    between atoms: S_10  and  C_13
REMARK    5  A    between atoms: C_16  and  N_19
REMARK    6  A    between atoms: N_19  and  S_20
REMARK    7  A    between atoms: S_20  and  C_23
REMARK                            x       y       z     vdW  Elec       q    Type
REMARK                         _______ _______ _______ _____ _____    ______ ____
ROOT
ATOM      1  C   UNL     1       0.970  -3.358  -3.636  0.00  0.00    +0.106 A 
ATOM      2  C   UNL     1      -0.352  -2.982  -3.789  0.00  0.00    +0.030 A 
ATOM      3  C   UNL     1      -0.886  -1.991  -2.989  0.00  0.00    +0.026 A 
ATOM      4  C   UNL     1      -0.095  -1.372  -2.030  0.00  0.00    +0.048 A 
ATOM      5  C   UNL     1       1.234  -1.749  -1.883  0.00  0.00    +0.026 A 
ATOM      6  C   UNL     1       1.761  -2.744  -2.682  0.00  0.00    +0.030 A 
ENDROOT
BRANCH   1   7
ATOM      7  S   UNL     1       1.648  -4.622  -4.659  0.00  0.00    +0.061 S 
ATOM      8  O   UNL     1       2.891  -4.992  -4.078  0.00  0.00    -0.153 OA
ATOM      9  O   UNL     1       0.606  -5.560  -4.890  0.00  0.00    -0.153 OA
BRANCH   7  16
ATOM     10  C   UNL     1       4.137  -3.342  -5.085  0.00  0.00    +0.026 C 
ATOM     11  C   UNL     1       3.251  -3.193  -6.323  0.00  0.00    +0.077 C 
ATOM     12  C   UNL     1       3.972  -3.776  -7.548  0.00  0.00    +0.020 C 
ATOM     13  C   UNL     1       3.027  -3.747  -8.751  0.00  0.00    +0.003 C 
ATOM     14  C   UNL     1       1.799  -4.611  -8.459  0.00  0.00    +0.020 C 
ATOM     15  C   UNL     1       1.056  -4.042  -7.246  0.00  0.00    +0.077 C 
ATOM     16  N   UNL     1       1.997  -3.932  -6.124  0.00  0.00    -0.171 NA
ATOM     17  C   UNL     1       0.501  -2.658  -7.588  0.00  0.00    +0.026 C 
ENDBRANCH   7  16
ENDBRANCH   1   7
BRANCH   4  18
ATOM     18  N   UNL     1      -0.632  -0.369  -1.220  0.00  0.00    -0.216 N 
ATOM     19  H   UNL     1      -0.800   0.513  -1.587  0.00  0.00    +0.174 HD
BRANCH  18  20
ATOM     20  S   UNL     1      -0.982  -0.686   0.367  0.00  0.00    +0.072 S 
ATOM     21  O   UNL     1      -1.561   0.497   0.900  0.00  0.00    -0.150 OA
ATOM     22  O   UNL     1       0.179  -1.285   0.927  0.00  0.00    -0.150 OA
BRANCH  20  23
ATOM     23  C   UNL     1      -2.243  -1.917   0.387  0.00  0.00    +0.109 A 
ATOM     24  C   UNL     1      -1.905  -3.256   0.323  0.00  0.00    +0.030 A 
ATOM     25  C   UNL     1      -2.888  -4.224   0.339  0.00  0.00    +0.025 A 
ATOM     26  C   UNL     1      -4.230  -3.858   0.420  0.00  0.00    +0.037 A 
ATOM     27  C   UNL     1      -4.556  -2.509   0.484  0.00  0.00    -0.016 A 
ATOM     28  C   UNL     1      -3.574  -1.545   0.468  0.00  0.00    +0.034 A 
ATOM     29  C   UNL     1      -6.064  -2.439   0.563  0.00  0.00    +0.133 C 
ATOM     30  C   UNL     1      -6.501  -3.889   0.534  0.00  0.00    +0.222 C 
ATOM     31  O   UNL     1      -7.642  -4.298   0.577  0.00  0.00    -0.275 OA
ATOM     32  N   UNL     1      -5.388  -4.636   0.451  0.00  0.00    -0.285 N 
ATOM     33  H   UNL     1      -5.389  -5.606   0.417  0.00  0.00    +0.155 HD
ENDBRANCH  20  23
ENDBRANCH  18  20
ENDBRANCH   4  18
TORSDOF 5
