REMARK  Name = ZINC19218824
REMARK  6 active torsions:
REMARK  status: ('A' for Active; 'I' for Inactive)
REMARK    1  A    between atoms: C_1  and  C_2
REMARK    2  A    between atoms: N_17  and  C_20
REMARK    3  A    between atoms: C_20  and  C_21
REMARK    4  A    between atoms: N_23  and  C_24
REMARK    5  A    between atoms: C_24  and  C_25
REMARK    6  A    between atoms: C_25  and  N_26
REMARK                            x       y       z     vdW  Elec       q    Type
REMARK                         _______ _______ _______ _____ _____    ______ ____
ROOT
ATOM      1  C   UNL     1       7.785  -2.703   3.156  0.00  0.00    +0.044 C 
ATOM      2  C   UNL     1       6.343  -2.287   3.024  0.00  0.00    -0.050 A 
ATOM      3  C   UNL     1       5.649  -1.840   4.138  0.00  0.00    +0.007 A 
ATOM      4  C   UNL     1       4.326  -1.455   4.037  0.00  0.00    +0.047 A 
ATOM      5  C   UNL     1       3.684  -1.516   2.812  0.00  0.00    +0.135 A 
ATOM      6  C   UNL     1       4.386  -1.968   1.683  0.00  0.00    +0.079 A 
ATOM      7  C   UNL     1       5.718  -2.352   1.795  0.00  0.00    +0.020 A 
ATOM      8  C   UNL     1       3.663  -2.018   0.396  0.00  0.00    +0.250 C 
ATOM      9  O   UNL     1       4.110  -2.638  -0.550  0.00  0.00    -0.270 OA
ATOM     10  N   UNL     1       2.490  -1.354   0.304  0.00  0.00    -0.274 N 
ATOM     11  C   UNL     1       2.005  -0.539   1.428  0.00  0.00    +0.180 C 
ATOM     12  O   UNL     1       2.389  -1.151   2.669  0.00  0.00    -0.468 OA
ATOM     13  C   UNL     1       0.484  -0.492   1.367  0.00  0.00    +0.078 C 
ATOM     14  C   UNL     1       0.002  -0.004   0.002  0.00  0.00    +0.101 C 
ATOM     15  C   UNL     1      -0.018   1.511   0.010  0.00  0.00    +0.216 C 
ATOM     16  O   UNL     1      -1.077   2.103   0.019  0.00  0.00    -0.276 OA
ATOM     17  N   UNL     1       1.127   2.191   0.003  0.00  0.00    -0.292 N 
ATOM     18  C   UNL     1       2.414   1.476  -0.023  0.00  0.00    +0.114 C 
ATOM     19  C   UNL     1       2.651   0.837   1.344  0.00  0.00    +0.088 C 
ATOM     20  H   UNL     1       1.897  -1.425  -0.620  0.00  0.00    +0.153 HD
ENDROOT
BRANCH  17  21
ATOM     21  C   UNL     1       1.106   3.656   0.021  0.00  0.00    +0.203 C 
BRANCH  21  22
ATOM     22  C   UNL     1       1.118   4.141   1.447  0.00  0.00    +0.230 C 
ATOM     23  O   UNL     1       1.142   3.342   2.359  0.00  0.00    -0.274 OA
ATOM     24  N   UNL     1       1.103   5.463   1.709  0.00  0.00    -0.313 N 
ATOM     25  H   UNL     1       1.081   6.188   0.882  0.00  0.00    +0.149 HD
BRANCH  24  26
ATOM     26  C   UNL     1       1.114   5.935   3.096  0.00  0.00    +0.123 C 
BRANCH  26  27
ATOM     27  C   UNL     1       1.092   7.465   3.114  0.00  0.00    +0.126 C 
BRANCH  27  28
ATOM     28  N   UNL     1       1.104   7.937   4.501  0.00  0.00    -0.300 N 
ATOM     29  C   UNL     1      -0.102   8.192   5.299  0.00  0.00    +0.108 C 
ATOM     30  C   UNL     1       0.381   8.234   6.768  0.00  0.00    +0.028 C 
ATOM     31  C   UNL     1       1.859   8.655   6.600  0.00  0.00    +0.097 C 
ATOM     32  C   UNL     1       2.219   8.198   5.204  0.00  0.00    +0.216 C 
ATOM     33  O   UNL     1       3.350   8.084   4.781  0.00  0.00    -0.276 OA
ENDBRANCH  27  28
ENDBRANCH  26  27
ENDBRANCH  24  26
ENDBRANCH  21  22
ENDBRANCH  17  21
TORSDOF 5
