REMARK  Name = ZINC21882617
REMARK  7 active torsions:
REMARK  status: ('A' for Active; 'I' for Inactive)
REMARK    1  A    between atoms: C_1  and  C_2
REMARK    2  A    between atoms: C_2  and  C_3
REMARK    3  A    between atoms: C_2  and  C_4
REMARK    4  A    between atoms: C_2  and  C_5
REMARK    5  A    between atoms: C_18  and  C_20
REMARK    6  A    between atoms: C_20  and  C_21
REMARK    7  A    between atoms: C_21  and  C_22
REMARK                            x       y       z     vdW  Elec       q    Type
REMARK                         _______ _______ _______ _____ _____    ______ ____
ROOT
ATOM      1  C   UNL     1     -10.336  -0.469   9.451  0.00  0.00    -0.000 C 
ATOM      2  C   UNL     1     -10.946  -1.772   8.925  0.00  0.00    +0.009 C 
ATOM      3  C   UNL     1      -9.842  -2.688   8.399  0.00  0.00    +0.037 C 
ATOM      4  C   UNL     1      -8.989  -1.910   7.401  0.00  0.00    -0.023 A 
ATOM      5  C   UNL     1      -9.013  -0.561   7.378  0.00  0.00    -0.004 A 
ATOM      6  S   UNL     1      -7.891  -0.103   6.084  0.00  0.00    -0.073 S 
ATOM      7  C   UNL     1      -7.392  -1.729   5.578  0.00  0.00    +0.116 A 
ATOM      8  C   UNL     1      -8.117  -2.574   6.433  0.00  0.00    +0.075 A 
ATOM      9  C   UNL     1      -7.904  -3.979   6.243  0.00  0.00    +0.260 A 
ATOM     10  O   UNL     1      -8.488  -4.793   6.936  0.00  0.00    -0.267 OA
ATOM     11  N   UNL     1      -7.052  -4.384   5.282  0.00  0.00    -0.310 N 
ATOM     12  H   UNL     1      -6.882  -5.457   5.115  0.00  0.00    +0.170 HD
ATOM     13  C   UNL     1      -6.388  -3.490   4.504  0.00  0.00    +0.111 A 
ATOM     14  N   UNL     1      -6.562  -2.204   4.653  0.00  0.00    -0.227 NA
ATOM     15  C   UNL     1      -9.816   0.347   8.259  0.00  0.00    +0.046 C 
ENDROOT
BRANCH   1  17
ATOM     16  C   UNL     1     -12.564   0.644   9.248  0.00  0.00    +0.011 C 
ATOM     17  C   UNL     1     -11.404   0.334  10.196  0.00  0.00    -0.035 C 
ATOM     18  C   UNL     1     -11.919  -0.482  11.383  0.00  0.00    +0.011 C 
ATOM     19  C   UNL     1     -10.796   1.643  10.703  0.00  0.00    +0.011 C 
ENDBRANCH   1  17
BRANCH  13  20
ATOM     20  C   UNL     1      -5.440  -3.991   3.446  0.00  0.00    +0.083 C 
BRANCH  20  21
ATOM     21  C   UNL     1      -4.827  -2.801   2.706  0.00  0.00    +0.103 C 
BRANCH  21  22
ATOM     22  C   UNL     1      -3.878  -3.303   1.648  0.00  0.00    +0.216 C 
ATOM     23  O   UNL     1      -3.708  -4.494   1.500  0.00  0.00    -0.276 OA
ATOM     24  N   UNL     1      -3.217  -2.426   0.865  0.00  0.00    -0.298 N 
ATOM     25  C   UNL     1      -2.287  -2.894  -0.173  0.00  0.00    +0.126 C 
ATOM     26  C   UNL     1      -0.954  -2.158   0.000  0.00  0.00    +0.125 C 
ATOM     27  N   UNL     1      -1.196  -0.709   0.010  0.00  0.00    -0.314 N 
ATOM     28  C   UNL     1      -2.030  -0.316   1.153  0.00  0.00    +0.125 C 
ATOM     29  C   UNL     1      -3.407  -0.977   1.028  0.00  0.00    +0.126 C 
ATOM     30  C   UNL     1       0.002  -0.004   0.002  0.00  0.00    +0.099 A 
ATOM     31  C   UNL     1      -0.017   1.387   0.010  0.00  0.00    +0.042 A 
ATOM     32  C   UNL     1       1.182   2.076   0.002  0.00  0.00    +0.005 A 
ATOM     33  C   UNL     1       2.365   1.348  -0.013  0.00  0.00    +0.018 A 
ATOM     34  C   UNL     1       2.310  -0.031  -0.020  0.00  0.00    +0.084 A 
ATOM     35  N   UNL     1       1.151  -0.662  -0.013  0.00  0.00    -0.350 N 
ATOM     36  H   UNL     1       1.154  -1.762  -0.018  0.00  0.00    +0.166 HD
ENDBRANCH  21  22
ENDBRANCH  20  21
ENDBRANCH  13  20
TORSDOF 4
