REMARK  Name = ZINC39596287
REMARK  10 active torsions:
REMARK  status: ('A' for Active; 'I' for Inactive)
REMARK    1  A    between atoms: C_1  and  C_2
REMARK    2  A    between atoms: C_2  and  C_4
REMARK    3  A    between atoms: C_2  and  O_30
REMARK    4  A    between atoms: C_4  and  N_5
REMARK    5  A    between atoms: C_6  and  C_8
REMARK    6  A    between atoms: C_19  and  C_21
REMARK    7  A    between atoms: C_21  and  C_22
REMARK    8  A    between atoms: C_22  and  C_23
REMARK    9  A    between atoms: C_23  and  C_24
REMARK   10  A    between atoms: O_30  and  C_31
REMARK                            x       y       z     vdW  Elec       q    Type
REMARK                         _______ _______ _______ _____ _____    ______ ____
ROOT
ATOM      1  C   UNL     1       1.548  -4.330   2.667  0.00  0.00    +0.100 C 
ATOM      2  C   UNL     1       2.531  -4.928   1.635  0.00  0.00    +0.121 C 
ATOM      3  N   UNL     1       3.814  -5.048   2.367  0.00  0.00    -0.300 N 
ATOM      4  C   UNL     1       3.424  -5.495   3.725  0.00  0.00    +0.115 C 
ATOM      5  C   UNL     1       2.136  -4.707   4.037  0.00  0.00    -0.004 C 
ATOM      6  C   UNL     1       1.154  -5.583   4.809  0.00  0.00    -0.010 C 
ATOM      7  C   UNL     1       1.735  -5.897   6.191  0.00  0.00    -0.082 C 
ATOM      8  N   UNL     1       1.981  -4.645   6.917  0.00  0.00    +0.379 N 
ATOM      9  C   UNL     1       2.995  -3.850   6.215  0.00  0.00    -0.082 C 
ATOM     10  C   UNL     1       2.467  -3.449   4.834  0.00  0.00    -0.010 C 
ATOM     11  C   UNL     1       5.056  -4.807   1.901  0.00  0.00    +0.216 C 
ATOM     12  O   UNL     1       6.015  -4.952   2.629  0.00  0.00    -0.276 OA
ATOM     13  H   UNL     1       1.122  -4.117   6.974  0.00  0.00    -0.086 HD
ATOM     14  H   UNL     1       2.306  -4.856   7.848  0.00  0.00    -0.086 HD
ENDROOT
BRANCH   1  16
ATOM     15  N   UNL     1       0.353  -2.172   2.849  0.00  0.00    -0.312 N 
ATOM     16  C   UNL     1       1.481  -2.831   2.519  0.00  0.00    +0.218 C 
ATOM     17  O   UNL     1       2.442  -2.219   2.104  0.00  0.00    -0.275 OA
ATOM     18  H   UNL     1      -0.416  -2.662   3.180  0.00  0.00    +0.149 HD
BRANCH  15  19
ATOM     19  C   UNL     1       0.288  -0.715   2.705  0.00  0.00    +0.148 C 
BRANCH  19  21
ATOM     20  C   UNL     1      -1.204   1.281   2.878  0.00  0.00    +0.053 C 
ATOM     21  C   UNL     1      -1.092  -0.221   3.144  0.00  0.00    +0.187 C 
BRANCH  21  22
ATOM     22  O   UNL     1      -1.267  -0.472   4.540  0.00  0.00    -0.488 OA
BRANCH  22  23
ATOM     23  C   UNL     1      -2.544  -0.579   4.993  0.00  0.00    +0.121 A 
ATOM     24  C   UNL     1      -3.607  -0.340   4.135  0.00  0.00    +0.048 A 
ATOM     25  C   UNL     1      -4.905  -0.449   4.597  0.00  0.00    +0.042 A 
ATOM     26  C   UNL     1      -5.144  -0.796   5.916  0.00  0.00    +0.124 A 
ATOM     27  C   UNL     1      -4.083  -1.034   6.773  0.00  0.00    +0.042 A 
ATOM     28  C   UNL     1      -2.785  -0.932   6.312  0.00  0.00    +0.048 A 
ATOM     29  F   UNL     1      -6.413  -0.901   6.366  0.00  0.00    -0.205 F 
ENDBRANCH  22  23
ENDBRANCH  21  22
ENDBRANCH  19  21
ENDBRANCH  15  19
ENDBRANCH   1  16
BRANCH  11  30
ATOM     30  C   UNL     1       5.252  -4.356   0.477  0.00  0.00    +0.096 C 
BRANCH  30  31
ATOM     31  C   UNL     1       6.745  -4.154   0.207  0.00  0.00    +0.014 C 
BRANCH  31  32
ATOM     32  C   UNL     1       6.944  -3.696  -1.239  0.00  0.00    +0.035 C 
BRANCH  32  33
ATOM     33  C   UNL     1       8.414  -3.497  -1.504  0.00  0.00    -0.047 A 
ATOM     34  C   UNL     1       8.998  -2.265  -1.272  0.00  0.00    +0.003 A 
ATOM     35  C   UNL     1      10.347  -2.083  -1.515  0.00  0.00    +0.000 A 
ATOM     36  C   UNL     1      11.111  -3.132  -1.991  0.00  0.00    +0.000 A 
ATOM     37  C   UNL     1      10.528  -4.363  -2.223  0.00  0.00    +0.000 A 
ATOM     38  C   UNL     1       9.180  -4.547  -1.975  0.00  0.00    +0.003 A 
ENDBRANCH  32  33
ENDBRANCH  31  32
ENDBRANCH  30  31
ENDBRANCH  11  30
TORSDOF 9
