REMARK  Name = ZINC09042853
REMARK  10 active torsions:
REMARK  status: ('A' for Active; 'I' for Inactive)
REMARK    1  A    between atoms: C_1  and  C_2
REMARK    2  A    between atoms: C_2  and  O_3
REMARK    3  A    between atoms: O_3  and  C_4
REMARK    4  A    between atoms: C_6  and  C_11
REMARK    5  A    between atoms: C_9  and  O_10
REMARK    6  A    between atoms: C_13  and  C_26
REMARK    7  A    between atoms: C_20  and  C_24
REMARK    8  A    between atoms: C_21  and  C_23
REMARK    9  A    between atoms: C_26  and  C_28
REMARK   10  A    between atoms: C_31  and  C_34
REMARK                            x       y       z     vdW  Elec       q    Type
REMARK                         _______ _______ _______ _____ _____    ______ ____
ROOT
ATOM      1  C   UNL     1       4.008   3.199  -0.050  0.00  0.00    +0.152 C 
ATOM      2  C   UNL     1       3.757   1.709  -0.054  0.00  0.00    +0.077 C 
ATOM      3  C   UNL     1       4.969   1.110  -0.144  0.00  0.00    +0.250 C 
ATOM      4  C   UNL     1       6.020   2.146  -0.195  0.00  0.00    +0.293 C 
ATOM      5  O   UNL     1       7.213   1.926  -0.278  0.00  0.00    -0.266 OA
ATOM      6  N   UNL     1       5.463   3.369  -0.137  0.00  0.00    -0.232 N 
ATOM      7  C   UNL     1       6.144   4.578  -0.160  0.00  0.00    +0.169 A 
ATOM      8  N   UNL     1       7.443   4.797  -0.241  0.00  0.00    -0.229 NA
ATOM      9  C   UNL     1       7.930   6.022  -0.251  0.00  0.00    +0.050 A 
ATOM     10  C   UNL     1       7.064   7.062  -0.176  0.00  0.00    +0.011 A 
ATOM     11  S   UNL     1       5.505   6.192  -0.097  0.00  0.00    -0.057 S 
ATOM     12  C   UNL     1       7.339   8.544  -0.168  0.00  0.00    +0.053 C 
ATOM     13  C   UNL     1       9.415   6.260  -0.344  0.00  0.00    +0.066 C 
ATOM     14  O   UNL     1       5.182  -0.226  -0.182  0.00  0.00    -0.282 OA
ENDROOT
BRANCH   1  17
ATOM     15  C   UNL     1       1.851   5.108   2.394  0.00  0.00    +0.162 A 
ATOM     16  C   UNL     1       2.328   4.552   1.218  0.00  0.00    +0.055 A 
ATOM     17  C   UNL     1       3.494   3.808   1.229  0.00  0.00    -0.018 A 
ATOM     18  C   UNL     1       4.191   3.627   2.409  0.00  0.00    +0.009 A 
ATOM     19  C   UNL     1       3.724   4.184   3.584  0.00  0.00    +0.049 A 
ATOM     20  C   UNL     1       2.553   4.926   3.582  0.00  0.00    +0.158 A 
BRANCH  20  21
ATOM     21  O   UNL     1       2.092   5.474   4.738  0.00  0.00    -0.503 OA
ATOM     22  H   UNL     1       2.648   5.329   5.676  0.00  0.00    +0.292 HD
ENDBRANCH  20  21
BRANCH  15  23
ATOM     23  O   UNL     1       0.702   5.835   2.387  0.00  0.00    -0.489 OA
BRANCH  23  25
ATOM     24  C   UNL     1      -1.212   6.841   1.308  0.00  0.00    +0.048 C 
ATOM     25  C   UNL     1      -0.021   5.894   1.156  0.00  0.00    +0.226 C 
ENDBRANCH  23  25
ENDBRANCH  15  23
ENDBRANCH   1  17
BRANCH   2  26
ATOM     26  C   UNL     1       2.455   1.042   0.020  0.00  0.00    +0.195 C 
ATOM     27  O   UNL     1       2.167   0.378   0.998  0.00  0.00    -0.287 OA
BRANCH  26  28
ATOM     28  C   UNL     1       1.492   1.175  -1.093  0.00  0.00    +0.022 A 
ATOM     29  C   UNL     1       0.284   0.474  -1.064  0.00  0.00    +0.012 A 
ATOM     30  C   UNL     1      -0.607   0.599  -2.109  0.00  0.00    +0.004 A 
ATOM     31  C   UNL     1      -0.313   1.425  -3.179  0.00  0.00    -0.050 A 
ATOM     32  C   UNL     1       0.882   2.122  -3.215  0.00  0.00    +0.004 A 
ATOM     33  C   UNL     1       1.785   2.003  -2.179  0.00  0.00    +0.012 A 
ATOM     34  C   UNL     1      -1.294   1.560  -4.315  0.00  0.00    +0.044 C 
ENDBRANCH  26  28
ENDBRANCH   2  26
TORSDOF 6
