REMARK  Name = ZINC60207517
REMARK  10 active torsions:
REMARK  status: ('A' for Active; 'I' for Inactive)
REMARK    1  A    between atoms: C_1  and  C_2
REMARK    2  A    between atoms: C_2  and  C_3
REMARK    3  A    between atoms: C_2  and  C_4
REMARK    4  A    between atoms: C_4  and  C_6
REMARK    5  A    between atoms: C_4  and  N_20
REMARK    6  A    between atoms: N_8  and  C_9
REMARK    7  A    between atoms: C_9  and  C_10
REMARK    8  A    between atoms: N_15  and  C_17
REMARK    9  A    between atoms: C_17  and  C_18
REMARK   10  A    between atoms: C_17  and  C_19
REMARK                            x       y       z     vdW  Elec       q    Type
REMARK                         _______ _______ _______ _____ _____    ______ ____
ROOT
ATOM      1  C   UNL     1      -1.385  -0.633  -0.056  0.00  0.00    +0.160 C 
ENDROOT
BRANCH   1   2
ATOM      2  N   UNL     1      -1.703  -2.030   0.252  0.00  0.00    -0.316 N 
ATOM      3  C   UNL     1      -1.648  -2.478   1.554  0.00  0.00    +0.150 C 
ATOM      4  N   UNL     1      -1.321  -1.670   2.511  0.00  0.00    -0.113 NA
ATOM      5  S   UNL     1      -1.370  -2.580   3.915  0.00  0.00    +0.101 S 
ATOM      6  O   UNL     1      -0.038  -2.706   4.396  0.00  0.00    -0.146 OA
ATOM      7  O   UNL     1      -2.447  -2.098   4.706  0.00  0.00    -0.146 OA
ATOM      8  C   UNL     1      -1.851  -4.148   3.243  0.00  0.00    +0.123 A 
ATOM      9  C   UNL     1      -1.966  -3.878   1.872  0.00  0.00    +0.043 A 
ATOM     10  C   UNL     1      -2.347  -4.939   1.036  0.00  0.00    +0.013 A 
ATOM     11  C   UNL     1      -2.598  -6.185   1.564  0.00  0.00    +0.001 A 
ATOM     12  C   UNL     1      -2.481  -6.419   2.923  0.00  0.00    +0.002 A 
ATOM     13  C   UNL     1      -2.096  -5.385   3.764  0.00  0.00    +0.030 A 
ATOM     14  H   UNL     1      -1.953  -2.639  -0.461  0.00  0.00    +0.148 HD
ENDBRANCH   1   2
BRANCH   1  15
ATOM     15  C   UNL     1      -2.074  -0.231  -1.335  0.00  0.00    +0.234 C 
ATOM     16  O   UNL     1      -2.512  -1.081  -2.081  0.00  0.00    -0.274 OA
ATOM     17  N   UNL     1      -2.204   1.073  -1.649  0.00  0.00    -0.314 N 
ATOM     18  H   UNL     1      -1.924   1.754  -1.018  0.00  0.00    +0.149 HD
BRANCH  17  19
ATOM     19  C   UNL     1      -2.768   1.462  -2.944  0.00  0.00    +0.106 C 
BRANCH  19  20
ATOM     20  C   UNL     1      -2.804   2.988  -3.047  0.00  0.00    -0.011 C 
ATOM     21  C   UNL     1      -3.772   3.549  -2.001  0.00  0.00    +0.001 C 
ATOM     22  C   UNL     1      -3.861   5.069  -2.164  0.00  0.00    -0.018 C 
ATOM     23  C   UNL     1      -4.296   5.398  -3.593  0.00  0.00    -0.078 C 
ATOM     24  N   UNL     1      -3.317   4.859  -4.544  0.00  0.00    +0.381 N 
ATOM     25  C   UNL     1      -3.278   3.395  -4.444  0.00  0.00    -0.074 C 
ATOM     26  H   UNL     1      -2.404   5.233  -4.334  0.00  0.00    -0.081 HD
BRANCH  24  27
ATOM     27  C   UNL     1      -3.698   5.245  -5.909  0.00  0.00    -0.075 C 
ATOM     28  C   UNL     1      -3.729   6.770  -6.019  0.00  0.00    -0.014 C 
ATOM     29  C   UNL     1      -2.678   4.683  -6.902  0.00  0.00    -0.014 C 
ENDBRANCH  24  27
ENDBRANCH  19  20
ENDBRANCH  17  19
ENDBRANCH   1  15
BRANCH   1  31
ATOM     30  C   UNL     1       0.822  -0.806   1.102  0.00  0.00    +0.009 C 
ATOM     31  C   UNL     1       0.128  -0.479  -0.222  0.00  0.00    +0.012 C 
ATOM     32  C   UNL     1       0.622  -1.438  -1.307  0.00  0.00    +0.009 C 
ENDBRANCH   1  31
TORSDOF 6
