REMARK  Name = ZINC63279831
REMARK  8 active torsions:
REMARK  status: ('A' for Active; 'I' for Inactive)
REMARK    1  A    between atoms: C_4  and  N_7
REMARK    2  A    between atoms: C_8  and  C_10
REMARK    3  A    between atoms: C_10  and  C_11
REMARK    4  A    between atoms: C_11  and  C_12
REMARK    5  A    between atoms: N_16  and  C_20
REMARK    6  A    between atoms: C_17  and  O_19
REMARK    7  A    between atoms: C_20  and  C_21
REMARK    8  A    between atoms: C_21  and  C_22
REMARK                            x       y       z     vdW  Elec       q    Type
REMARK                         _______ _______ _______ _____ _____    ______ ____
ROOT
ATOM      1  C   UNL     1       6.045  -4.964   0.346  0.00  0.00    +0.197 C 
ATOM      2  C   UNL     1       5.821  -6.454   0.517  0.00  0.00    +0.248 C 
ATOM      3  O   UNL     1       5.248  -7.014   1.427  0.00  0.00    -0.273 OA
ATOM      4  N   UNL     1       6.396  -7.020  -0.565  0.00  0.00    -0.224 N 
ATOM      5  C   UNL     1       6.946  -6.062  -1.378  0.00  0.00    +0.285 C 
ATOM      6  N   UNL     1       6.787  -4.858  -0.920  0.00  0.00    -0.224 NA
ENDROOT
BRANCH   5   7
ATOM      7  O   UNL     1       7.589  -6.343  -2.533  0.00  0.00    -0.481 OA
ATOM      8  H   UNL     1       7.923  -5.562  -2.996  0.00  0.00    +0.295 HD
ENDBRANCH   5   7
BRANCH   1   9
ATOM      9  C   UNL     1       4.708  -4.227   0.249  0.00  0.00    +0.045 C 
BRANCH   9  10
ATOM     10  C   UNL     1       4.962  -2.721   0.153  0.00  0.00    +0.098 C 
BRANCH  10  12
ATOM     11  N   UNL     1       3.622  -0.651  -0.037  0.00  0.00    -0.285 N 
ATOM     12  C   UNL     1       3.645  -1.995   0.057  0.00  0.00    +0.217 C 
ATOM     13  O   UNL     1       2.606  -2.620   0.064  0.00  0.00    -0.275 OA
ATOM     14  H   UNL     1       4.452  -0.156  -0.121  0.00  0.00    +0.155 HD
BRANCH  11  18
ATOM     15  C   UNL     1      -0.015   1.381   0.029  0.00  0.00    +0.000 A 
ATOM     16  C   UNL     1       0.140   0.218   0.763  0.00  0.00    +0.002 A 
ATOM     17  C   UNL     1       1.344  -0.457   0.743  0.00  0.00    +0.023 A 
ATOM     18  C   UNL     1       2.400   0.031  -0.015  0.00  0.00    +0.033 A 
ATOM     19  C   UNL     1       2.241   1.198  -0.751  0.00  0.00    +0.023 A 
ATOM     20  C   UNL     1       1.034   1.870  -0.727  0.00  0.00    +0.002 A 
ENDBRANCH  11  18
ENDBRANCH  10  12
ENDBRANCH   9  10
ENDBRANCH   1   9
BRANCH   4  21
ATOM     21  C   UNL     1       6.429  -8.460  -0.833  0.00  0.00    +0.122 C 
BRANCH  21  22
ATOM     22  C   UNL     1       5.194  -8.856  -1.645  0.00  0.00    +0.052 C 
BRANCH  22  23
ATOM     23  C   UNL     1       5.229 -10.338  -1.920  0.00  0.00    -0.040 C 
ATOM     24  C   UNL     1       4.620 -11.312  -1.206  0.00  0.00    +0.002 A 
ATOM     25  C   UNL     1       3.776 -11.284  -0.005  0.00  0.00    +0.048 A 
ATOM     26  C   UNL     1       3.301 -12.452   0.490  0.00  0.00    +0.124 A 
ATOM     27  C   UNL     1       3.595 -13.684  -0.116  0.00  0.00    +0.040 A 
ATOM     28  C   UNL     1       4.363 -13.787  -1.221  0.00  0.00    +0.029 A 
ATOM     29  C   UNL     1       4.915 -12.624  -1.826  0.00  0.00    +0.043 A 
ATOM     30  N   UNL     1       5.676 -12.467  -2.881  0.00  0.00    -0.380 N 
ATOM     31  C   UNL     1       5.945 -11.035  -3.055  0.00  0.00    +0.144 C 
ATOM     32  F   UNL     1       2.525 -12.430   1.596  0.00  0.00    -0.205 F 
ATOM     33  H   UNL     1       6.003 -13.178  -3.454  0.00  0.00    +0.160 HD
ENDBRANCH  22  23
ENDBRANCH  21  22
ENDBRANCH   4  21
TORSDOF 8
