REMARK  Name = ZINC67643228
REMARK  3 active torsions:
REMARK  status: ('A' for Active; 'I' for Inactive)
REMARK    1  A    between atoms: C_6  and  C_7
REMARK    2  A    between atoms: C_12  and  C_13
REMARK    3  A    between atoms: C_20  and  C_22
REMARK                            x       y       z     vdW  Elec       q    Type
REMARK                         _______ _______ _______ _____ _____    ______ ____
ROOT
ATOM      1  C   UNL     1      -1.077  -2.684  -2.035  0.00  0.00    +0.055 C 
ATOM      2  C   UNL     1      -1.048  -4.213  -1.962  0.00  0.00    +0.013 C 
ATOM      3  C   UNL     1      -0.150  -4.761  -3.073  0.00  0.00    +0.020 C 
ATOM      4  C   UNL     1      -0.723  -4.354  -4.434  0.00  0.00    +0.108 C 
ATOM      5  N   UNL     1      -0.890  -2.894  -4.459  0.00  0.00    -0.296 N 
ATOM      6  C   UNL     1      -1.660  -2.253  -3.385  0.00  0.00    +0.117 C 
ATOM      7  C   UNL     1      -0.347  -2.158  -5.449  0.00  0.00    +0.268 C 
ATOM      8  O   UNL     1      -0.583  -0.967  -5.520  0.00  0.00    -0.268 OA
ENDROOT
BRANCH   7   9
ATOM      9  C   UNL     1       0.533  -2.797  -6.447  0.00  0.00    +0.165 A 
ATOM     10  C   UNL     1       1.074  -2.187  -7.604  0.00  0.00    +0.090 A 
ATOM     11  C   UNL     1       1.813  -3.148  -8.209  0.00  0.00    +0.125 A 
ATOM     12  N   UNL     1       1.713  -4.267  -7.448  0.00  0.00    -0.283 N 
ATOM     13  H   UNL     1       2.143  -5.113  -7.645  0.00  0.00    +0.188 HD
ATOM     14  N   UNL     1       0.969  -4.041  -6.425  0.00  0.00    -0.168 NA
ATOM     15 CL   UNL     1       0.841  -0.551  -8.137  0.00  0.00    -0.080 Cl
ENDBRANCH   7   9
BRANCH   1  21
ATOM     16  C   UNL     1      -1.530  -1.298   0.070  0.00  0.00    +0.023 A 
ATOM     17  C   UNL     1      -2.644  -1.041   0.892  0.00  0.00    +0.143 A 
ATOM     18  N   UNL     1      -3.662  -1.708   0.415  0.00  0.00    -0.181 NA
ATOM     19  N   UNL     1      -3.242  -2.410  -0.720  0.00  0.00    -0.281 N 
ATOM     20  H   UNL     1      -3.796  -2.986  -1.271  0.00  0.00    +0.189 HD
ATOM     21  C   UNL     1      -1.935  -2.143  -0.921  0.00  0.00    +0.048 A 
BRANCH  16  27
ATOM     22  C   UNL     1       0.017   0.624   0.434  0.00  0.00    +0.011 A 
ATOM     23  C   UNL     1       1.288   1.135   0.598  0.00  0.00    +0.039 A 
ATOM     24  C   UNL     1       2.385   0.288   0.577  0.00  0.00    +0.123 A 
ATOM     25  C   UNL     1       2.210  -1.073   0.390  0.00  0.00    +0.039 A 
ATOM     26  C   UNL     1       0.942  -1.592   0.225  0.00  0.00    +0.011 A 
ATOM     27  C   UNL     1      -0.163  -0.744   0.247  0.00  0.00    -0.015 A 
ATOM     28  F   UNL     1       3.628   0.792   0.738  0.00  0.00    -0.205 F 
ENDBRANCH  16  27
ENDBRANCH   1  21
TORSDOF 3
