REMARK  Name = ZINC40324361
REMARK  6 active torsions:
REMARK  status: ('A' for Active; 'I' for Inactive)
REMARK    1  A    between atoms: C_1  and  C_2
REMARK    2  A    between atoms: C_2  and  C_4
REMARK    3  A    between atoms: C_2  and  N_11
REMARK    4  A    between atoms: N_11  and  S_12
REMARK    5  A    between atoms: S_12  and  C_15
REMARK    6  A    between atoms: N_17  and  C_21
REMARK                            x       y       z     vdW  Elec       q    Type
REMARK                         _______ _______ _______ _____ _____    ______ ____
ROOT
ATOM      1  S   UNL     1      -0.124  -0.785   2.592  0.00  0.00    +0.064 S 
ATOM      2  O   UNL     1       0.759  -1.112   3.656  0.00  0.00    -0.153 OA
ATOM      3  O   UNL     1      -1.008   0.326   2.650  0.00  0.00    -0.153 OA
ENDROOT
BRANCH   1   4
ATOM      4  C   UNL     1      -1.123  -2.209   2.310  0.00  0.00    +0.164 A 
ATOM      5  C   UNL     1      -2.471  -2.227   2.203  0.00  0.00    +0.138 A 
ATOM      6  N   UNL     1      -2.853  -3.504   1.990  0.00  0.00    -0.271 N 
ATOM      7  N   UNL     1      -1.702  -4.302   1.965  0.00  0.00    -0.155 NA
ATOM      8  C   UNL     1      -0.661  -3.525   2.151  0.00  0.00    +0.165 A 
ATOM      9  N   UNL     1       0.677  -3.937   2.188  0.00  0.00    -0.340 N 
ATOM     10  C   UNL     1      -4.229  -3.974   1.817  0.00  0.00    +0.172 C 
ATOM     11  H   UNL     1       1.385  -3.278   2.260  0.00  0.00    +0.144 HD
ATOM     12  H   UNL     1       0.895  -4.881   2.140  0.00  0.00    +0.144 HD
ENDBRANCH   1   4
BRANCH   1  13
ATOM     13  N   UNL     1       0.816  -0.573   1.246  0.00  0.00    -0.183 NA
ATOM     14  H   UNL     1       1.781  -0.654   1.310  0.00  0.00    +0.149 HD
BRANCH  13  16
ATOM     15  C   UNL     1       0.210   1.253  -0.265  0.00  0.00    +0.031 C 
ATOM     16  C   UNL     1       0.192  -0.261  -0.043  0.00  0.00    +0.103 C 
BRANCH  16  17
ATOM     17  C   UNL     1       0.956  -0.940  -1.149  0.00  0.00    -0.029 A 
ATOM     18  C   UNL     1       2.337  -0.991  -1.105  0.00  0.00    +0.006 A 
ATOM     19  C   UNL     1       3.038  -1.614  -2.120  0.00  0.00    +0.015 A 
ATOM     20  C   UNL     1       2.359  -2.188  -3.179  0.00  0.00    +0.018 A 
ATOM     21  C   UNL     1       0.977  -2.138  -3.223  0.00  0.00    +0.015 A 
ATOM     22  C   UNL     1       0.276  -1.519  -2.205  0.00  0.00    +0.006 A 
ATOM     23 BR   UNL     1       3.318  -3.041  -4.568  0.00  0.00    -0.050 Br
ENDBRANCH  16  17
ENDBRANCH  13  16
ENDBRANCH   1  13
TORSDOF 4
