REMARK  Name = ZINC39851405
REMARK  12 active torsions:
REMARK  status: ('A' for Active; 'I' for Inactive)
REMARK    1  A    between atoms: C_1  and  C_2
REMARK    2  A    between atoms: C_2  and  N_3
REMARK    3  A    between atoms: C_4  and  N_25
REMARK    4  A    between atoms: C_5  and  C_13
REMARK    5  A    between atoms: C_6  and  C_12
REMARK    6  A    between atoms: C_7  and  C_10
REMARK    7  A    between atoms: N_17  and  C_21
REMARK    8  A    between atoms: C_21  and  C_22
REMARK    9  A    between atoms: N_25  and  C_26
REMARK   10  A    between atoms: C_26  and  C_27
REMARK   11  A    between atoms: C_30  and  O_33
REMARK   12  A    between atoms: O_33  and  C_34
REMARK                            x       y       z     vdW  Elec       q    Type
REMARK                         _______ _______ _______ _____ _____    ______ ____
ROOT
ATOM      1  N   UNL     1      -1.266  -0.609   0.064  0.00  0.00    -0.296 N 
ATOM      2  C   UNL     1      -1.947  -0.700   1.235  0.00  0.00    +0.109 A 
ATOM      3  C   UNL     1      -3.121  -1.467   1.320  0.00  0.00    +0.019 A 
ATOM      4  C   UNL     1      -3.589  -2.142   0.181  0.00  0.00    -0.017 A 
ATOM      5  C   UNL     1      -2.873  -2.033  -1.008  0.00  0.00    +0.120 A 
ATOM      6  C   UNL     1      -1.696  -1.241  -1.042  0.00  0.00    +0.270 A 
ATOM      7  O   UNL     1      -1.068  -1.137  -2.081  0.00  0.00    -0.266 OA
ATOM      8  C   UNL     1      -4.845  -2.972   0.244  0.00  0.00    +0.046 C 
ENDROOT
BRANCH   3   9
ATOM      9  C   UNL     1      -3.850  -1.562   2.586  0.00  0.00    +0.032 C 
ATOM     10  C   UNL     1      -5.094  -1.020   2.697  0.00  0.00    +0.077 C 
ATOM     11  C   UNL     1      -5.875  -0.330   1.721  0.00  0.00    +0.259 C 
ATOM     12  O   UNL     1      -5.452  -0.150   0.593  0.00  0.00    -0.269 OA
ATOM     13  N   UNL     1      -7.070   0.107   2.078  0.00  0.00    -0.244 N 
ATOM     14  C   UNL     1      -7.539  -0.093   3.330  0.00  0.00    +0.121 C 
ATOM     15  S   UNL     1      -9.040   0.381   4.002  0.00  0.00    -0.027 S 
ATOM     16  S   UNL     1      -6.197  -0.984   4.103  0.00  0.00    -0.061 S 
BRANCH  13  17
ATOM     17  C   UNL     1      -7.900   0.818   1.102  0.00  0.00    +0.240 C 
BRANCH  17  18
ATOM     18  C   UNL     1      -8.757  -0.170   0.356  0.00  0.00    +0.373 C 
ATOM     19  O   UNL     1      -8.683  -1.359   0.615  0.00  0.00    -0.245 OA
ATOM     20  O   UNL     1      -9.526   0.219  -0.507  0.00  0.00    -0.245 OA
ENDBRANCH  17  18
ENDBRANCH  13  17
ENDBRANCH   3   9
BRANCH   1  22
ATOM     21  C   UNL     1      -0.411   1.660  -0.260  0.00  0.00    +0.027 C 
ATOM     22  C   UNL     1      -0.045   0.198   0.003  0.00  0.00    +0.123 C 
ENDBRANCH   1  22
BRANCH   5  23
ATOM     23  C   UNL     1      -3.323  -2.709  -2.187  0.00  0.00    +0.105 C 
ATOM     24  N   UNL     1      -3.680  -3.245  -3.123  0.00  0.00    -0.191 NA
ENDBRANCH   5  23
BRANCH   2  25
ATOM     25  N   UNL     1      -1.488  -0.041   2.338  0.00  0.00    -0.326 N 
ATOM     26  H   UNL     1      -1.708   0.894   2.472  0.00  0.00    +0.148 HD
BRANCH  25  27
ATOM     27  C   UNL     1      -0.661  -0.747   3.321  0.00  0.00    +0.138 C 
BRANCH  27  28
ATOM     28  C   UNL     1      -0.390   0.161   4.493  0.00  0.00    -0.030 A 
ATOM     29  C   UNL     1       0.721   0.985   4.485  0.00  0.00    +0.009 A 
ATOM     30  C   UNL     1       0.972   1.817   5.559  0.00  0.00    +0.046 A 
ATOM     31  C   UNL     1       0.108   1.826   6.645  0.00  0.00    +0.120 A 
ATOM     32  C   UNL     1      -1.005   0.999   6.650  0.00  0.00    +0.046 A 
ATOM     33  C   UNL     1      -1.255   0.172   5.572  0.00  0.00    +0.009 A 
BRANCH  31  34
ATOM     34  O   UNL     1       0.354   2.644   7.702  0.00  0.00    -0.495 OA
ATOM     35  C   UNL     1      -0.578   2.601   8.786  0.00  0.00    +0.277 C 
ENDBRANCH  31  34
ENDBRANCH  27  28
ENDBRANCH  25  27
ENDBRANCH   2  25
TORSDOF 9
