REMARK  Name = ZINC17122241
REMARK  7 active torsions:
REMARK  status: ('A' for Active; 'I' for Inactive)
REMARK    1  A    between atoms: N_12  and  O_13
REMARK    2  A    between atoms: O_13  and  C_14
REMARK    3  A    between atoms: C_14  and  C_15
REMARK    4  A    between atoms: C_15  and  C_17
REMARK    5  A    between atoms: C_15  and  O_24
REMARK    6  A    between atoms: C_17  and  N_48
REMARK    7  A    between atoms: C_18  and  N_48
REMARK                            x       y       z     vdW  Elec       q    Type
REMARK                         _______ _______ _______ _____ _____    ______ ____
ROOT
ATOM      1  C   UNL     1       1.403   3.531   0.038  0.00  0.00    +0.292 C 
ENDROOT
BRANCH   1   2
ATOM      2  O   UNL     1       2.743   4.017   0.132  0.00  0.00    -0.391 OA
BRANCH   2  14
ATOM      3  C   UNL     1       6.136   2.951   0.999  0.00  0.00    +0.002 A 
ATOM      4  C   UNL     1       5.038   3.776   0.902  0.00  0.00    +0.011 A 
ATOM      5  C   UNL     1       5.197   5.129   0.576  0.00  0.00    +0.014 A 
ATOM      6  C   UNL     1       6.484   5.634   0.350  0.00  0.00    +0.035 A 
ATOM      7  C   UNL     1       7.584   4.785   0.444  0.00  0.00    +0.055 A 
ATOM      8  C   UNL     1       7.408   3.452   0.774  0.00  0.00    +0.021 A 
ATOM      9 CL   UNL     1       9.181   5.405   0.165  0.00  0.00    -0.082 Cl
ATOM     10  S   UNL     1       6.746   7.332  -0.044  0.00  0.00    -0.123 S 
ATOM     11  C   UNL     1       5.107   7.918  -0.559  0.00  0.00    +0.081 C 
ATOM     12  C   UNL     1       4.085   7.474   0.497  0.00  0.00    +0.070 C 
ATOM     13  C   UNL     1       3.996   5.973   0.475  0.00  0.00    +0.089 C 
ATOM     14  N   UNL     1       2.835   5.410   0.369  0.00  0.00    -0.089 NA
ENDBRANCH   2  14
ENDBRANCH   1   2
BRANCH   1  15
ATOM     15  C   UNL     1       1.424   2.022  -0.218  0.00  0.00    +0.138 C 
BRANCH  15  16
ATOM     16  O   UNL     1       2.010   1.764  -1.496  0.00  0.00    -0.390 OA
ATOM     17  H   UNL     1       1.538   2.173  -2.235  0.00  0.00    +0.210 HD
ENDBRANCH  15  16
BRANCH  15  18
ATOM     18  C   UNL     1      -0.007   1.481  -0.195  0.00  0.00    -0.047 C 
BRANCH  18  19
ATOM     19  N   UNL     1       0.030   0.012  -0.322  0.00  0.00    +0.383 N 
ATOM     20  H   UNL     1       0.565  -0.383   0.461  0.00  0.00    -0.085 HD
ATOM     21  H   UNL     1       0.483  -0.240  -1.208  0.00  0.00    -0.085 HD
BRANCH  19  22
ATOM     22  C   UNL     1      -1.339  -0.538  -0.302  0.00  0.00    -0.072 C 
ATOM     23  C   UNL     1      -1.788  -0.738   1.147  0.00  0.00    -0.016 C 
ATOM     24  C   UNL     1      -3.204  -1.317   1.167  0.00  0.00    -0.002 C 
ATOM     25  C   UNL     1      -3.215  -2.663   0.440  0.00  0.00    -0.000 C 
ATOM     26  C   UNL     1      -2.765  -2.464  -1.009  0.00  0.00    -0.002 C 
ATOM     27  C   UNL     1      -1.349  -1.885  -1.029  0.00  0.00    -0.016 C 
ENDBRANCH  19  22
ENDBRANCH  18  19
ENDBRANCH  15  18
ENDBRANCH   1  15
TORSDOF 7
