REMARK  Name = ZINC20872903
REMARK  12 active torsions:
REMARK  status: ('A' for Active; 'I' for Inactive)
REMARK    1  A    between atoms: C_1  and  C_2
REMARK    2  A    between atoms: C_2  and  C_4
REMARK    3  A    between atoms: C_2  and  N_10
REMARK    4  A    between atoms: N_10  and  C_11
REMARK    5  A    between atoms: C_11  and  C_12
REMARK    6  A    between atoms: C_21  and  O_22
REMARK    7  A    between atoms: O_22  and  C_23
REMARK    8  A    between atoms: C_23  and  C_24
REMARK    9  A    between atoms: N_26  and  C_27
REMARK   10  A    between atoms: C_27  and  C_28
REMARK   11  A    between atoms: C_27  and  C_29
REMARK   12  A    between atoms: C_27  and  C_30
REMARK                            x       y       z     vdW  Elec       q    Type
REMARK                         _______ _______ _______ _____ _____    ______ ____
ROOT
ATOM      1  C   UNL     1      -0.112   5.253   0.030  0.00  0.00    -0.015 A 
ATOM      2  C   UNL     1      -0.095   3.849   0.023  0.00  0.00    -0.013 A 
ATOM      3  C   UNL     1      -1.288   3.105   0.030  0.00  0.00    +0.009 A 
ATOM      4  C   UNL     1      -1.235   1.746   0.017  0.00  0.00    +0.001 A 
ATOM      5  C   UNL     1      -0.013   1.076   0.008  0.00  0.00    +0.001 A 
ATOM      6  C   UNL     1       1.163   1.762   0.000  0.00  0.00    +0.008 A 
ATOM      7  C   UNL     1       1.148   3.167   0.008  0.00  0.00    -0.017 A 
ATOM      8  C   UNL     1       2.342   3.909   0.001  0.00  0.00    +0.012 A 
ATOM      9  C   UNL     1       2.292   5.268   0.009  0.00  0.00    +0.046 A 
ATOM     10  C   UNL     1       1.067   5.942   0.023  0.00  0.00    +0.123 A 
ENDROOT
BRANCH   1  11
ATOM     11  C   UNL     1      -1.423   5.995   0.046  0.00  0.00    -0.042 C 
BRANCH  11  12
ATOM     12  N   UNL     1      -1.837   6.229   1.436  0.00  0.00    +0.386 N 
ATOM     13  H   UNL     1      -1.059   6.820   1.941  0.00  0.00    -0.085 HD
ATOM     14  H   UNL     1      -1.944   5.257   1.940  0.00  0.00    -0.085 HD
BRANCH  12  16
ATOM     15  C   UNL     1      -4.270   5.955   1.383  0.00  0.00    -0.009 C 
ATOM     16  C   UNL     1      -3.115   6.952   1.490  0.00  0.00    -0.044 C 
BRANCH  16  17
ATOM     17  C   UNL     1      -3.215   7.698   2.796  0.00  0.00    -0.062 A 
ATOM     18  C   UNL     1      -2.774   7.107   3.965  0.00  0.00    +0.002 A 
ATOM     19  C   UNL     1      -2.862   7.793   5.162  0.00  0.00    +0.000 A 
ATOM     20  C   UNL     1      -3.398   9.066   5.191  0.00  0.00    +0.000 A 
ATOM     21  C   UNL     1      -3.843   9.656   4.023  0.00  0.00    +0.000 A 
ATOM     22  C   UNL     1      -3.752   8.971   2.825  0.00  0.00    +0.002 A 
ENDBRANCH  16  17
ENDBRANCH  12  16
ENDBRANCH  11  12
ENDBRANCH   1  11
BRANCH  10  23
ATOM     23  O   UNL     1       1.050   7.301   0.030  0.00  0.00    -0.483 OA
BRANCH  23  24
ATOM     24  C   UNL     1       2.315   7.966   0.022  0.00  0.00    +0.324 C 
BRANCH  24  25
ATOM     25  C   UNL     1       2.098   9.457   0.032  0.00  0.00    +0.251 C 
ATOM     26  O   UNL     1       0.972   9.906   0.044  0.00  0.00    -0.272 OA
ATOM     27  N   UNL     1       3.156  10.292   0.027  0.00  0.00    -0.308 N 
ATOM     28  H   UNL     1       4.178   9.885   0.015  0.00  0.00    +0.149 HD
BRANCH  27  29
ATOM     29  C   UNL     1       2.946  11.742   0.036  0.00  0.00    +0.026 C 
ATOM     30  C   UNL     1       2.170  12.136   1.294  0.00  0.00    +0.031 C 
ATOM     31  C   UNL     1       4.300  12.454   0.027  0.00  0.00    +0.031 C 
ATOM     32  C   UNL     1       2.148  12.149  -1.204  0.00  0.00    +0.031 C 
ENDBRANCH  27  29
ENDBRANCH  24  25
ENDBRANCH  23  24
ENDBRANCH  10  23
TORSDOF 8
