REMARK  Name = ZINC10873716
REMARK  5 active torsions:
REMARK  status: ('A' for Active; 'I' for Inactive)
REMARK    1  A    between atoms: C_1  and  O_2
REMARK    2  A    between atoms: O_2  and  C_3
REMARK    3  A    between atoms: N_12  and  C_13
REMARK    4  A    between atoms: C_13  and  C_14
REMARK    5  A    between atoms: C_20  and  C_22
REMARK                            x       y       z     vdW  Elec       q    Type
REMARK                         _______ _______ _______ _____ _____    ______ ____
ROOT
ATOM      1  C   UNL     1       7.277   2.909  -3.184  0.00  0.00    +0.146 A 
ATOM      2  C   UNL     1       7.782   2.356  -4.338  0.00  0.00    +0.048 A 
ATOM      3  C   UNL     1       6.962   1.703  -5.247  0.00  0.00    +0.005 A 
ATOM      4  C   UNL     1       5.607   1.604  -4.987  0.00  0.00    +0.017 A 
ATOM      5  C   UNL     1       5.093   2.152  -3.837  0.00  0.00    +0.044 A 
ATOM      6  C   UNL     1       5.893   2.825  -2.888  0.00  0.00    +0.122 A 
ATOM      7  N   UNL     1       5.240   3.308  -1.808  0.00  0.00    -0.221 NA
ATOM      8  C   UNL     1       3.946   3.167  -1.645  0.00  0.00    +0.169 A 
ATOM      9  S   UNL     1       3.475   2.258  -3.110  0.00  0.00    -0.052 S 
ATOM     10  N   UNL     1       3.149   3.604  -0.601  0.00  0.00    -0.243 N 
ATOM     11  C   UNL     1       3.699   4.276   0.430  0.00  0.00    +0.259 C 
ATOM     12  O   UNL     1       4.875   4.585   0.397  0.00  0.00    -0.269 OA
ENDROOT
BRANCH  11  13
ATOM     13  C   UNL     1       2.880   4.634   1.590  0.00  0.00    +0.075 A 
ATOM     14  C   UNL     1       3.213   5.414   2.688  0.00  0.00    +0.022 A 
ATOM     15  C   UNL     1       2.245   5.593   3.644  0.00  0.00    +0.024 A 
ATOM     16  C   UNL     1       1.028   5.009   3.474  0.00  0.00    +0.056 A 
ATOM     17  S   UNL     1       1.192   4.187   1.956  0.00  0.00    -0.077 S 
ATOM     18 BR   UNL     1      -0.480   5.083   4.613  0.00  0.00    -0.043 Br
ENDBRANCH  11  13
BRANCH   1  20
ATOM     19  C   UNL     1       9.497   3.592  -2.675  0.00  0.00    +0.277 C 
ATOM     20  O   UNL     1       8.114   3.541  -2.319  0.00  0.00    -0.493 OA
ENDBRANCH   1  20
BRANCH  10  21
ATOM     21  C   UNL     1       1.709   3.337  -0.616  0.00  0.00    +0.147 C 
BRANCH  21  22
ATOM     22  C   UNL     1       1.425   2.026   0.121  0.00  0.00    +0.136 C 
ATOM     23  C   UNL     1      -0.093   1.717   0.120  0.00  0.00    +0.035 C 
ATOM     24  C   UNL     1      -0.111   0.179   0.292  0.00  0.00    +0.031 C 
ATOM     25  C   UNL     1       1.292  -0.268  -0.162  0.00  0.00    +0.160 C 
ATOM     26  O   UNL     1       1.997   0.908  -0.592  0.00  0.00    -0.375 OA
ENDBRANCH  21  22
ENDBRANCH  10  21
TORSDOF 4
