REMARK  Name = ZINC43560137
REMARK  5 active torsions:
REMARK  status: ('A' for Active; 'I' for Inactive)
REMARK    1  A    between atoms: C_1  and  C_2
REMARK    2  A    between atoms: C_7  and  C_8
REMARK    3  A    between atoms: C_8  and  C_9
REMARK    4  A    between atoms: C_11  and  C_14
REMARK    5  A    between atoms: C_19  and  N_20
REMARK                            x       y       z     vdW  Elec       q    Type
REMARK                         _______ _______ _______ _____ _____    ______ ____
ROOT
ATOM      1  C   UNL     1      -1.614   0.286   3.781  0.00  0.00    +0.176 A 
ATOM      2  N   UNL     1      -2.141   1.411   3.293  0.00  0.00    -0.191 NA
ATOM      3  C   UNL     1      -3.439   1.429   3.507  0.00  0.00    +0.260 A 
ATOM      4  O   UNL     1      -3.770   0.294   4.149  0.00  0.00    -0.333 OA
ATOM      5  N   UNL     1      -2.562  -0.435   4.310  0.00  0.00    -0.061 NA
ENDROOT
BRANCH   3   6
ATOM      6  C   UNL     1      -4.368   2.505   3.114  0.00  0.00    +0.060 A 
ATOM      7  C   UNL     1      -4.045   3.840   3.369  0.00  0.00    +0.016 A 
ATOM      8  C   UNL     1      -4.917   4.841   2.999  0.00  0.00    +0.016 A 
ATOM      9  C   UNL     1      -6.115   4.531   2.374  0.00  0.00    +0.020 A 
ATOM     10  C   UNL     1      -6.447   3.215   2.115  0.00  0.00    +0.038 A 
ATOM     11  C   UNL     1      -5.578   2.194   2.476  0.00  0.00    +0.038 A 
ATOM     12 BR   UNL     1      -7.301   5.916   1.874  0.00  0.00    -0.050 Br
BRANCH  11  13
ATOM     13  N   UNL     1      -5.908   0.869   2.211  0.00  0.00    -0.357 N 
ATOM     14  H   UNL     1      -5.264   0.165   2.384  0.00  0.00    +0.142 HD
ATOM     15  H   UNL     1      -6.783   0.649   1.854  0.00  0.00    +0.142 HD
ENDBRANCH  11  13
ENDBRANCH   3   6
BRANCH   1  16
ATOM     16  C   UNL     1      -0.157  -0.092   3.725  0.00  0.00    +0.115 C 
BRANCH  16  23
ATOM     17  C   UNL     1       0.404   1.333   1.275  0.00  0.00    +0.044 C 
ATOM     18  C   UNL     1       0.383  -0.174   1.282  0.00  0.00    -0.047 A 
ATOM     19  C   UNL     1       0.638  -0.874   0.118  0.00  0.00    +0.003 A 
ATOM     20  C   UNL     1       0.620  -2.256   0.124  0.00  0.00    +0.000 A 
ATOM     21  C   UNL     1       0.346  -2.938   1.296  0.00  0.00    +0.000 A 
ATOM     22  C   UNL     1       0.092  -2.238   2.460  0.00  0.00    +0.004 A 
ATOM     23  C   UNL     1       0.115  -0.856   2.454  0.00  0.00    -0.037 A 
ENDBRANCH  16  23
ENDBRANCH   1  16
TORSDOF 4
