REMARK  Name = ZINC57934140
REMARK  4 active torsions:
REMARK  status: ('A' for Active; 'I' for Inactive)
REMARK    1  A    between atoms: C_1  and  C_2
REMARK    2  A    between atoms: C_2  and  C_3
REMARK    3  A    between atoms: N_7  and  C_19
REMARK    4  A    between atoms: C_19  and  C_20
REMARK                            x       y       z     vdW  Elec       q    Type
REMARK                         _______ _______ _______ _____ _____    ______ ____
ROOT
ATOM      1  C   UNL     1       0.718  -0.497  -1.257  0.00  0.00    +0.157 C 
ATOM      2  C   UNL     1       0.637  -2.001  -1.327  0.00  0.00    +0.240 C 
ATOM      3  O   UNL     1      -0.287  -2.525  -1.913  0.00  0.00    -0.273 OA
ATOM      4  N   UNL     1       1.577  -2.769  -0.747  0.00  0.00    -0.264 N 
ATOM      5  C   UNL     1       2.727  -2.197  -0.186  0.00  0.00    +0.061 A 
ATOM      6  C   UNL     1       3.589  -2.960   0.586  0.00  0.00    +0.074 A 
ATOM      7  C   UNL     1       4.719  -2.381   1.144  0.00  0.00    +0.164 A 
ATOM      8  C   UNL     1       4.990  -1.034   0.930  0.00  0.00    +0.164 A 
ATOM      9  C   UNL     1       4.130  -0.268   0.156  0.00  0.00    +0.074 A 
ATOM     10  C   UNL     1       3.005  -0.848  -0.403  0.00  0.00    +0.053 A 
ATOM     11  N   UNL     1       2.131  -0.095  -1.209  0.00  0.00    -0.331 N 
ATOM     12  O   UNL     1       6.097  -0.452   1.468  0.00  0.00    -0.485 OA
ATOM     13  C   UNL     1       6.736  -1.153   2.541  0.00  0.00    +0.270 C 
ATOM     14  C   UNL     1       6.866  -2.628   2.139  0.00  0.00    +0.270 C 
ATOM     15  O   UNL     1       5.553  -3.146   1.903  0.00  0.00    -0.485 OA
ATOM     16  H   UNL     1       2.450   0.667  -1.718  0.00  0.00    +0.147 HD
ENDROOT
BRANCH   1  18
ATOM     17  C   UNL     1      -0.019   1.526   0.010  0.00  0.00    +0.006 C 
ATOM     18  C   UNL     1       0.002  -0.004   0.002  0.00  0.00    +0.028 C 
ENDBRANCH   1  18
BRANCH   4  19
ATOM     19  C   UNL     1       1.397  -4.222  -0.701  0.00  0.00    +0.140 C 
BRANCH  19  20
ATOM     20  C   UNL     1       2.004  -4.843  -1.933  0.00  0.00    -0.015 C 
ATOM     21  C   UNL     1       2.902  -5.789  -1.814  0.00  0.00    +0.005 C 
ENDBRANCH  19  20
ENDBRANCH   4  19
TORSDOF 3
