REMARK  Name = ZINC36321215
REMARK  3 active torsions:
REMARK  status: ('A' for Active; 'I' for Inactive)
REMARK    1  A    between atoms: C_5  and  C_13
REMARK    2  A    between atoms: C_6  and  C_11
REMARK    3  A    between atoms: C_11  and  N_12
REMARK                            x       y       z     vdW  Elec       q    Type
REMARK                         _______ _______ _______ _____ _____    ______ ____
ROOT
ATOM      1  C   UNL     1       0.083   1.653  -0.508  0.00  0.00    +0.006 A 
ATOM      2  C   UNL     1       1.272   2.243  -0.207  0.00  0.00    +0.047 A 
ATOM      3  C   UNL     1       2.429   1.447  -0.091  0.00  0.00    +0.139 A 
ATOM      4  N   UNL     1       3.690   1.747   0.186  0.00  0.00    -0.228 NA
ATOM      5  C   UNL     1       4.422   0.622   0.179  0.00  0.00    +0.091 A 
ATOM      6  C   UNL     1       3.598  -0.423  -0.112  0.00  0.00    +0.035 A 
ATOM      7  N   UNL     1       2.342   0.092  -0.283  0.00  0.00    -0.292 N 
ATOM      8  C   UNL     1       1.143  -0.487  -0.586  0.00  0.00    +0.091 A 
ATOM      9  C   UNL     1       0.025   0.263  -0.699  0.00  0.00    +0.034 A 
ATOM     10 BR   UNL     1       1.046  -2.358  -0.846  0.00  0.00    -0.030 Br
ENDROOT
BRANCH   5  11
ATOM     11  C   UNL     1       5.879   0.531   0.442  0.00  0.00    +0.006 A 
ATOM     12  C   UNL     1       6.751   1.455  -0.131  0.00  0.00    +0.014 A 
ATOM     13  C   UNL     1       8.106   1.369   0.114  0.00  0.00    +0.050 A 
ATOM     14  C   UNL     1       8.606   0.363   0.930  0.00  0.00    +0.162 A 
ATOM     15  C   UNL     1       7.740  -0.560   1.506  0.00  0.00    +0.163 A 
ATOM     16  C   UNL     1       6.379  -0.474   1.266  0.00  0.00    +0.059 A 
ATOM     17  O   UNL     1       8.213  -1.548   2.315  0.00  0.00    -0.485 OA
ATOM     18  C   UNL     1       9.615  -1.825   2.240  0.00  0.00    +0.270 C 
ATOM     19  C   UNL     1      10.372  -0.491   2.274  0.00  0.00    +0.270 C 
ATOM     20  O   UNL     1       9.947   0.294   1.155  0.00  0.00    -0.485 OA
ENDBRANCH   5  11
BRANCH   6  21
ATOM     21  C   UNL     1       3.994  -1.872  -0.226  0.00  0.00    -0.029 C 
BRANCH  21  22
ATOM     22  N   UNL     1       4.238  -2.205  -1.636  0.00  0.00    +0.382 N 
ATOM     23  H   UNL     1       4.503  -3.175  -1.712  0.00  0.00    -0.090 HD
ATOM     24  H   UNL     1       3.397  -2.043  -2.169  0.00  0.00    -0.090 HD
ATOM     25  H   UNL     1       4.980  -1.624  -1.995  0.00  0.00    -0.090 HD
ENDBRANCH  21  22
ENDBRANCH   6  21
TORSDOF 3
