REMARK  Name = ZINC14743133
REMARK  8 active torsions:
REMARK  status: ('A' for Active; 'I' for Inactive)
REMARK    1  A    between atoms: C_1  and  C_2
REMARK    2  A    between atoms: C_2  and  N_3
REMARK    3  A    between atoms: N_6  and  C_25
REMARK    4  A    between atoms: C_14  and  N_62
REMARK    5  A    between atoms: C_25  and  C_26
REMARK    6  A    between atoms: C_26  and  N_64
REMARK    7  A    between atoms: C_27  and  N_64
REMARK    8  A    between atoms: C_28  and  N_64
REMARK                            x       y       z     vdW  Elec       q    Type
REMARK                         _______ _______ _______ _____ _____    ______ ____
ROOT
ATOM      1  N   UNL     1      -0.762  -4.296  -0.740  0.00  0.00    -0.271 N 
ATOM      2  C   UNL     1      -1.020  -5.567  -1.104  0.00  0.00    +0.312 C 
ATOM      3  O   UNL     1      -2.034  -5.913  -1.679  0.00  0.00    -0.252 OA
ATOM      4  N   UNL     1      -0.035  -6.406  -0.761  0.00  0.00    -0.226 N 
ATOM      5  C   UNL     1       0.971  -5.761  -0.135  0.00  0.00    +0.247 C 
ATOM      6  O   UNL     1       1.997  -6.244   0.295  0.00  0.00    -0.273 OA
ATOM      7  C   UNL     1       0.549  -4.312  -0.081  0.00  0.00    +0.112 C 
ATOM      8  C   UNL     1       0.427  -3.844   1.365  0.00  0.00    +0.017 C 
ATOM      9  C   UNL     1       0.025  -2.366   1.387  0.00  0.00    -0.076 C 
ATOM     10  C   UNL     1       1.103  -1.974  -0.749  0.00  0.00    -0.076 C 
ATOM     11  C   UNL     1       1.541  -3.438  -0.843  0.00  0.00    +0.017 C 
ATOM     12  N   UNL     1       1.055  -1.580   0.675  0.00  0.00    +0.382 N 
ATOM     13  H   UNL     1       1.970  -1.766   1.103  0.00  0.00    -0.081 HD
ENDROOT
BRANCH  12  14
ATOM     14  C   UNL     1       0.757  -0.137   0.789  0.00  0.00    -0.064 C 
ATOM     15  C   UNL     1       1.873   0.661   0.105  0.00  0.00    -0.010 C 
ATOM     16  C   UNL     1       1.696   2.136   0.458  0.00  0.00    +0.034 C 
ATOM     17  C   UNL     1       0.283   2.581   0.183  0.00  0.00    -0.044 A 
ATOM     18  C   UNL     1       0.041   3.946   0.091  0.00  0.00    +0.004 A 
ATOM     19  C   UNL     1      -1.233   4.417  -0.153  0.00  0.00    +0.000 A 
ATOM     20  C   UNL     1      -2.277   3.524  -0.309  0.00  0.00    +0.000 A 
ATOM     21  C   UNL     1      -2.037   2.168  -0.226  0.00  0.00    +0.004 A 
ATOM     22  C   UNL     1      -0.756   1.692   0.024  0.00  0.00    -0.046 A 
ATOM     23  C   UNL     1      -0.566   0.200   0.103  0.00  0.00    +0.020 C 
ENDBRANCH  12  14
BRANCH   1  25
ATOM     24  C   UNL     1      -2.897  -3.272  -0.128  0.00  0.00    +0.024 C 
ATOM     25  C   UNL     1      -1.621  -3.129  -0.959  0.00  0.00    +0.107 C 
ENDBRANCH   1  25
BRANCH   4  26
ATOM     26  C   UNL     1      -0.049  -7.846  -1.032  0.00  0.00    +0.099 C 
BRANCH  26  27
ATOM     27  C   UNL     1      -0.695  -8.580   0.145  0.00  0.00    -0.060 C 
BRANCH  27  30
ATOM     28  C   UNL     1      -1.101 -10.780   1.070  0.00  0.00    -0.097 C 
ATOM     29  C   UNL     1      -1.588 -10.338  -1.260  0.00  0.00    -0.097 C 
ATOM     30  N   UNL     1      -0.682 -10.031  -0.133  0.00  0.00    +0.377 N 
ATOM     31  H   UNL     1       0.272 -10.314  -0.386  0.00  0.00    -0.083 HD
ENDBRANCH  27  30
ENDBRANCH  26  27
ENDBRANCH   4  26
TORSDOF 5
