REMARK  Name = ZINC12881996
REMARK  6 active torsions:
REMARK  status: ('A' for Active; 'I' for Inactive)
REMARK    1  A    between atoms: C_1  and  C_2
REMARK    2  A    between atoms: C_17  and  C_19
REMARK    3  A    between atoms: C_19  and  C_20
REMARK    4  A    between atoms: C_20  and  C_21
REMARK    5  A    between atoms: N_26  and  C_29
REMARK    6  A    between atoms: C_29  and  C_30
REMARK                            x       y       z     vdW  Elec       q    Type
REMARK                         _______ _______ _______ _____ _____    ______ ____
ROOT
ATOM      1  C   UNL     1      -3.461   8.411   0.337  0.00  0.00    +0.044 C 
ATOM      2  C   UNL     1      -2.472   7.646  -0.504  0.00  0.00    -0.049 A 
ATOM      3  C   UNL     1      -2.394   6.268  -0.403  0.00  0.00    +0.008 A 
ATOM      4  C   UNL     1      -1.491   5.569  -1.172  0.00  0.00    -0.026 A 
ATOM      5  C   UNL     1      -0.649   6.236  -2.057  0.00  0.00    +0.054 A 
ATOM      6  C   UNL     1      -0.733   7.624  -2.154  0.00  0.00    +0.063 A 
ATOM      7  C   UNL     1      -1.641   8.319  -1.380  0.00  0.00    +0.025 A 
ATOM      8 CL   UNL     1       0.306   8.480  -3.250  0.00  0.00    -0.082 Cl
ATOM      9  N   UNL     1       0.174   5.323  -2.721  0.00  0.00    -0.285 N 
ATOM     10  C   UNL     1      -0.061   4.054  -2.336  0.00  0.00    +0.211 C 
ATOM     11  O   UNL     1       0.501   3.058  -2.741  0.00  0.00    -0.277 OA
ATOM     12  C   UNL     1      -1.155   4.111  -1.305  0.00  0.00    +0.050 C 
ATOM     13  C   UNL     1      -0.698   3.514   0.031  0.00  0.00    +0.088 C 
ATOM     14  C   UNL     1      -1.260   2.065   0.019  0.00  0.00    +0.073 C 
ATOM     15  C   UNL     1      -1.979   1.928  -1.341  0.00  0.00    -0.057 C 
ATOM     16  C   UNL     1      -0.014   1.208   0.009  0.00  0.00    +0.224 C 
ATOM     17  O   UNL     1       0.002  -0.004   0.002  0.00  0.00    -0.275 OA
ATOM     18  N   UNL     1       1.067   1.996   0.003  0.00  0.00    -0.237 N 
ATOM     19  C   UNL     1       0.800   3.307   0.013  0.00  0.00    +0.225 C 
ATOM     20  O   UNL     1       1.629   4.191   0.009  0.00  0.00    -0.275 OA
ATOM     21  H   UNL     1       0.837   5.574  -3.383  0.00  0.00    +0.155 HD
ATOM     22  N   UNL     1      -2.289   3.309  -1.718  0.00  0.00    +0.394 N 
ATOM     23  H   UNL     1      -2.422   3.379  -2.733  0.00  0.00    -0.083 HD
ATOM     24  H   UNL     1      -3.140   3.626  -1.239  0.00  0.00    -0.083 HD
ENDROOT
BRANCH  15  25
ATOM     25  C   UNL     1      -3.250   1.091  -1.189  0.00  0.00    -0.006 C 
BRANCH  25  26
ATOM     26  C   UNL     1      -3.879   0.863  -2.565  0.00  0.00    +0.094 C 
BRANCH  26  27
ATOM     27  C   UNL     1      -5.131   0.038  -2.416  0.00  0.00    +0.210 C 
ATOM     28  O   UNL     1      -5.486  -0.332  -1.316  0.00  0.00    -0.276 OA
ATOM     29  N   UNL     1      -5.857  -0.288  -3.503  0.00  0.00    -0.329 N 
ATOM     30  H   UNL     1      -5.573   0.007  -4.382  0.00  0.00    +0.145 HD
ATOM     31  H   UNL     1      -6.663  -0.820  -3.407  0.00  0.00    +0.145 HD
ENDBRANCH  26  27
ENDBRANCH  25  26
ENDBRANCH  15  25
BRANCH  18  32
ATOM     32  C   UNL     1       2.433   1.466  -0.014  0.00  0.00    +0.151 C 
BRANCH  32  33
ATOM     33  C   UNL     1       2.887   1.293  -1.440  0.00  0.00    -0.026 A 
ATOM     34  C   UNL     1       2.667   0.095  -2.094  0.00  0.00    +0.009 A 
ATOM     35  C   UNL     1       3.078  -0.066  -3.404  0.00  0.00    +0.050 A 
ATOM     36  C   UNL     1       3.721   0.970  -4.062  0.00  0.00    +0.166 A 
ATOM     37  C   UNL     1       3.948   2.175  -3.402  0.00  0.00    +0.167 A 
ATOM     38  C   UNL     1       3.529   2.331  -2.091  0.00  0.00    +0.054 A 
ATOM     39  O   UNL     1       4.591   3.025  -4.254  0.00  0.00    -0.453 OA
ATOM     40  C   UNL     1       4.391   2.474  -5.569  0.00  0.00    +0.466 C 
ATOM     41  O   UNL     1       4.222   1.065  -5.328  0.00  0.00    -0.453 OA
ENDBRANCH  32  33
ENDBRANCH  18  32
TORSDOF 5
