REMARK  Name = ZINC27549101
REMARK  8 active torsions:
REMARK  status: ('A' for Active; 'I' for Inactive)
REMARK    1  A    between atoms: C_1  and  C_2
REMARK    2  A    between atoms: C_6  and  N_9
REMARK    3  A    between atoms: C_7  and  C_8
REMARK    4  A    between atoms: C_13  and  C_14
REMARK    5  A    between atoms: N_16  and  C_23
REMARK    6  A    between atoms: C_23  and  C_24
REMARK    7  A    between atoms: N_26  and  C_27
REMARK    8  A    between atoms: C_27  and  C_28
REMARK                            x       y       z     vdW  Elec       q    Type
REMARK                         _______ _______ _______ _____ _____    ______ ____
ROOT
ATOM      1  C   UNL     1       4.438   8.472   2.874  0.00  0.00    +0.001 A 
ATOM      2  C   UNL     1       4.575   7.162   2.449  0.00  0.00    +0.095 A 
ATOM      3  N   UNL     1       3.359   6.622   2.253  0.00  0.00    -0.337 N 
ATOM      4  C   UNL     1       2.365   7.540   2.531  0.00  0.00    +0.050 A 
ATOM      5  C   UNL     1       2.985   8.732   2.936  0.00  0.00    +0.007 A 
ATOM      6  C   UNL     1       2.216   9.837   3.284  0.00  0.00    +0.010 A 
ATOM      7  C   UNL     1       0.840   9.759   3.221  0.00  0.00    +0.001 A 
ATOM      8  C   UNL     1       0.225   8.581   2.824  0.00  0.00    +0.002 A 
ATOM      9  C   UNL     1       0.976   7.478   2.481  0.00  0.00    +0.026 A 
ENDROOT
BRANCH   1  14
ATOM     10  N   UNL     1       8.741   9.338   4.918  0.00  0.00    -0.188 N 
ATOM     11  C   UNL     1       7.741   9.803   4.142  0.00  0.00    +0.264 C 
ATOM     12  O   UNL     1       7.821  10.892   3.605  0.00  0.00    -0.269 OA
ATOM     13  C   UNL     1       6.546   8.960   3.966  0.00  0.00    +0.102 C 
ATOM     14  C   UNL     1       5.474   9.375   3.186  0.00  0.00    +0.028 C 
ATOM     15  C   UNL     1       6.540   7.654   4.648  0.00  0.00    +0.276 C 
ATOM     16  O   UNL     1       5.591   6.899   4.545  0.00  0.00    -0.268 OA
ATOM     17  N   UNL     1       7.615   7.316   5.389  0.00  0.00    -0.123 NA
ATOM     18  C   UNL     1       8.668   8.137   5.510  0.00  0.00    +0.340 C 
ATOM     19  O   UNL     1       9.606   7.774   6.192  0.00  0.00    -0.250 OA
BRANCH  10  25
ATOM     20  C   UNL     1      11.146  12.770   7.492  0.00  0.00    +0.044 C 
ATOM     21  C   UNL     1      11.077  11.796   6.344  0.00  0.00    -0.046 A 
ATOM     22  C   UNL     1      12.145  11.678   5.473  0.00  0.00    +0.004 A 
ATOM     23  C   UNL     1      12.086  10.786   4.419  0.00  0.00    +0.002 A 
ATOM     24  C   UNL     1      10.961  10.005   4.236  0.00  0.00    +0.024 A 
ATOM     25  C   UNL     1       9.885  10.125   5.104  0.00  0.00    +0.049 A 
ATOM     26  C   UNL     1       9.948  11.022   6.162  0.00  0.00    -0.026 A 
ATOM     27  C   UNL     1       8.784  11.151   7.111  0.00  0.00    +0.046 C 
ENDBRANCH  10  25
ENDBRANCH   1  14
BRANCH   3  28
ATOM     28  C   UNL     1       3.120   5.249   1.801  0.00  0.00    +0.217 C 
BRANCH  28  29
ATOM     29  C   UNL     1       2.939   5.237   0.305  0.00  0.00    +0.233 C 
ATOM     30  O   UNL     1       3.002   6.274  -0.322  0.00  0.00    -0.274 OA
ATOM     31  N   UNL     1       2.706   4.075  -0.337  0.00  0.00    -0.307 N 
ATOM     32  H   UNL     1       2.649   3.135   0.231  0.00  0.00    +0.149 HD
BRANCH  31  33
ATOM     33  C   UNL     1       2.529   4.064  -1.791  0.00  0.00    +0.178 C 
BRANCH  33  34
ATOM     34  C   UNL     1       2.284   2.652  -2.257  0.00  0.00    +0.122 A 
ATOM     35  C   UNL     1       1.083   2.058  -2.370  0.00  0.00    +0.046 A 
ATOM     36  C   UNL     1       1.317   0.745  -2.838  0.00  0.00    +0.041 A 
ATOM     37  C   UNL     1       2.648   0.614  -2.982  0.00  0.00    +0.195 A 
ATOM     38  O   UNL     1       3.229   1.772  -2.629  0.00  0.00    -0.466 OA
ENDBRANCH  33  34
ENDBRANCH  31  33
ENDBRANCH  28  29
ENDBRANCH   3  28
TORSDOF 6
