REMARK  Name = ZINC33401943
REMARK  10 active torsions:
REMARK  status: ('A' for Active; 'I' for Inactive)
REMARK    1  A    between atoms: C_3  and  C_8
REMARK    2  A    between atoms: C_11  and  S_13
REMARK    3  A    between atoms: S_13  and  C_14
REMARK    4  A    between atoms: C_14  and  C_15
REMARK    5  A    between atoms: C_16  and  C_17
REMARK    6  A    between atoms: C_17  and  O_18
REMARK    7  A    between atoms: O_18  and  C_19
REMARK    8  A    between atoms: C_19  and  C_21
REMARK    9  A    between atoms: C_24  and  O_28
REMARK   10  A    between atoms: C_25  and  O_27
REMARK                            x       y       z     vdW  Elec       q    Type
REMARK                         _______ _______ _______ _____ _____    ______ ____
ROOT
ATOM      1  C   UNL     1       9.515   4.377  -0.074  0.00  0.00    -0.088 C 
ATOM      2  C   UNL     1      10.688   4.427  -0.089  0.00  0.00    -0.061 C 
ENDROOT
BRANCH   1   3
ATOM      3  C   UNL     1       8.045   4.315  -0.056  0.00  0.00    +0.167 C 
BRANCH   3   4
ATOM      4  S   UNL     1       7.513   2.581  -0.066  0.00  0.00    -0.053 S 
BRANCH   4   8
ATOM      5  C   UNL     1       3.656   2.162  -0.022  0.00  0.00    +0.249 A 
ATOM      6  N   UNL     1       3.785   3.466  -0.011  0.00  0.00    -0.106 NA
ATOM      7  N   UNL     1       5.034   3.773  -0.023  0.00  0.00    -0.101 NA
ATOM      8  C   UNL     1       5.753   2.675  -0.043  0.00  0.00    +0.278 A 
ATOM      9  O   UNL     1       4.900   1.633  -0.036  0.00  0.00    -0.411 OA
BRANCH   5  12
ATOM     10  C   UNL     1      -0.017   1.379   0.010  0.00  0.00    +0.002 A 
ATOM     11  C   UNL     1       1.167   2.088   0.002  0.00  0.00    +0.013 A 
ATOM     12  C   UNL     1       2.385   1.408  -0.013  0.00  0.00    +0.040 A 
ATOM     13  C   UNL     1       2.398   0.012  -0.021  0.00  0.00    +0.033 A 
ATOM     14  C   UNL     1       1.207  -0.686  -0.013  0.00  0.00    +0.042 A 
ATOM     15  C   UNL     1       0.002  -0.004   0.002  0.00  0.00    +0.020 A 
ATOM     16 CL   UNL     1       1.220  -2.422  -0.023  0.00  0.00    -0.084 Cl
ENDBRANCH   5  12
ENDBRANCH   4   8
ENDBRANCH   3   4
ENDBRANCH   1   3
BRANCH   2  17
ATOM     17  C   UNL     1      12.159   4.489  -0.107  0.00  0.00    +0.321 C 
BRANCH  17  18
ATOM     18  O   UNL     1      12.578   5.855  -0.099  0.00  0.00    -0.448 OA
BRANCH  18  19
ATOM     19  C   UNL     1      13.905   6.088  -0.113  0.00  0.00    +0.340 C 
ATOM     20  O   UNL     1      14.685   5.156  -0.132  0.00  0.00    -0.245 OA
BRANCH  19  21
ATOM     21  C   UNL     1      14.411   7.473  -0.106  0.00  0.00    +0.063 A 
ATOM     22  C   UNL     1      13.515   8.546  -0.078  0.00  0.00    +0.019 A 
ATOM     23  C   UNL     1      13.989   9.839  -0.071  0.00  0.00    +0.050 A 
ATOM     24  C   UNL     1      15.356  10.081  -0.092  0.00  0.00    +0.158 A 
ATOM     25  C   UNL     1      16.256   9.016  -0.120  0.00  0.00    +0.159 A 
ATOM     26  C   UNL     1      15.787   7.716  -0.121  0.00  0.00    +0.064 A 
BRANCH  25  27
ATOM     27  O   UNL     1      17.594   9.256  -0.141  0.00  0.00    -0.503 OA
ATOM     28  H   UNL     1      17.997   9.316   0.736  0.00  0.00    +0.292 HD
ENDBRANCH  25  27
BRANCH  24  29
ATOM     29  O   UNL     1      15.819  11.358  -0.085  0.00  0.00    -0.503 OA
ATOM     30  H   UNL     1      15.968  11.717   0.800  0.00  0.00    +0.292 HD
ENDBRANCH  24  29
ENDBRANCH  19  21
ENDBRANCH  18  19
ENDBRANCH  17  18
ENDBRANCH   2  17
TORSDOF 10
