REMARK  Name = ZINC21240426
REMARK  6 active torsions:
REMARK  status: ('A' for Active; 'I' for Inactive)
REMARK    1  A    between atoms: C_1  and  C_2
REMARK    2  A    between atoms: C_11  and  N_28
REMARK    3  A    between atoms: C_13  and  S_15
REMARK    4  A    between atoms: S_15  and  C_16
REMARK    5  A    between atoms: C_16  and  C_17
REMARK    6  A    between atoms: N_22  and  C_23
REMARK                            x       y       z     vdW  Elec       q    Type
REMARK                         _______ _______ _______ _____ _____    ______ ____
ROOT
ATOM      1  C   UNL     1       6.770   7.305  14.883  0.00  0.00    +0.008 C 
ATOM      2  C   UNL     1       5.898   6.755  13.752  0.00  0.00    -0.009 C 
ATOM      3  C   UNL     1       6.718   5.787  12.895  0.00  0.00    +0.008 C 
ATOM      4  C   UNL     1       5.939   5.426  11.630  0.00  0.00    +0.037 C 
ATOM      5  C   UNL     1       4.550   4.936  12.030  0.00  0.00    -0.025 A 
ATOM      6  C   UNL     1       4.046   5.215  13.249  0.00  0.00    -0.004 A 
ATOM      7  S   UNL     1       2.442   4.460  13.270  0.00  0.00    -0.073 S 
ATOM      8  C   UNL     1       2.450   3.769  11.636  0.00  0.00    +0.115 A 
ATOM      9  C   UNL     1       3.707   4.150  11.126  0.00  0.00    +0.051 A 
ATOM     10  C   UNL     1       3.987   3.719   9.800  0.00  0.00    +0.129 A 
ATOM     11  N   UNL     1       3.085   3.005   9.148  0.00  0.00    -0.207 NA
ATOM     12  C   UNL     1       1.915   2.685   9.687  0.00  0.00    +0.191 A 
ATOM     13  N   UNL     1       1.599   3.060  10.920  0.00  0.00    -0.214 NA
ATOM     14  C   UNL     1       4.704   5.995  14.346  0.00  0.00    +0.046 C 
ENDROOT
BRANCH  10  15
ATOM     15  N   UNL     1       5.193   4.037   9.201  0.00  0.00    -0.343 N 
ATOM     16  H   UNL     1       5.403   3.701   8.175  0.00  0.00    +0.144 HD
ATOM     17  H   UNL     1       5.941   4.627   9.751  0.00  0.00    +0.144 HD
ENDBRANCH  10  15
BRANCH  12  18
ATOM     18  S   UNL     1       0.761   1.738   8.750  0.00  0.00    -0.077 S 
BRANCH  18  19
ATOM     19  C   UNL     1       1.698   1.530   7.215  0.00  0.00    +0.173 C 
BRANCH  19  20
ATOM     20  C   UNL     1       0.884   0.726   6.235  0.00  0.00    +0.231 C 
ATOM     21  O   UNL     1      -0.220   0.332   6.543  0.00  0.00    -0.274 OA
ATOM     22  N   UNL     1       1.384   0.445   5.015  0.00  0.00    -0.239 N 
ATOM     23  C   UNL     1       0.656  -0.275   4.138  0.00  0.00    +0.306 C 
ATOM     24  O   UNL     1      -0.451  -0.669   4.447  0.00  0.00    -0.252 OA
ATOM     25  N   UNL     1       1.156  -0.556   2.918  0.00  0.00    -0.296 N 
ATOM     26  H   UNL     1       2.386   0.802   4.735  0.00  0.00    +0.159 HD
ATOM     27  H   UNL     1       2.158  -0.199   2.639  0.00  0.00    +0.151 HD
BRANCH  25  28
ATOM     28  C   UNL     1       0.365  -1.338   1.965  0.00  0.00    +0.074 C 
ATOM     29  C   UNL     1       1.287  -2.053   0.956  0.00  0.00    +0.022 C 
ATOM     30  C   UNL     1       0.573  -2.005  -0.406  0.00  0.00    +0.002 C 
ATOM     31  C   UNL     1      -0.760  -1.262  -0.177  0.00  0.00    +0.002 C 
ATOM     32  C   UNL     1      -0.506  -0.404   1.087  0.00  0.00    +0.022 C 
ENDBRANCH  25  28
ENDBRANCH  19  20
ENDBRANCH  18  19
ENDBRANCH  12  18
TORSDOF 5
