REMARK  Name = ZINC61882371
REMARK  3 active torsions:
REMARK  status: ('A' for Active; 'I' for Inactive)
REMARK    1  A    between atoms: C_4  and  S_9
REMARK    2  A    between atoms: C_6  and  N_7
REMARK    3  A    between atoms: S_9  and  N_12
REMARK                            x       y       z     vdW  Elec       q    Type
REMARK                         _______ _______ _______ _____ _____    ______ ____
ROOT
ATOM      1  S   UNL     1       3.941  -0.824  -0.040  0.00  0.00    +0.102 S 
ATOM      2  O   UNL     1       3.852  -1.799  -1.070  0.00  0.00    -0.146 OA
ATOM      3  O   UNL     1       4.958   0.169  -0.017  0.00  0.00    -0.146 OA
ENDROOT
BRANCH   1   4
ATOM      4  N   UNL     1       4.058  -1.654   1.388  0.00  0.00    -0.103 NA
ATOM      5  C   UNL     1       5.118  -2.383   1.637  0.00  0.00    +0.192 A 
ATOM      6  N   UNL     1       6.232  -2.590   0.866  0.00  0.00    -0.336 N 
ATOM      7  C   UNL     1       7.250  -3.413   1.332  0.00  0.00    +0.028 A 
ATOM      8  C   UNL     1       7.085  -3.973   2.530  0.00  0.00    +0.012 A 
ATOM      9  S   UNL     1       5.503  -3.368   3.076  0.00  0.00    -0.053 S 
ATOM     10  C   UNL     1       8.244  -4.844   2.925  0.00  0.00    +0.044 C 
ATOM     11  C   UNL     1       9.001  -5.101   1.604  0.00  0.00    +0.011 C 
ATOM     12  C   UNL     1       8.605  -3.863   0.776  0.00  0.00    +0.054 C 
ATOM     13  H   UNL     1       6.310  -2.164  -0.002  0.00  0.00    +0.168 HD
ENDBRANCH   1   4
BRANCH   1  17
ATOM     14  C   UNL     1      -0.017   1.384   0.010  0.00  0.00    +0.044 A 
ATOM     15  C   UNL     1       1.172   2.090   0.002  0.00  0.00    +0.045 A 
ATOM     16  C   UNL     1       2.380   1.414  -0.013  0.00  0.00    +0.050 A 
ATOM     17  C   UNL     1       2.401   0.032  -0.021  0.00  0.00    +0.130 A 
ATOM     18  C   UNL     1       1.217  -0.680  -0.014  0.00  0.00    +0.065 A 
ATOM     19  C   UNL     1       0.002  -0.004   0.002  0.00  0.00    +0.042 A 
ATOM     20 BR   UNL     1       1.248  -2.570  -0.025  0.00  0.00    -0.046 Br
ATOM     21 CL   UNL     1       1.150   3.826   0.011  0.00  0.00    -0.083 Cl
BRANCH  19  22
ATOM     22  N   UNL     1      -1.197  -0.721   0.010  0.00  0.00    -0.357 N 
ATOM     23  H   UNL     1      -2.045  -0.248   0.021  0.00  0.00    +0.142 HD
ATOM     24  H   UNL     1      -1.183  -1.690   0.005  0.00  0.00    +0.142 HD
ENDBRANCH  19  22
ENDBRANCH   1  17
TORSDOF 3
