REMARK  Name = ZINC01275469
REMARK  9 active torsions:
REMARK  status: ('A' for Active; 'I' for Inactive)
REMARK    1  A    between atoms: C_1  and  C_2
REMARK    2  A    between atoms: C_2  and  C_3
REMARK    3  A    between atoms: C_3  and  C_5
REMARK    4  A    between atoms: C_3  and  N_6
REMARK    5  A    between atoms: C_7  and  C_9
REMARK    6  A    between atoms: N_20  and  N_23
REMARK    7  A    between atoms: C_21  and  N_22
REMARK    8  A    between atoms: C_24  and  C_25
REMARK    9  A    between atoms: C_29  and  O_31
REMARK                            x       y       z     vdW  Elec       q    Type
REMARK                         _______ _______ _______ _____ _____    ______ ____
ROOT
ATOM      1  C   UNL     1      -1.261   9.474   0.840  0.00  0.00    +0.105 A 
ATOM      2  C   UNL     1      -1.276   9.539  -0.631  0.00  0.00    +0.124 A 
ATOM      3  C   UNL     1      -1.257   8.145  -1.083  0.00  0.00    +0.183 A 
ATOM      4  N   UNL     1      -1.265   7.883  -2.372  0.00  0.00    -0.224 NA
ATOM      5  C   UNL     1      -1.290   8.888  -3.257  0.00  0.00    +0.092 A 
ATOM      6  C   UNL     1      -1.299   8.617  -4.638  0.00  0.00    +0.030 A 
ATOM      7  C   UNL     1      -1.324   9.643  -5.530  0.00  0.00    +0.002 A 
ATOM      8  C   UNL     1      -1.341  10.968  -5.097  0.00  0.00    +0.002 A 
ATOM      9  C   UNL     1      -1.333  11.270  -3.771  0.00  0.00    +0.030 A 
ATOM     10  C   UNL     1      -1.308  10.235  -2.818  0.00  0.00    +0.090 A 
ATOM     11  N   UNL     1      -1.300  10.521  -1.510  0.00  0.00    -0.241 NA
ATOM     12  N   UNL     1      -1.233   7.354   0.050  0.00  0.00    -0.198 N 
ATOM     13  C   UNL     1      -1.241   8.124   1.175  0.00  0.00    +0.134 A 
ENDROOT
BRANCH   1  15
ATOM     14  N   UNL     1      -0.109  11.145   2.182  0.00  0.00    -0.309 N 
ATOM     15  C   UNL     1      -1.271  10.604   1.766  0.00  0.00    +0.250 C 
ATOM     16  O   UNL     1      -2.330  11.058   2.162  0.00  0.00    -0.270 OA
ATOM     17  H   UNL     1       0.735  10.784   1.866  0.00  0.00    +0.149 HD
BRANCH  14  18
ATOM     18  C   UNL     1      -0.119  12.278   3.110  0.00  0.00    +0.070 C 
ATOM     19  C   UNL     1      -0.274  13.581   2.322  0.00  0.00    +0.028 C 
BRANCH  18  21
ATOM     20  C   UNL     1       1.292  11.063   4.775  0.00  0.00    +0.005 C 
ATOM     21  C   UNL     1       1.196  12.309   3.892  0.00  0.00    +0.018 C 
ENDBRANCH  18  21
ENDBRANCH  14  18
ENDBRANCH   1  15
BRANCH  13  22
ATOM     22  N   UNL     1      -1.228   7.636   2.457  0.00  0.00    -0.342 N 
ATOM     23  H   UNL     1      -1.211   6.679   2.611  0.00  0.00    +0.144 HD
ATOM     24  H   UNL     1      -1.235   8.249   3.209  0.00  0.00    +0.144 HD
ENDBRANCH  13  22
BRANCH  12  25
ATOM     25  N   UNL     1      -1.210   5.953   0.043  0.00  0.00    -0.171 NA
ATOM     26  C   UNL     1      -0.076   5.323   0.029  0.00  0.00    +0.141 C 
BRANCH  26  27
ATOM     27  C   UNL     1      -0.051   3.849   0.022  0.00  0.00    -0.002 A 
ATOM     28  C   UNL     1      -1.248   3.127   0.030  0.00  0.00    +0.010 A 
ATOM     29  C   UNL     1      -1.221   1.748   0.017  0.00  0.00    +0.004 A 
ATOM     30  C   UNL     1      -0.013   1.076   0.008  0.00  0.00    +0.045 A 
ATOM     31  C   UNL     1       1.182   1.784   0.000  0.00  0.00    +0.117 A 
ATOM     32  C   UNL     1       1.167   3.168   0.007  0.00  0.00    +0.055 A 
BRANCH  31  33
ATOM     33  O   UNL     1       2.366   1.117  -0.015  0.00  0.00    -0.507 OA
ATOM     34  H   UNL     1       2.700   0.929  -0.902  0.00  0.00    +0.292 HD
ENDBRANCH  31  33
ENDBRANCH  26  27
ENDBRANCH  12  25
TORSDOF 7
