REMARK  Name = ZINC65435416
REMARK  4 active torsions:
REMARK  status: ('A' for Active; 'I' for Inactive)
REMARK    1  A    between atoms: C_4  and  C_28
REMARK    2  A    between atoms: C_5  and  C_7
REMARK    3  A    between atoms: C_7  and  N_8
REMARK    4  A    between atoms: C_17  and  C_19
REMARK                            x       y       z     vdW  Elec       q    Type
REMARK                         _______ _______ _______ _____ _____    ______ ____
ROOT
ATOM      1  N   UNL     1       1.483  -2.682   1.337  0.00  0.00    -0.296 NA
ATOM      2  C   UNL     1       0.407  -2.332   2.228  0.00  0.00    +0.086 C 
ATOM      3  C   UNL     1       0.987  -1.919   3.579  0.00  0.00    +0.032 C 
ATOM      4  C   UNL     1       1.254  -3.064   4.477  0.00  0.00    +0.107 C 
ATOM      5  N   UNL     1       2.220  -3.960   3.812  0.00  0.00    -0.221 NA
ATOM      6  C   UNL     1       1.631  -4.710   2.741  0.00  0.00    +0.114 C 
ATOM      7  C   UNL     1       1.748  -4.154   1.330  0.00  0.00    +0.109 C 
ATOM      8  C   UNL     1       2.293  -6.072   2.832  0.00  0.00    +0.018 C 
ATOM      9  C   UNL     1       2.933  -6.081   3.992  0.00  0.00    +0.059 C 
ATOM     10  N   UNL     1       2.719  -4.895   4.684  0.00  0.00    -0.278 N 
ATOM     11  H   UNL     1       2.894  -4.751   5.628  0.00  0.00    +0.166 HD
ENDROOT
BRANCH   9  12
ATOM     12  C   UNL     1       3.778  -7.223   4.494  0.00  0.00    +0.221 C 
ATOM     13  N   UNL     1       3.283  -7.683   5.797  0.00  0.00    -0.359 N 
ATOM     14  C   UNL     1       4.244  -7.521   6.660  0.00  0.00    +0.060 A 
ATOM     15  C   UNL     1       4.351  -7.792   8.100  0.00  0.00    +0.027 A 
ATOM     16  C   UNL     1       5.501  -7.515   8.745  0.00  0.00    +0.002 A 
ATOM     17  C   UNL     1       6.623  -6.969   8.096  0.00  0.00    +0.002 A 
ATOM     18  C   UNL     1       6.632  -6.683   6.779  0.00  0.00    +0.027 A 
ATOM     19  C   UNL     1       5.432  -6.944   5.972  0.00  0.00    +0.060 A 
ATOM     20  N   UNL     1       5.158  -6.772   4.711  0.00  0.00    -0.359 N 
ATOM     21  H   UNL     1       2.400  -8.041   5.982  0.00  0.00    +0.162 HD
ATOM     22  H   UNL     1       5.757  -6.411   4.038  0.00  0.00    +0.162 HD
ENDBRANCH   9  12
BRANCH   1  23
ATOM     23  C   UNL     1       1.223  -2.188  -0.022  0.00  0.00    +0.121 C 
BRANCH  23  28
ATOM     24  C   UNL     1      -0.017   1.379   0.010  0.00  0.00    +0.000 A 
ATOM     25  C   UNL     1       1.168   2.094   0.002  0.00  0.00    +0.001 A 
ATOM     26  C   UNL     1       2.377   1.430  -0.013  0.00  0.00    +0.019 A 
ATOM     27  C   UNL     1       2.404   0.034  -0.021  0.00  0.00    +0.056 A 
ATOM     28  C   UNL     1       1.204  -0.681  -0.013  0.00  0.00    -0.016 A 
ATOM     29  C   UNL     1       0.002  -0.004   0.002  0.00  0.00    +0.006 A 
BRANCH  27  30
ATOM     30  C   UNL     1       3.655  -0.662  -0.038  0.00  0.00    +0.099 C 
ATOM     31  N   UNL     1       4.648  -1.214  -0.051  0.00  0.00    -0.191 NA
ENDBRANCH  27  30
ENDBRANCH  23  28
ENDBRANCH   1  23
TORSDOF 4
