REMARK  Name = ZINC64959107
REMARK  5 active torsions:
REMARK  status: ('A' for Active; 'I' for Inactive)
REMARK    1  A    between atoms: C_1  and  C_2
REMARK    2  A    between atoms: C_5  and  C_8
REMARK    3  A    between atoms: C_8  and  N_9
REMARK    4  A    between atoms: C_10  and  C_12
REMARK    5  A    between atoms: C_21  and  C_26
REMARK                            x       y       z     vdW  Elec       q    Type
REMARK                         _______ _______ _______ _____ _____    ______ ____
ROOT
ATOM      1  C   UNL     1       3.099  -6.540  -0.162  0.00  0.00    +0.102 A 
ATOM      2  C   UNL     1       3.384  -7.893  -0.282  0.00  0.00    +0.031 A 
ATOM      3  C   UNL     1       4.731  -8.299  -0.395  0.00  0.00    +0.038 A 
ATOM      4  C   UNL     1       5.753  -7.365  -0.380  0.00  0.00    +0.030 A 
ATOM      5  N   UNL     1       5.477  -6.050  -0.269  0.00  0.00    -0.325 N 
ATOM      6  H   UNL     1       6.210  -5.414  -0.268  0.00  0.00    +0.169 HD
ATOM      7  C   UNL     1       4.218  -5.594  -0.165  0.00  0.00    +0.261 A 
ATOM      8  O   UNL     1       4.007  -4.399  -0.069  0.00  0.00    -0.267 OA
ATOM      9  C   UNL     1       7.199  -7.782  -0.478  0.00  0.00    +0.062 C 
ATOM     10  C   UNL     1       7.339  -9.147  -1.144  0.00  0.00    +0.032 C 
ATOM     11  C   UNL     1       6.477 -10.169  -0.389  0.00  0.00    +0.088 C 
ATOM     12  C   UNL     1       5.034  -9.733  -0.535  0.00  0.00    +0.165 C 
ATOM     13  O   UNL     1       4.157 -10.540  -0.758  0.00  0.00    -0.292 OA
ENDROOT
BRANCH  10  14
ATOM     14  C   UNL     1       8.782  -9.579  -1.106  0.00  0.00    -0.044 A 
ATOM     15  C   UNL     1       9.425  -9.738   0.107  0.00  0.00    +0.004 A 
ATOM     16  C   UNL     1      10.749 -10.134   0.141  0.00  0.00    +0.000 A 
ATOM     17  C   UNL     1      11.430 -10.373  -1.038  0.00  0.00    +0.000 A 
ATOM     18  C   UNL     1      10.786 -10.215  -2.251  0.00  0.00    +0.000 A 
ATOM     19  C   UNL     1       9.461  -9.823  -2.285  0.00  0.00    +0.004 A 
ENDBRANCH  10  14
BRANCH   1  21
ATOM     20  N   UNL     1       1.446  -4.746  -0.039  0.00  0.00    -0.307 N 
ATOM     21  C   UNL     1       1.710  -6.067  -0.040  0.00  0.00    +0.250 C 
ATOM     22  O   UNL     1       0.801  -6.870   0.059  0.00  0.00    -0.270 OA
ATOM     23  H   UNL     1       2.174  -4.106  -0.043  0.00  0.00    +0.149 HD
BRANCH  20  24
ATOM     24  C   UNL     1       0.058  -4.277  -0.032  0.00  0.00    +0.139 C 
BRANCH  24  29
ATOM     25  C   UNL     1      -0.025   1.501  -0.032  0.00  0.00    +0.044 C 
ATOM     26  C   UNL     1      -0.003  -0.005  -0.032  0.00  0.00    -0.050 A 
ATOM     27  C   UNL     1       0.001  -0.697  -1.229  0.00  0.00    +0.003 A 
ATOM     28  C   UNL     1       0.021  -2.079  -1.229  0.00  0.00    +0.005 A 
ATOM     29  C   UNL     1       0.037  -2.770  -0.032  0.00  0.00    -0.030 A 
ATOM     30  C   UNL     1       0.034  -2.079   1.165  0.00  0.00    +0.005 A 
ATOM     31  C   UNL     1       0.018  -0.696   1.165  0.00  0.00    +0.003 A 
ENDBRANCH  24  29
ENDBRANCH  20  24
ENDBRANCH   1  21
TORSDOF 4
