REMARK  Name = ZINC08012858
REMARK  4 active torsions:
REMARK  status: ('A' for Active; 'I' for Inactive)
REMARK    1  A    between atoms: C_1  and  C_2
REMARK    2  A    between atoms: C_9  and  N_14
REMARK    3  A    between atoms: C_10  and  C_11
REMARK    4  A    between atoms: C_15  and  C_17
REMARK                            x       y       z     vdW  Elec       q    Type
REMARK                         _______ _______ _______ _____ _____    ______ ____
ROOT
ATOM      1  N   UNL     1       2.342   3.288  -0.029  0.00  0.00    -0.275 N 
ATOM      2  C   UNL     1       1.635   4.435   0.003  0.00  0.00    +0.249 C 
ATOM      3  O   UNL     1       0.420   4.400   0.033  0.00  0.00    -0.270 OA
ATOM      4  H   UNL     1       3.311   3.316  -0.052  0.00  0.00    +0.156 HD
ENDROOT
BRANCH   2   5
ATOM      5  C   UNL     1       2.337   5.737   0.003  0.00  0.00    +0.051 A 
ATOM      6  C   UNL     1       3.720   5.811   0.088  0.00  0.00    +0.083 A 
ATOM      7  C   UNL     1       4.343   7.064   0.085  0.00  0.00    +0.250 A 
ATOM      8  N   UNL     1       3.665   8.186   0.014  0.00  0.00    -0.322 N 
ATOM      9  C   UNL     1       2.333   8.211  -0.071  0.00  0.00    +0.050 A 
ATOM     10  C   UNL     1       1.601   6.998  -0.087  0.00  0.00    +0.011 A 
ATOM     11  C   UNL     1       0.206   7.027  -0.188  0.00  0.00    +0.011 A 
ATOM     12  C   UNL     1      -0.438   8.225  -0.275  0.00  0.00    +0.001 A 
ATOM     13  C   UNL     1       0.276   9.421  -0.265  0.00  0.00    +0.002 A 
ATOM     14  C   UNL     1       1.633   9.429  -0.157  0.00  0.00    +0.026 A 
ATOM     15  O   UNL     1       5.695   7.122   0.169  0.00  0.00    -0.268 OA
ATOM     16  H   UNL     1       4.165   9.053   0.024  0.00  0.00    +0.169 HD
ENDBRANCH   2   5
BRANCH   1  24
ATOM     17  C   UNL     1      -1.743  -3.380   0.075  0.00  0.00    +0.008 C 
ATOM     18  C   UNL     1      -0.647  -2.348   0.348  0.00  0.00    -0.009 C 
ATOM     19  C   UNL     1       0.575  -2.654  -0.523  0.00  0.00    +0.008 C 
ATOM     20  C   UNL     1       1.757  -1.789  -0.084  0.00  0.00    +0.037 C 
ATOM     21  C   UNL     1       1.313  -0.332  -0.052  0.00  0.00    -0.023 A 
ATOM     22  C   UNL     1       0.003  -0.004  -0.016  0.00  0.00    -0.004 A 
ATOM     23  S   UNL     1      -0.021   1.766   0.009  0.00  0.00    -0.077 S 
ATOM     24  C   UNL     1       1.684   2.069  -0.028  0.00  0.00    +0.085 A 
ATOM     25  C   UNL     1       2.232   0.794  -0.059  0.00  0.00    +0.068 A 
ATOM     26  C   UNL     1      -1.163  -0.944   0.001  0.00  0.00    +0.046 C 
BRANCH  25  27
ATOM     27  C   UNL     1       3.683   0.590  -0.096  0.00  0.00    +0.244 C 
ATOM     28  O   UNL     1       4.261   0.519  -1.165  0.00  0.00    -0.270 OA
ATOM     29  N   UNL     1       4.378   0.481   1.054  0.00  0.00    -0.325 N 
ATOM     30  H   UNL     1       3.917   0.537   1.906  0.00  0.00    +0.145 HD
ATOM     31  H   UNL     1       5.338   0.346   1.029  0.00  0.00    +0.145 HD
ENDBRANCH  25  27
ENDBRANCH   1  24
TORSDOF 3
