REMARK  Name = ZINC39630794
REMARK  11 active torsions:
REMARK  status: ('A' for Active; 'I' for Inactive)
REMARK    1  A    between atoms: C_1  and  C_2
REMARK    2  A    between atoms: C_6  and  C_9
REMARK    3  A    between atoms: C_13  and  C_22
REMARK    4  A    between atoms: N_24  and  C_25
REMARK    5  A    between atoms: C_25  and  C_26
REMARK    6  A    between atoms: C_26  and  C_27
REMARK    7  A    between atoms: C_26  and  C_28
REMARK    8  A    between atoms: C_26  and  C_29
REMARK    9  A    between atoms: C_29  and  N_30
REMARK   10  A    between atoms: N_30  and  C_31
REMARK   11  A    between atoms: N_30  and  C_32
REMARK                            x       y       z     vdW  Elec       q    Type
REMARK                         _______ _______ _______ _____ _____    ______ ____
ROOT
ATOM      1  C   UNL     1       0.235  -3.033   1.230  0.00  0.00    +0.252 C 
ATOM      2  O   UNL     1       1.312  -3.464   1.594  0.00  0.00    -0.270 OA
ATOM      3  N   UNL     1      -0.878  -3.318   1.936  0.00  0.00    -0.296 N 
ATOM      4  C   UNL     1      -2.268  -2.893   1.649  0.00  0.00    +0.121 C 
ATOM      5  C   UNL     1      -3.132  -4.127   1.992  0.00  0.00    +0.100 C 
ATOM      6  C   UNL     1      -2.287  -4.933   2.993  0.00  0.00    -0.004 C 
ATOM      7  C   UNL     1      -0.988  -4.133   3.169  0.00  0.00    +0.115 C 
ATOM      8  C   UNL     1      -1.975  -6.316   2.429  0.00  0.00    -0.010 C 
ATOM      9  C   UNL     1      -1.183  -7.117   3.466  0.00  0.00    -0.082 C 
ATOM     10  N   UNL     1      -1.968  -7.235   4.700  0.00  0.00    +0.379 N 
ATOM     11  C   UNL     1      -2.184  -5.907   5.285  0.00  0.00    -0.082 C 
ATOM     12  C   UNL     1      -3.019  -5.054   4.326  0.00  0.00    -0.010 C 
ATOM     13  H   UNL     1      -2.860  -7.658   4.491  0.00  0.00    -0.086 HD
ATOM     14  H   UNL     1      -1.471  -7.815   5.360  0.00  0.00    -0.086 HD
ENDROOT
BRANCH   1  20
ATOM     15  C   UNL     1       0.326   1.465  -0.935  0.00  0.00    +0.047 C 
ATOM     16  C   UNL     1       0.189  -0.032  -1.032  0.00  0.00    -0.014 A 
ATOM     17  C   UNL     1      -0.023  -0.627  -2.262  0.00  0.00    +0.009 A 
ATOM     18  C   UNL     1      -0.150  -2.001  -2.362  0.00  0.00    +0.039 A 
ATOM     19  C   UNL     1      -0.068  -2.791  -1.231  0.00  0.00    +0.138 A 
ATOM     20  C   UNL     1       0.145  -2.198   0.017  0.00  0.00    +0.107 A 
ATOM     21  C   UNL     1       0.280  -0.808   0.109  0.00  0.00    +0.141 A 
ATOM     22  F   UNL     1       0.492  -0.225   1.309  0.00  0.00    -0.204 F 
ATOM     23  F   UNL     1      -0.194  -4.132  -1.331  0.00  0.00    -0.205 F 
ENDBRANCH   1  20
BRANCH   5  24
ATOM     24  C   UNL     1      -4.432  -3.700   2.624  0.00  0.00    +0.218 C 
ATOM     25  O   UNL     1      -4.482  -2.678   3.275  0.00  0.00    -0.275 OA
ATOM     26  N   UNL     1      -5.538  -4.452   2.465  0.00  0.00    -0.315 N 
ATOM     27  H   UNL     1      -5.498  -5.269   1.944  0.00  0.00    +0.149 HD
BRANCH  26  28
ATOM     28  C   UNL     1      -6.802  -4.036   3.079  0.00  0.00    +0.108 C 
BRANCH  28  29
ATOM     29  C   UNL     1      -7.891  -5.058   2.747  0.00  0.00    -0.034 C 
ATOM     30  C   UNL     1      -8.065  -5.143   1.229  0.00  0.00    +0.010 C 
ATOM     31  C   UNL     1      -7.486  -6.430   3.291  0.00  0.00    +0.010 C 
BRANCH  29  32
ATOM     32  C   UNL     1      -9.210  -4.624   3.388  0.00  0.00    -0.072 C 
BRANCH  32  33
ATOM     33  N   UNL     1     -10.266  -5.582   3.034  0.00  0.00    +0.376 N 
ATOM     34  C   UNL     1     -10.256  -6.697   3.990  0.00  0.00    -0.097 C 
ATOM     35  C   UNL     1     -11.572  -4.911   3.078  0.00  0.00    -0.097 C 
ATOM     36  H   UNL     1     -10.101  -5.936   2.104  0.00  0.00    -0.083 HD
ENDBRANCH  32  33
ENDBRANCH  29  32
ENDBRANCH  28  29
ENDBRANCH  26  28
ENDBRANCH   5  24
TORSDOF 6
