REMARK  Name = ZINC06792785
REMARK  4 active torsions:
REMARK  status: ('A' for Active; 'I' for Inactive)
REMARK    1  A    between atoms: C_1  and  C_2
REMARK    2  A    between atoms: C_4  and  N_26
REMARK    3  A    between atoms: C_7  and  C_8
REMARK    4  A    between atoms: C_16  and  C_19
REMARK                            x       y       z     vdW  Elec       q    Type
REMARK                         _______ _______ _______ _____ _____    ______ ____
ROOT
ATOM      1  C   UNL     1       0.721   7.966   2.007  0.00  0.00    +0.044 C 
ATOM      2  C   UNL     1       0.312   6.720   1.265  0.00  0.00    -0.045 A 
ATOM      3  C   UNL     1      -0.023   6.787  -0.076  0.00  0.00    +0.038 A 
ATOM      4  C   UNL     1      -0.402   5.650  -0.754  0.00  0.00    +0.147 A 
ATOM      5  C   UNL     1      -0.457   4.415  -0.105  0.00  0.00    +0.062 A 
ATOM      6  C   UNL     1      -0.104   4.359   1.246  0.00  0.00    -0.014 A 
ATOM      7  C   UNL     1       0.270   5.503   1.919  0.00  0.00    -0.042 A 
ATOM      8  C   UNL     1       0.635   5.426   3.379  0.00  0.00    +0.044 C 
ATOM      9  C   UNL     1      -0.146   3.041   1.917  0.00  0.00    +0.049 C 
ATOM     10  C   UNL     1      -0.420   2.889   3.367  0.00  0.00    -0.023 C 
ATOM     11  C   UNL     1      -1.058   1.740   3.558  0.00  0.00    -0.030 C 
ATOM     12  C   UNL     1      -1.295   1.045   2.215  0.00  0.00    +0.033 C 
ATOM     13  C   UNL     1      -1.308   2.238   1.252  0.00  0.00    +0.029 C 
ATOM     14  C   UNL     1      -0.847   2.008  -0.172  0.00  0.00    +0.105 C 
ATOM     15  N   UNL     1      -0.871   3.313  -0.850  0.00  0.00    -0.335 N 
ATOM     16  H   UNL     1      -0.385   3.271  -1.734  0.00  0.00    +0.147 HD
ENDROOT
BRANCH  14  17
ATOM     17  C   UNL     1       0.555   1.453  -0.175  0.00  0.00    -0.026 A 
ATOM     18  C   UNL     1       1.636   2.308  -0.281  0.00  0.00    +0.005 A 
ATOM     19  C   UNL     1       2.921   1.800  -0.289  0.00  0.00    +0.002 A 
ATOM     20  C   UNL     1       3.126   0.436  -0.193  0.00  0.00    +0.020 A 
ATOM     21  C   UNL     1       2.045  -0.420  -0.087  0.00  0.00    +0.041 A 
ATOM     22  C   UNL     1       0.758   0.090  -0.079  0.00  0.00    +0.025 A 
ATOM     23 CL   UNL     1       2.301  -2.132   0.034  0.00  0.00    -0.084 Cl
ENDBRANCH  14  17
BRANCH   4  24
ATOM     24  N   UNL     1      -0.757   5.739  -2.188  0.00  0.00    +0.058 N 
ATOM     25  O   UNL     1      -0.712   6.812  -2.761  0.00  0.00    -0.126 OA
ATOM     26  O   UNL     1      -1.094   4.738  -2.795  0.00  0.00    -0.126 OA
ENDBRANCH   4  24
TORSDOF 2
