REMARK  Name = ZINC59139384
REMARK  6 active torsions:
REMARK  status: ('A' for Active; 'I' for Inactive)
REMARK    1  A    between atoms: C_1  and  N_2
REMARK    2  A    between atoms: C_6  and  C_7
REMARK    3  A    between atoms: C_10  and  O_14
REMARK    4  A    between atoms: O_14  and  C_15
REMARK    5  A    between atoms: C_15  and  C_16
REMARK    6  A    between atoms: N_22  and  C_25
REMARK                            x       y       z     vdW  Elec       q    Type
REMARK                         _______ _______ _______ _____ _____    ______ ____
ROOT
ATOM      1  C   UNL     1      -2.191  -4.369  -0.123  0.00  0.00    -0.022 A 
ATOM      2  C   UNL     1      -1.127  -5.066   0.470  0.00  0.00    +0.027 A 
ATOM      3  C   UNL     1      -1.056  -6.430   0.355  0.00  0.00    +0.061 A 
ATOM      4  C   UNL     1      -2.036  -7.124  -0.349  0.00  0.00    +0.149 A 
ATOM      5  C   UNL     1      -3.094  -6.439  -0.940  0.00  0.00    +0.061 A 
ATOM      6  C   UNL     1      -3.179  -5.075  -0.826  0.00  0.00    +0.027 A 
ATOM      7 BR   UNL     1      -4.420  -7.391  -1.894  0.00  0.00    -0.046 Br
ATOM      8 BR   UNL     1       0.377  -7.371   1.153  0.00  0.00    -0.046 Br
ENDROOT
BRANCH   1  14
ATOM      9  C   UNL     1       0.042   1.426   0.167  0.00  0.00    +0.140 C 
ATOM     10  N   UNL     1      -0.002  -0.004  -0.145  0.00  0.00    -0.252 N 
ATOM     11  C   UNL     1      -1.133  -0.698   0.099  0.00  0.00    +0.257 C 
ATOM     12  O   UNL     1      -2.111  -0.151   0.572  0.00  0.00    -0.269 OA
ATOM     13  C   UNL     1      -1.151  -2.138  -0.225  0.00  0.00    +0.100 C 
ATOM     14  C   UNL     1      -2.273  -2.913  -0.004  0.00  0.00    +0.026 C 
ATOM     15  C   UNL     1       0.083  -2.713  -0.797  0.00  0.00    +0.257 C 
ATOM     16  O   UNL     1       0.146  -3.892  -1.090  0.00  0.00    -0.269 OA
ATOM     17  N   UNL     1       1.139  -1.895  -0.985  0.00  0.00    -0.252 N 
ATOM     18  C   UNL     1       1.081  -0.593  -0.671  0.00  0.00    +0.148 C 
ATOM     19  S   UNL     1       2.469   0.369  -0.952  0.00  0.00    -0.018 S 
ATOM     20  C   UNL     1       2.375  -2.440  -1.551  0.00  0.00    +0.140 C 
ENDBRANCH   1  14
BRANCH   4  21
ATOM     21  O   UNL     1      -1.960  -8.474  -0.460  0.00  0.00    -0.478 OA
BRANCH  21  22
ATOM     22  C   UNL     1      -2.602  -9.246   0.557  0.00  0.00    +0.353 C 
BRANCH  22  23
ATOM     23  C   UNL     1      -2.413 -10.713   0.269  0.00  0.00    +0.393 C 
ATOM     24  O   UNL     1      -1.786 -11.065  -0.716  0.00  0.00    -0.243 OA
ATOM     25  O   UNL     1      -2.887 -11.548   1.020  0.00  0.00    -0.243 OA
ENDBRANCH  22  23
ENDBRANCH  21  22
ENDBRANCH   4  21
TORSDOF 4
