REMARK  Name = ZINC51086971
REMARK  2 active torsions:
REMARK  status: ('A' for Active; 'I' for Inactive)
REMARK    1  A    between atoms: C_8  and  C_11
REMARK    2  A    between atoms: C_11  and  N_12
REMARK                            x       y       z     vdW  Elec       q    Type
REMARK                         _______ _______ _______ _____ _____    ______ ____
ROOT
ATOM      1  N   UNL     1       5.193  -3.271   0.115  0.00  0.00    -0.308 N 
ATOM      2  C   UNL     1       6.258  -2.555  -0.408  0.00  0.00    +0.070 A 
ATOM      3  C   UNL     1       6.388  -1.650  -1.450  0.00  0.00    +0.029 A 
ATOM      4  C   UNL     1       7.621  -1.096  -1.729  0.00  0.00    +0.017 A 
ATOM      5  C   UNL     1       8.732  -1.439  -0.973  0.00  0.00    +0.020 A 
ATOM      6  C   UNL     1       8.621  -2.337   0.066  0.00  0.00    +0.045 A 
ATOM      7  C   UNL     1       7.379  -2.905   0.361  0.00  0.00    +0.092 A 
ATOM      8  N   UNL     1       6.960  -3.797   1.297  0.00  0.00    -0.215 NA
ATOM      9  C   UNL     1       5.675  -4.009   1.158  0.00  0.00    +0.194 A 
ATOM     10  N   UNL     1       4.921  -4.855   1.944  0.00  0.00    -0.329 N 
ATOM     11 BR   UNL     1      10.413  -0.669  -1.371  0.00  0.00    -0.050 Br
ATOM     12  H   UNL     1       3.972  -4.959   1.774  0.00  0.00    +0.145 HD
ATOM     13  H   UNL     1       5.341  -5.346   2.668  0.00  0.00    +0.145 HD
ENDROOT
BRANCH   1  14
ATOM     14  C   UNL     1       3.807  -3.236  -0.358  0.00  0.00    +0.170 C 
BRANCH  14  22
ATOM     15  C   UNL     1      -0.017   1.379   0.010  0.00  0.00    +0.000 A 
ATOM     16  C   UNL     1       1.174   2.082   0.002  0.00  0.00    +0.004 A 
ATOM     17  C   UNL     1       2.379   1.411  -0.017  0.00  0.00    +0.046 A 
ATOM     18  C   UNL     1       2.407   0.019  -0.028  0.00  0.00    +0.124 A 
ATOM     19  C   UNL     1       1.204  -0.676  -0.013  0.00  0.00    -0.002 A 
ATOM     20  C   UNL     1       0.002  -0.004   0.002  0.00  0.00    +0.007 A 
ATOM     21  C   UNL     1       1.545  -2.154  -0.005  0.00  0.00    +0.085 C 
ATOM     22  C   UNL     1       3.043  -2.135   0.380  0.00  0.00    +0.198 C 
ATOM     23  O   UNL     1       3.468  -0.833  -0.059  0.00  0.00    -0.486 OA
ENDBRANCH  14  22
ENDBRANCH   1  14
TORSDOF 2
