REMARK  Name = ZINC37581065
REMARK  10 active torsions:
REMARK  status: ('A' for Active; 'I' for Inactive)
REMARK    1  A    between atoms: C_1  and  C_2
REMARK    2  A    between atoms: C_2  and  C_4
REMARK    3  A    between atoms: C_2  and  N_7
REMARK    4  A    between atoms: C_4  and  O_5
REMARK    5  A    between atoms: O_5  and  C_6
REMARK    6  A    between atoms: N_7  and  S_8
REMARK    7  A    between atoms: S_8  and  C_11
REMARK    8  A    between atoms: C_14  and  C_18
REMARK    9  A    between atoms: C_19  and  C_20
REMARK   10  A    between atoms: C_20  and  N_21
REMARK                            x       y       z     vdW  Elec       q    Type
REMARK                         _______ _______ _______ _____ _____    ______ ____
ROOT
ATOM      1  C   UNL     1      -2.251   0.555   2.392  0.00  0.00    +0.142 A 
ATOM      2  C   UNL     1      -1.231   0.941   3.244  0.00  0.00    +0.070 A 
ATOM      3  C   UNL     1      -1.350   2.099   3.989  0.00  0.00    +0.039 A 
ATOM      4  C   UNL     1      -2.501   2.879   3.880  0.00  0.00    +0.028 A 
ATOM      5  C   UNL     1      -3.526   2.485   3.019  0.00  0.00    +0.039 A 
ATOM      6  C   UNL     1      -3.394   1.329   2.276  0.00  0.00    +0.070 A 
ATOM      7 CL   UNL     1      -4.665   0.840   1.199  0.00  0.00    -0.081 Cl
ATOM      8 CL   UNL     1       0.201  -0.032   3.379  0.00  0.00    -0.081 Cl
ENDROOT
BRANCH   1   9
ATOM      9  S   UNL     1      -2.092  -0.923   1.446  0.00  0.00    +0.061 S 
ATOM     10  O   UNL     1      -3.411  -1.347   1.131  0.00  0.00    -0.153 OA
ATOM     11  O   UNL     1      -1.170  -1.752   2.140  0.00  0.00    -0.153 OA
BRANCH   9  12
ATOM     12  N   UNL     1      -1.372  -0.511   0.012  0.00  0.00    -0.185 NA
ATOM     13  H   UNL     1      -1.861  -0.606  -0.820  0.00  0.00    +0.148 HD
BRANCH  12  15
ATOM     14  C   UNL     1      -0.019   1.526   0.010  0.00  0.00    +0.028 C 
ATOM     15  C   UNL     1       0.002  -0.004   0.002  0.00  0.00    +0.099 C 
BRANCH  15  16
ATOM     16  C   UNL     1       0.718  -0.497  -1.257  0.00  0.00    +0.179 C 
BRANCH  16  17
ATOM     17  O   UNL     1       0.097   0.070  -2.412  0.00  0.00    -0.381 OA
ATOM     18  C   UNL     1       0.693  -0.329  -3.648  0.00  0.00    +0.194 C 
ENDBRANCH  16  17
ENDBRANCH  15  16
ENDBRANCH  12  15
ENDBRANCH   9  12
ENDBRANCH   1   9
BRANCH   4  19
ATOM     19  C   UNL     1      -2.631   4.080   4.649  0.00  0.00    -0.068 C 
ATOM     20  C   UNL     1      -2.737   5.064   5.280  0.00  0.00    -0.117 C 
BRANCH  20  21
ATOM     21  C   UNL     1      -2.870   6.299   6.071  0.00  0.00    +0.005 C 
BRANCH  21  22
ATOM     22  N   UNL     1      -4.163   6.932   5.777  0.00  0.00    +0.385 N 
ATOM     23  H   UNL     1      -4.212   7.155   4.794  0.00  0.00    -0.089 HD
ATOM     24  H   UNL     1      -4.910   6.297   6.016  0.00  0.00    -0.089 HD
ATOM     25  H   UNL     1      -4.254   7.778   6.319  0.00  0.00    -0.089 HD
ENDBRANCH  21  22
ENDBRANCH  20  21
ENDBRANCH   4  19
TORSDOF 8
