REMARK  Name = ZINC40796182
REMARK  5 active torsions:
REMARK  status: ('A' for Active; 'I' for Inactive)
REMARK    1  A    between atoms: C_4  and  O_7
REMARK    2  A    between atoms: O_7  and  C_8
REMARK    3  A    between atoms: C_9  and  N_22
REMARK    4  A    between atoms: C_10  and  O_14
REMARK    5  A    between atoms: O_14  and  C_15
REMARK                            x       y       z     vdW  Elec       q    Type
REMARK                         _______ _______ _______ _____ _____    ______ ____
ROOT
ATOM      1  C   UNL     1       3.539  -1.987   0.370  0.00  0.00    +0.248 A 
ATOM      2  C   UNL     1       4.730  -2.711   0.302  0.00  0.00    +0.150 A 
ATOM      3  C   UNL     1       4.665  -4.099   0.416  0.00  0.00    +0.248 A 
ATOM      4  N   UNL     1       3.480  -4.677   0.584  0.00  0.00    -0.199 NA
ATOM      5  C   UNL     1       2.378  -3.957   0.643  0.00  0.00    +0.229 A 
ATOM      6  N   UNL     1       2.396  -2.643   0.545  0.00  0.00    -0.199 NA
ENDROOT
BRANCH   2   7
ATOM      7  N   UNL     1       5.959  -2.059   0.124  0.00  0.00    -0.350 N 
ATOM      8  H   UNL     1       5.989  -1.093   0.046  0.00  0.00    +0.143 HD
ATOM      9  H   UNL     1       6.779  -2.575   0.078  0.00  0.00    +0.143 HD
ENDBRANCH   2   7
BRANCH   1  10
ATOM     10  O   UNL     1       3.547  -0.635   0.265  0.00  0.00    -0.436 OA
BRANCH  10  14
ATOM     11  C   UNL     1      -0.017   1.373   0.798  0.00  0.00    +0.000 A 
ATOM     12  C   UNL     1       0.628   0.811   1.885  0.00  0.00    +0.004 A 
ATOM     13  C   UNL     1       1.821   0.138   1.709  0.00  0.00    +0.046 A 
ATOM     14  C   UNL     1       2.373   0.026   0.441  0.00  0.00    +0.130 A 
ATOM     15  C   UNL     1       1.724   0.591  -0.648  0.00  0.00    +0.046 A 
ATOM     16  C   UNL     1       0.531   1.263  -0.467  0.00  0.00    +0.004 A 
ENDBRANCH  10  14
ENDBRANCH   1  10
BRANCH   3  17
ATOM     17  O   UNL     1       5.794  -4.849   0.356  0.00  0.00    -0.436 OA
BRANCH  17  18
ATOM     18  C   UNL     1       5.662  -6.202   0.344  0.00  0.00    +0.131 A 
ATOM     19  C   UNL     1       5.192  -6.844  -0.792  0.00  0.00    +0.047 A 
ATOM     20  C   UNL     1       5.059  -8.219  -0.802  0.00  0.00    +0.019 A 
ATOM     21  C   UNL     1       5.394  -8.955   0.320  0.00  0.00    +0.018 A 
ATOM     22  C   UNL     1       5.863  -8.317   1.454  0.00  0.00    +0.019 A 
ATOM     23  C   UNL     1       6.003  -6.943   1.467  0.00  0.00    +0.047 A 
ATOM     24 BR   UNL     1       5.211 -10.837   0.303  0.00  0.00    -0.050 Br
ENDBRANCH  17  18
ENDBRANCH   3  17
TORSDOF 5
