REMARK  Name = ZINC13213738
REMARK  4 active torsions:
REMARK  status: ('A' for Active; 'I' for Inactive)
REMARK    1  A    between atoms: C_1  and  O_2
REMARK    2  A    between atoms: O_2  and  C_3
REMARK    3  A    between atoms: C_8  and  C_9
REMARK    4  A    between atoms: C_26  and  C_28
REMARK                            x       y       z     vdW  Elec       q    Type
REMARK                         _______ _______ _______ _____ _____    ______ ____
ROOT
ATOM      1  C   UNL     1       0.051  -2.828  -0.033  0.00  0.00    +0.238 C 
ATOM      2  C   UNL     1       1.080  -3.083   1.029  0.00  0.00    +0.028 C 
ATOM      3  C   UNL     1       1.884  -4.165   0.961  0.00  0.00    +0.083 C 
ATOM      4  C   UNL     1       1.700  -5.085  -0.189  0.00  0.00    +0.042 A 
ATOM      5  C   UNL     1       2.663  -6.025  -0.528  0.00  0.00    +0.013 A 
ATOM      6  C   UNL     1       2.450  -6.860  -1.609  0.00  0.00    +0.001 A 
ATOM      7  C   UNL     1       1.286  -6.759  -2.349  0.00  0.00    +0.004 A 
ATOM      8  C   UNL     1       0.321  -5.825  -2.017  0.00  0.00    +0.046 A 
ATOM      9  C   UNL     1       0.520  -4.983  -0.937  0.00  0.00    +0.131 A 
ATOM     10  O   UNL     1      -0.409  -4.064  -0.584  0.00  0.00    -0.479 OA
ATOM     11  N   UNL     1       2.824  -4.404   1.909  0.00  0.00    -0.216 NA
ATOM     12  C   UNL     1       3.029  -3.635   2.955  0.00  0.00    +0.209 C 
ATOM     13  N   UNL     1       3.915  -3.724   3.997  0.00  0.00    -0.275 N 
ATOM     14  C   UNL     1       3.705  -2.652   4.831  0.00  0.00    +0.208 C 
ATOM     15  N   UNL     1       2.748  -1.922   4.356  0.00  0.00    -0.169 NA
ATOM     16  N   UNL     1       2.294  -2.506   3.172  0.00  0.00    -0.182 N 
ATOM     17  C   UNL     1       1.250  -2.144   2.202  0.00  0.00    +0.164 C 
ATOM     18  H   UNL     1       4.576  -4.422   4.124  0.00  0.00    +0.156 HD
ENDROOT
BRANCH   1  24
ATOM     19  C   UNL     1       0.686  -0.609  -1.013  0.00  0.00    +0.127 A 
ATOM     20  C   UNL     1       1.253   0.158  -2.020  0.00  0.00    +0.046 A 
ATOM     21  C   UNL     1       1.787  -0.455  -3.136  0.00  0.00    +0.004 A 
ATOM     22  C   UNL     1       1.756  -1.833  -3.251  0.00  0.00    +0.001 A 
ATOM     23  C   UNL     1       1.191  -2.600  -2.249  0.00  0.00    +0.011 A 
ATOM     24  C   UNL     1       0.661  -1.991  -1.128  0.00  0.00    +0.039 A 
BRANCH  19  26
ATOM     25  C   UNL     1       0.221   1.419   0.138  0.00  0.00    +0.277 C 
ATOM     26  O   UNL     1       0.160  -0.008   0.087  0.00  0.00    -0.495 OA
ENDBRANCH  19  26
ENDBRANCH   1  24
BRANCH  17  27
ATOM     27  C   UNL     1      -0.065  -2.065   2.935  0.00  0.00    -0.003 A 
ATOM     28  C   UNL     1      -0.919  -0.993   2.730  0.00  0.00    +0.009 A 
ATOM     29  C   UNL     1      -2.118  -0.962   3.425  0.00  0.00    +0.020 A 
ATOM     30  C   UNL     1      -2.420  -1.994   4.294  0.00  0.00    +0.111 A 
ATOM     31  N   UNL     1      -1.583  -2.998   4.464  0.00  0.00    -0.263 NA
ATOM     32  C   UNL     1      -0.437  -3.064   3.815  0.00  0.00    +0.116 A 
ENDBRANCH  17  27
TORSDOF 3
