REMARK  Name = ZINC39630716
REMARK  13 active torsions:
REMARK  status: ('A' for Active; 'I' for Inactive)
REMARK    1  A    between atoms: C_1  and  C_2
REMARK    2  A    between atoms: C_2  and  C_3
REMARK    3  A    between atoms: C_3  and  C_5
REMARK    4  A    between atoms: C_3  and  C_6
REMARK    5  A    between atoms: C_10  and  C_19
REMARK    6  A    between atoms: N_21  and  C_22
REMARK    7  A    between atoms: C_22  and  C_23
REMARK    8  A    between atoms: C_23  and  C_24
REMARK    9  A    between atoms: C_23  and  C_25
REMARK   10  A    between atoms: C_23  and  C_26
REMARK   11  A    between atoms: C_26  and  N_27
REMARK   12  A    between atoms: N_27  and  C_28
REMARK   13  A    between atoms: N_27  and  C_29
REMARK                            x       y       z     vdW  Elec       q    Type
REMARK                         _______ _______ _______ _____ _____    ______ ____
ROOT
ATOM      1  C   UNL     1       0.687  -2.196   1.175  0.00  0.00    +0.218 C 
ATOM      2  O   UNL     1       0.080  -2.709   0.259  0.00  0.00    -0.275 OA
ATOM      3  N   UNL     1       1.150  -2.956   2.187  0.00  0.00    -0.300 N 
ATOM      4  C   UNL     1       1.900  -2.514   3.386  0.00  0.00    +0.121 C 
ATOM      5  C   UNL     1       1.331  -3.369   4.540  0.00  0.00    +0.100 C 
ATOM      6  C   UNL     1       0.759  -4.622   3.856  0.00  0.00    -0.004 C 
ATOM      7  C   UNL     1       1.018  -4.423   2.355  0.00  0.00    +0.115 C 
ATOM      8  C   UNL     1      -0.741  -4.728   4.116  0.00  0.00    -0.010 C 
ATOM      9  C   UNL     1      -1.276  -6.011   3.474  0.00  0.00    -0.082 C 
ATOM     10  N   UNL     1      -0.577  -7.171   4.039  0.00  0.00    +0.379 N 
ATOM     11  C   UNL     1       0.851  -7.108   3.704  0.00  0.00    -0.082 C 
ATOM     12  C   UNL     1       1.476  -5.872   4.356  0.00  0.00    -0.010 C 
ATOM     13  H   UNL     1      -0.686  -7.173   5.042  0.00  0.00    -0.086 HD
ATOM     14  H   UNL     1      -0.973  -8.018   3.659  0.00  0.00    -0.086 HD
ENDROOT
BRANCH   5  15
ATOM     15  C   UNL     1       0.241  -2.618   5.261  0.00  0.00    +0.218 C 
ATOM     16  O   UNL     1      -0.407  -1.778   4.674  0.00  0.00    -0.275 OA
ATOM     17  N   UNL     1      -0.013  -2.881   6.559  0.00  0.00    -0.315 N 
ATOM     18  H   UNL     1       0.505  -3.553   7.028  0.00  0.00    +0.149 HD
BRANCH  17  19
ATOM     19  C   UNL     1      -1.073  -2.151   7.260  0.00  0.00    +0.108 C 
BRANCH  19  20
ATOM     20  C   UNL     1      -1.153  -2.636   8.708  0.00  0.00    -0.034 C 
ATOM     21  C   UNL     1      -1.467  -4.134   8.728  0.00  0.00    +0.010 C 
ATOM     22  C   UNL     1       0.185  -2.386   9.405  0.00  0.00    +0.010 C 
BRANCH  20  23
ATOM     23  C   UNL     1      -2.260  -1.874   9.440  0.00  0.00    -0.072 C 
BRANCH  23  24
ATOM     24  N   UNL     1      -2.340  -2.343  10.830  0.00  0.00    +0.376 N 
ATOM     25  C   UNL     1      -1.405  -1.573  11.662  0.00  0.00    -0.097 C 
ATOM     26  C   UNL     1      -3.708  -2.156  11.332  0.00  0.00    -0.097 C 
ATOM     27  H   UNL     1      -2.098  -3.321  10.870  0.00  0.00    -0.083 HD
ENDBRANCH  23  24
ENDBRANCH  20  23
ENDBRANCH  19  20
ENDBRANCH  17  19
ENDBRANCH   5  15
BRANCH   1  28
ATOM     28  C   UNL     1       0.922  -0.707   1.183  0.00  0.00    +0.072 C 
ATOM     29  C   UNL     1       2.427  -0.429   1.195  0.00  0.00    +0.017 C 
BRANCH  28  31
ATOM     30  C   UNL     1       0.429   1.437  -0.001  0.00  0.00    +0.004 C 
ATOM     31  C   UNL     1       0.300  -0.086  -0.069  0.00  0.00    +0.009 C 
ENDBRANCH  28  31
ENDBRANCH   1  28
TORSDOF 7
