REMARK  Name = ZINC02265560
REMARK  8 active torsions:
REMARK  status: ('A' for Active; 'I' for Inactive)
REMARK    1  A    between atoms: C_4  and  C_7
REMARK    2  A    between atoms: C_7  and  C_8
REMARK    3  A    between atoms: C_8  and  C_9
REMARK    4  A    between atoms: C_9  and  N_10
REMARK    5  A    between atoms: C_11  and  C_13
REMARK    6  A    between atoms: N_24  and  N_27
REMARK    7  A    between atoms: C_25  and  N_26
REMARK    8  A    between atoms: C_28  and  C_29
REMARK                            x       y       z     vdW  Elec       q    Type
REMARK                         _______ _______ _______ _____ _____    ______ ____
ROOT
ATOM      1  C   UNL     1       0.103  -4.368   4.425  0.00  0.00    +0.105 A 
ATOM      2  C   UNL     1      -1.065  -4.676   5.267  0.00  0.00    +0.124 A 
ATOM      3  C   UNL     1      -0.513  -5.136   6.545  0.00  0.00    +0.183 A 
ATOM      4  N   UNL     1      -1.331  -5.491   7.513  0.00  0.00    -0.224 NA
ATOM      5  C   UNL     1      -2.655  -5.436   7.321  0.00  0.00    +0.092 A 
ATOM      6  C   UNL     1      -3.537  -5.814   8.351  0.00  0.00    +0.030 A 
ATOM      7  C   UNL     1      -4.880  -5.755   8.147  0.00  0.00    +0.002 A 
ATOM      8  C   UNL     1      -5.402  -5.323   6.929  0.00  0.00    +0.002 A 
ATOM      9  C   UNL     1      -4.582  -4.949   5.910  0.00  0.00    +0.030 A 
ATOM     10  C   UNL     1      -3.186  -4.997   6.083  0.00  0.00    +0.090 A 
ATOM     11  N   UNL     1      -2.369  -4.632   5.087  0.00  0.00    -0.241 NA
ATOM     12  N   UNL     1       0.864  -5.081   6.433  0.00  0.00    -0.198 N 
ATOM     13  C   UNL     1       1.229  -4.634   5.198  0.00  0.00    +0.134 A 
ENDROOT
BRANCH   1  15
ATOM     14  N   UNL     1       0.063  -2.547   2.812  0.00  0.00    -0.311 N 
ATOM     15  C   UNL     1       0.084  -3.873   3.051  0.00  0.00    +0.250 C 
ATOM     16  O   UNL     1       0.086  -4.660   2.121  0.00  0.00    -0.270 OA
ATOM     17  H   UNL     1       0.062  -1.921   3.552  0.00  0.00    +0.149 HD
BRANCH  14  18
ATOM     18  C   UNL     1       0.043  -2.052   1.433  0.00  0.00    +0.105 C 
BRANCH  18  19
ATOM     19  C   UNL     1       0.023  -0.522   1.442  0.00  0.00    +0.023 C 
BRANCH  19  20
ATOM     20  C   UNL     1       0.002  -0.004   0.002  0.00  0.00    +0.036 C 
BRANCH  20  24
ATOM     21  C   UNL     1      -0.056   4.267   0.025  0.00  0.00    +0.000 A 
ATOM     22  C   UNL     1       1.151   3.592   0.010  0.00  0.00    +0.000 A 
ATOM     23  C   UNL     1       1.169   2.210   0.003  0.00  0.00    +0.003 A 
ATOM     24  C   UNL     1      -0.018   1.503   0.010  0.00  0.00    -0.047 A 
ATOM     25  C   UNL     1      -1.225   2.178   0.020  0.00  0.00    +0.003 A 
ATOM     26  C   UNL     1      -1.244   3.560   0.032  0.00  0.00    +0.000 A 
ENDBRANCH  20  24
ENDBRANCH  19  20
ENDBRANCH  18  19
ENDBRANCH  14  18
ENDBRANCH   1  15
BRANCH  13  27
ATOM     27  N   UNL     1       2.524  -4.470   4.776  0.00  0.00    -0.342 N 
ATOM     28  H   UNL     1       2.704  -4.147   3.880  0.00  0.00    +0.144 HD
ATOM     29  H   UNL     1       3.258  -4.677   5.375  0.00  0.00    +0.144 HD
ENDBRANCH  13  27
BRANCH  12  30
ATOM     30  N   UNL     1       1.760  -5.436   7.449  0.00  0.00    -0.171 NA
ATOM     31  C   UNL     1       2.165  -4.543   8.299  0.00  0.00    +0.141 C 
BRANCH  31  32
ATOM     32  C   UNL     1       3.109  -4.917   9.368  0.00  0.00    -0.005 A 
ATOM     33  C   UNL     1       3.566  -6.233   9.473  0.00  0.00    +0.009 A 
ATOM     34  C   UNL     1       4.453  -6.575  10.472  0.00  0.00    +0.001 A 
ATOM     35  C   UNL     1       4.882  -5.620  11.377  0.00  0.00    +0.000 A 
ATOM     36  C   UNL     1       4.430  -4.315  11.283  0.00  0.00    +0.001 A 
ATOM     37  C   UNL     1       3.547  -3.958  10.285  0.00  0.00    +0.009 A 
ENDBRANCH  31  32
ENDBRANCH  12  30
TORSDOF 8
