REMARK  Name = ZINC15529973
REMARK  5 active torsions:
REMARK  status: ('A' for Active; 'I' for Inactive)
REMARK    1  A    between atoms: C_10  and  C_13
REMARK    2  A    between atoms: C_13  and  C_14
REMARK    3  A    between atoms: N_16  and  N_17
REMARK    4  A    between atoms: C_18  and  C_20
REMARK    5  A    between atoms: C_20  and  C_21
REMARK                            x       y       z     vdW  Elec       q    Type
REMARK                         _______ _______ _______ _____ _____    ______ ____
ROOT
ATOM      1  C   UNL     1       1.147   1.655   0.000  0.00  0.00    +0.231 C 
ATOM      2  O   UNL     1       1.130   2.868   0.007  0.00  0.00    -0.274 OA
ATOM      3  N   UNL     1      -0.011   0.966   0.007  0.00  0.00    -0.234 N 
ATOM      4  H   UNL     1       0.002  -0.004   0.002  0.00  0.00    +0.173 HD
ENDROOT
BRANCH   3   5
ATOM      5  N   UNL     1      -1.234   1.650   0.017  0.00  0.00    -0.234 N 
ATOM      6  C   UNL     1      -2.392   0.960   0.019  0.00  0.00    +0.233 C 
ATOM      7  O   UNL     1      -2.375  -0.253   0.012  0.00  0.00    -0.274 OA
ATOM      8  H   UNL     1      -1.247   2.620   0.022  0.00  0.00    +0.173 HD
BRANCH   6   9
ATOM      9  C   UNL     1      -3.707   1.696   0.029  0.00  0.00    +0.132 C 
BRANCH   9  10
ATOM     10  C   UNL     1      -4.839   0.701   0.029  0.00  0.00    -0.038 A 
ATOM     11  C   UNL     1      -5.367   0.256  -1.169  0.00  0.00    +0.005 A 
ATOM     12  C   UNL     1      -6.402  -0.661  -1.169  0.00  0.00    +0.020 A 
ATOM     13  C   UNL     1      -6.916  -1.124   0.029  0.00  0.00    +0.041 A 
ATOM     14  C   UNL     1      -6.391  -0.674   1.227  0.00  0.00    +0.020 A 
ATOM     15  C   UNL     1      -5.352   0.238   1.226  0.00  0.00    +0.005 A 
ATOM     16 CL   UNL     1      -8.220  -2.271   0.029  0.00  0.00    -0.084 Cl
ENDBRANCH   9  10
ENDBRANCH   6   9
ENDBRANCH   3   5
BRANCH   1  17
ATOM     17  C   UNL     1       2.462   0.920  -0.017  0.00  0.00    +0.121 C 
BRANCH  17  27
ATOM     18  C   UNL     1       5.224  -0.071  -4.578  0.00  0.00    +0.002 A 
ATOM     19  C   UNL     1       4.320   0.893  -4.986  0.00  0.00    +0.001 A 
ATOM     20  C   UNL     1       3.814   1.796  -4.069  0.00  0.00    +0.016 A 
ATOM     21  C   UNL     1       4.214   1.731  -2.745  0.00  0.00    +0.030 A 
ATOM     22  C   UNL     1       5.120   0.759  -2.323  0.00  0.00    +0.047 A 
ATOM     23  C   UNL     1       5.625  -0.140  -3.258  0.00  0.00    +0.024 A 
ATOM     24  N   UNL     1       5.523   0.655  -0.995  0.00  0.00    -0.284 N 
ATOM     25  C   UNL     1       4.927   1.200   0.060  0.00  0.00    +0.231 C 
ATOM     26  O   UNL     1       5.468   1.106   1.141  0.00  0.00    -0.274 OA
ATOM     27  C   UNL     1       3.611   1.930  -0.022  0.00  0.00    +0.146 C 
ATOM     28  S   UNL     1       3.578   2.886  -1.569  0.00  0.00    -0.110 S 
ATOM     29  H   UNL     1       6.321   0.131  -0.822  0.00  0.00    +0.155 HD
ENDBRANCH  17  27
ENDBRANCH   1  17
TORSDOF 5
