REMARK  Name = ZINC40222094
REMARK  4 active torsions:
REMARK  status: ('A' for Active; 'I' for Inactive)
REMARK    1  A    between atoms: C_1  and  C_2
REMARK    2  A    between atoms: C_5  and  C_7
REMARK    3  A    between atoms: N_9  and  C_10
REMARK    4  A    between atoms: C_10  and  C_18
REMARK                            x       y       z     vdW  Elec       q    Type
REMARK                         _______ _______ _______ _____ _____    ______ ____
ROOT
ATOM      1  C   UNL     1       2.561   0.451   4.336  0.00  0.00    +0.121 C 
ATOM      2  C   UNL     1       3.612   1.303   3.632  0.00  0.00    +0.041 C 
ATOM      3  C   UNL     1       4.382   2.237   4.578  0.00  0.00    +0.003 C 
ATOM      4  C   UNL     1       5.412   1.378   5.340  0.00  0.00    +0.000 C 
ATOM      5  C   UNL     1       5.104   1.447   6.854  0.00  0.00    +0.000 C 
ATOM      6  C   UNL     1       3.583   1.353   7.068  0.00  0.00    +0.000 C 
ATOM      7  C   UNL     1       3.088  -0.065   6.800  0.00  0.00    +0.003 C 
ATOM      8  C   UNL     1       3.178  -0.491   5.352  0.00  0.00    +0.041 C 
ENDROOT
BRANCH   1  11
ATOM      9  C   UNL     1       1.320   0.160   2.233  0.00  0.00    +0.218 C 
ATOM     10  O   UNL     1       1.250   1.367   2.148  0.00  0.00    -0.275 OA
ATOM     11  N   UNL     1       1.950  -0.407   3.281  0.00  0.00    -0.297 N 
ATOM     12  H   UNL     1       2.007  -1.373   3.348  0.00  0.00    +0.150 HD
BRANCH   9  16
ATOM     13  C   UNL     1      -0.019   1.526   0.010  0.00  0.00    +0.008 C 
ATOM     14  C   UNL     1       0.002  -0.004   0.002  0.00  0.00    -0.002 C 
ATOM     15  C   UNL     1       1.351  -0.691  -0.221  0.00  0.00    +0.017 C 
ATOM     16  C   UNL     1       0.703  -0.708   1.166  0.00  0.00    +0.078 C 
ENDBRANCH   9  16
ENDBRANCH   1  11
BRANCH   1  17
ATOM     17  C   UNL     1       1.468   1.262   4.875  0.00  0.00    +0.088 C 
ATOM     18  N   UNL     1       0.620   1.892   5.294  0.00  0.00    -0.194 NA
ENDBRANCH   1  17
TORSDOF 3
