REMARK  Name = ZINC39665770
REMARK  11 active torsions:
REMARK  status: ('A' for Active; 'I' for Inactive)
REMARK    1  A    between atoms: C_1  and  C_2
REMARK    2  A    between atoms: C_5  and  C_9
REMARK    3  A    between atoms: C_7  and  C_8
REMARK    4  A    between atoms: C_13  and  C_22
REMARK    5  A    between atoms: N_24  and  C_25
REMARK    6  A    between atoms: C_25  and  C_26
REMARK    7  A    between atoms: C_26  and  C_28
REMARK    8  A    between atoms: C_26  and  O_29
REMARK    9  A    between atoms: O_29  and  C_30
REMARK   10  A    between atoms: C_33  and  O_36
REMARK   11  A    between atoms: O_36  and  C_37
REMARK                            x       y       z     vdW  Elec       q    Type
REMARK                         _______ _______ _______ _____ _____    ______ ____
ROOT
ATOM      1  C   UNL     1       0.017  -4.286  -0.016  0.00  0.00    +0.247 C 
ATOM      2  O   UNL     1       0.134  -4.903   1.025  0.00  0.00    -0.270 OA
ATOM      3  N   UNL     1      -0.075  -4.950  -1.185  0.00  0.00    -0.296 N 
ATOM      4  C   UNL     1      -0.093  -4.381  -2.554  0.00  0.00    +0.121 C 
ATOM      5  C   UNL     1       0.757  -5.360  -3.394  0.00  0.00    +0.100 C 
ATOM      6  C   UNL     1       0.693  -6.693  -2.629  0.00  0.00    -0.004 C 
ATOM      7  C   UNL     1      -0.176  -6.415  -1.393  0.00  0.00    +0.115 C 
ATOM      8  C   UNL     1       0.050  -7.770  -3.497  0.00  0.00    -0.010 C 
ATOM      9  C   UNL     1       0.051  -9.099  -2.736  0.00  0.00    -0.082 C 
ATOM     10  N   UNL     1       1.430  -9.472  -2.399  0.00  0.00    +0.379 N 
ATOM     11  C   UNL     1       2.010  -8.477  -1.489  0.00  0.00    -0.082 C 
ATOM     12  C   UNL     1       2.092  -7.122  -2.197  0.00  0.00    -0.010 C 
ATOM     13  H   UNL     1       1.433 -10.377  -1.952  0.00  0.00    -0.086 HD
ATOM     14  H   UNL     1       1.981  -9.515  -3.243  0.00  0.00    -0.086 HD
ENDROOT
BRANCH   1  19
ATOM     15  C   UNL     1      -0.145   1.466   0.048  0.00  0.00    +0.044 C 
ATOM     16  C   UNL     1      -0.103  -0.041   0.031  0.00  0.00    -0.047 A 
ATOM     17  C   UNL     1      -0.683  -0.735  -1.016  0.00  0.00    +0.004 A 
ATOM     18  C   UNL     1      -0.648  -2.113  -1.038  0.00  0.00    +0.013 A 
ATOM     19  C   UNL     1      -0.025  -2.809   0.000  0.00  0.00    +0.037 A 
ATOM     20  C   UNL     1       0.559  -2.103   1.053  0.00  0.00    +0.016 A 
ATOM     21  C   UNL     1       0.521  -0.724   1.060  0.00  0.00    -0.047 A 
ATOM     22  C   UNL     1       1.155   0.041   2.194  0.00  0.00    +0.044 C 
ENDBRANCH   1  19
BRANCH   5  23
ATOM     23  C   UNL     1       0.169  -5.516  -4.773  0.00  0.00    +0.218 C 
ATOM     24  O   UNL     1      -1.013  -5.312  -4.955  0.00  0.00    -0.275 OA
ATOM     25  N   UNL     1       0.956  -5.882  -5.804  0.00  0.00    -0.312 N 
ATOM     26  H   UNL     1       1.901  -6.045  -5.659  0.00  0.00    +0.149 HD
BRANCH  25  27
ATOM     27  C   UNL     1       0.384  -6.033  -7.144  0.00  0.00    +0.148 C 
BRANCH  27  28
ATOM     28  C   UNL     1       1.482  -6.452  -8.123  0.00  0.00    +0.187 C 
ATOM     29  C   UNL     1       0.913  -6.489  -9.543  0.00  0.00    +0.053 C 
BRANCH  28  30
ATOM     30  O   UNL     1       1.966  -7.749  -7.770  0.00  0.00    -0.488 OA
BRANCH  30  31
ATOM     31  C   UNL     1       3.230  -8.064  -8.161  0.00  0.00    +0.121 A 
ATOM     32  C   UNL     1       3.724  -9.342  -7.944  0.00  0.00    +0.049 A 
ATOM     33  C   UNL     1       5.008  -9.662  -8.341  0.00  0.00    +0.049 A 
ATOM     34  C   UNL     1       5.802  -8.706  -8.956  0.00  0.00    +0.120 A 
ATOM     35  C   UNL     1       5.308  -7.429  -9.173  0.00  0.00    +0.049 A 
ATOM     36  C   UNL     1       4.022  -7.110  -8.780  0.00  0.00    +0.049 A 
BRANCH  34  37
ATOM     37  O   UNL     1       7.066  -9.021  -9.346  0.00  0.00    -0.495 OA
ATOM     38  C   UNL     1       7.829  -7.988  -9.973  0.00  0.00    +0.277 C 
ENDBRANCH  34  37
ENDBRANCH  30  31
ENDBRANCH  28  30
ENDBRANCH  27  28
ENDBRANCH  25  27
ENDBRANCH   5  23
TORSDOF 7
