REMARK  Name = ZINC33069459
REMARK  8 active torsions:
REMARK  status: ('A' for Active; 'I' for Inactive)
REMARK    1  A    between atoms: C_1  and  C_2
REMARK    2  A    between atoms: C_3  and  N_30
REMARK    3  A    between atoms: C_4  and  N_14
REMARK    4  A    between atoms: N_5  and  C_7
REMARK    5  A    between atoms: C_17  and  C_20
REMARK    6  A    between atoms: N_22  and  C_23
REMARK    7  A    between atoms: C_23  and  C_24
REMARK    8  A    between atoms: C_31  and  C_33
REMARK                            x       y       z     vdW  Elec       q    Type
REMARK                         _______ _______ _______ _____ _____    ______ ____
ROOT
ATOM      1  C   UNL     1     -11.324  -0.926  -2.965  0.00  0.00    +0.069 C 
ATOM      2  C   UNL     1      -9.939  -1.366  -3.364  0.00  0.00    +0.083 A 
ATOM      3  C   UNL     1      -8.750  -1.022  -2.707  0.00  0.00    +0.097 A 
ATOM      4  C   UNL     1      -7.718  -1.613  -3.377  0.00  0.00    +0.147 A 
ATOM      5  N   UNL     1      -8.254  -2.312  -4.416  0.00  0.00    -0.216 N 
ATOM      6  N   UNL     1      -9.643  -2.137  -4.380  0.00  0.00    -0.168 NA
ENDROOT
BRANCH   5   7
ATOM      7  C   UNL     1      -7.543  -3.073  -5.355  0.00  0.00    +0.068 A 
ATOM      8  C   UNL     1      -6.307  -2.634  -5.811  0.00  0.00    +0.029 A 
ATOM      9  C   UNL     1      -5.605  -3.388  -6.732  0.00  0.00    +0.022 A 
ATOM     10  C   UNL     1      -6.138  -4.573  -7.207  0.00  0.00    +0.041 A 
ATOM     11  C   UNL     1      -7.372  -5.010  -6.758  0.00  0.00    +0.022 A 
ATOM     12  C   UNL     1      -8.075  -4.263  -5.833  0.00  0.00    +0.029 A 
ATOM     13 CL   UNL     1      -5.257  -5.514  -8.370  0.00  0.00    -0.084 Cl
ENDBRANCH   5   7
BRANCH   4  14
ATOM     14  N   UNL     1      -6.364  -1.522  -3.054  0.00  0.00    -0.314 N 
ATOM     15  C   UNL     1      -5.872  -0.149  -3.229  0.00  0.00    +0.107 C 
ATOM     16  C   UNL     1      -4.358  -0.117  -3.007  0.00  0.00    +0.031 C 
ATOM     17  C   UNL     1      -4.043  -0.616  -1.595  0.00  0.00    +0.078 C 
ATOM     18  C   UNL     1      -4.608  -2.029  -1.422  0.00  0.00    +0.031 C 
ATOM     19  C   UNL     1      -6.115  -2.006  -1.691  0.00  0.00    +0.107 C 
BRANCH  17  20
ATOM     20  C   UNL     1      -2.550  -0.643  -1.391  0.00  0.00    +0.216 C 
ATOM     21  O   UNL     1      -1.810  -0.295  -2.287  0.00  0.00    -0.276 OA
ATOM     22  N   UNL     1      -2.037  -1.054  -0.215  0.00  0.00    -0.313 N 
ATOM     23  H   UNL     1      -2.709  -1.370   0.598  0.00  0.00    +0.149 HD
BRANCH  22  24
ATOM     24  C   UNL     1      -0.586  -1.080  -0.017  0.00  0.00    +0.135 C 
BRANCH  24  25
ATOM     25  C   UNL     1      -0.272  -1.582   1.394  0.00  0.00    +0.135 C 
ATOM     26  C   UNL     1       1.253  -1.606   1.614  0.00  0.00    +0.035 C 
ATOM     27  C   UNL     1       1.474  -0.682   2.836  0.00  0.00    +0.031 C 
ATOM     28  C   UNL     1       0.072  -0.675   3.497  0.00  0.00    +0.160 C 
ATOM     29  O   UNL     1      -0.831  -0.687   2.370  0.00  0.00    -0.375 OA
ENDBRANCH  24  25
ENDBRANCH  22  24
ENDBRANCH  17  20
ENDBRANCH   4  14
BRANCH   3  30
ATOM     30  N   UNL     1      -8.639  -0.207  -1.561  0.00  0.00    -0.282 N 
ATOM     31  C   UNL     1      -9.606  -0.230  -0.622  0.00  0.00    +0.214 C 
ATOM     32  O   UNL     1     -10.520  -1.022  -0.711  0.00  0.00    -0.276 OA
ATOM     33  C   UNL     1      -9.551   0.730   0.539  0.00  0.00    +0.109 C 
ATOM     34  H   UNL     1      -7.763   0.447  -1.433  0.00  0.00    +0.155 HD
ENDBRANCH   3  30
TORSDOF 6
