REMARK  Name = ZINC39598056
REMARK  6 active torsions:
REMARK  status: ('A' for Active; 'I' for Inactive)
REMARK    1  A    between atoms: C_4  and  C_7
REMARK    2  A    between atoms: C_7  and  N_8
REMARK    3  A    between atoms: C_11  and  N_14
REMARK    4  A    between atoms: C_15  and  C_17
REMARK    5  A    between atoms: C_28  and  C_30
REMARK    6  A    between atoms: C_35  and  C_36
REMARK                            x       y       z     vdW  Elec       q    Type
REMARK                         _______ _______ _______ _____ _____    ______ ____
ROOT
ATOM      1  C   UNL     1       6.780  -4.152   6.064  0.00  0.00    +0.100 C 
ATOM      2  C   UNL     1       5.644  -4.223   7.109  0.00  0.00    +0.121 C 
ATOM      3  N   UNL     1       5.597  -5.647   7.516  0.00  0.00    -0.296 N 
ATOM      4  C   UNL     1       7.020  -6.058   7.583  0.00  0.00    +0.115 C 
ATOM      5  C   UNL     1       7.683  -5.356   6.382  0.00  0.00    -0.004 C 
ATOM      6  C   UNL     1       9.085  -4.882   6.754  0.00  0.00    -0.010 C 
ATOM      7  C   UNL     1       9.980  -6.098   7.008  0.00  0.00    -0.082 C 
ATOM      8  N   UNL     1      10.028  -6.933   5.801  0.00  0.00    +0.379 N 
ATOM      9  C   UNL     1       8.691  -7.461   5.504  0.00  0.00    -0.082 C 
ATOM     10  C   UNL     1       7.742  -6.302   5.186  0.00  0.00    -0.010 C 
ATOM     11  C   UNL     1       4.507  -6.399   7.769  0.00  0.00    +0.247 C 
ATOM     12  O   UNL     1       4.635  -7.531   8.192  0.00  0.00    -0.270 OA
ATOM     13  H   UNL     1      10.351  -6.378   5.023  0.00  0.00    -0.086 HD
ATOM     14  H   UNL     1      10.666  -7.700   5.950  0.00  0.00    -0.086 HD
ENDROOT
BRANCH  11  15
ATOM     15  C   UNL     1       3.157  -5.846   7.530  0.00  0.00    +0.049 A 
ATOM     16  C   UNL     1       2.892  -4.502   7.796  0.00  0.00    +0.013 A 
ATOM     17  C   UNL     1       1.630  -3.993   7.571  0.00  0.00    +0.001 A 
ATOM     18  C   UNL     1       0.627  -4.812   7.082  0.00  0.00    +0.001 A 
ATOM     19  C   UNL     1       0.883  -6.145   6.816  0.00  0.00    +0.013 A 
ATOM     20  C   UNL     1       2.143  -6.665   7.032  0.00  0.00    +0.067 A 
BRANCH  20  21
ATOM     21  C   UNL     1       2.421  -8.117   6.736  0.00  0.00    +0.418 C 
ATOM     22  F   UNL     1       1.258  -8.725   6.250  0.00  0.00    -0.166 F 
ATOM     23  F   UNL     1       3.433  -8.211   5.774  0.00  0.00    -0.166 F 
ATOM     24  F   UNL     1       2.830  -8.761   7.908  0.00  0.00    -0.166 F 
ENDBRANCH  20  21
ENDBRANCH  11  15
BRANCH   1  26
ATOM     25  N   UNL     1       6.887  -3.736   3.629  0.00  0.00    -0.312 N 
ATOM     26  C   UNL     1       6.220  -4.270   4.670  0.00  0.00    +0.218 C 
ATOM     27  O   UNL     1       5.168  -4.845   4.486  0.00  0.00    -0.275 OA
ATOM     28  H   UNL     1       7.729  -3.276   3.776  0.00  0.00    +0.149 HD
BRANCH  25  32
ATOM     29  N   UNL     1       6.835  -4.162  -0.564  0.00  0.00    +0.382 N 
ATOM     30  C   UNL     1       6.371  -2.877  -0.026  0.00  0.00    -0.077 C 
ATOM     31  C   UNL     1       6.881  -2.707   1.407  0.00  0.00    +0.003 C 
ATOM     32  C   UNL     1       6.343  -3.850   2.273  0.00  0.00    +0.069 C 
ATOM     33  C   UNL     1       6.770  -5.187   1.661  0.00  0.00    +0.003 C 
ATOM     34  C   UNL     1       6.265  -5.265   0.218  0.00  0.00    -0.077 C 
ATOM     35  H   UNL     1       7.842  -4.201  -0.515  0.00  0.00    -0.081 HD
BRANCH  29  36
ATOM     36  C   UNL     1       6.410  -4.286  -1.965  0.00  0.00    -0.043 C 
BRANCH  36  40
ATOM     37  C   UNL     1       8.342  -1.286  -4.313  0.00  0.00    +0.000 A 
ATOM     38  C   UNL     1       8.939  -2.521  -4.142  0.00  0.00    +0.000 A 
ATOM     39  C   UNL     1       8.314  -3.491  -3.382  0.00  0.00    +0.002 A 
ATOM     40  C   UNL     1       7.092  -3.227  -2.792  0.00  0.00    -0.064 A 
ATOM     41  C   UNL     1       6.495  -1.992  -2.963  0.00  0.00    +0.002 A 
ATOM     42  C   UNL     1       7.119  -1.022  -3.724  0.00  0.00    +0.000 A 
ENDBRANCH  36  40
ENDBRANCH  29  36
ENDBRANCH  25  32
ENDBRANCH   1  26
TORSDOF 6
