REMARK  Name = ZINC15958023
REMARK  6 active torsions:
REMARK  status: ('A' for Active; 'I' for Inactive)
REMARK    1  A    between atoms: C_1  and  C_2
REMARK    2  A    between atoms: C_2  and  O_4
REMARK    3  A    between atoms: O_4  and  C_5
REMARK    4  A    between atoms: C_8  and  N_11
REMARK    5  A    between atoms: C_16  and  C_33
REMARK    6  A    between atoms: C_33  and  C_34
REMARK                            x       y       z     vdW  Elec       q    Type
REMARK                         _______ _______ _______ _____ _____    ______ ____
ROOT
ATOM      1  N   UNL     1      -0.007  -6.446  -1.932  0.00  0.00    -0.210 N 
ATOM      2  C   UNL     1       0.456  -7.073  -0.845  0.00  0.00    +0.232 C 
ATOM      3  O   UNL     1       0.914  -6.528   0.136  0.00  0.00    -0.274 OA
ATOM      4  C   UNL     1       0.318  -8.567  -1.029  0.00  0.00    +0.108 C 
ATOM      5  C   UNL     1      -0.735  -9.108  -0.040  0.00  0.00    +0.072 C 
ATOM      6  N   UNL     1      -2.036  -8.954  -0.744  0.00  0.00    -0.295 NA
ATOM      7  C   UNL     1      -1.729  -9.293  -2.146  0.00  0.00    +0.136 C 
ATOM      8  C   UNL     1      -0.329  -8.697  -2.436  0.00  0.00    +0.123 C 
ATOM      9  C   UNL     1      -0.474  -7.260  -2.885  0.00  0.00    +0.233 C 
ATOM     10  O   UNL     1      -0.940  -6.902  -3.946  0.00  0.00    -0.274 OA
ATOM     11  C   UNL     1      -2.769  -8.753  -3.085  0.00  0.00    +0.003 A 
ATOM     12  C   UNL     1      -3.230  -7.486  -3.363  0.00  0.00    +0.008 A 
ATOM     13  C   UNL     1      -4.226  -7.302  -4.306  0.00  0.00    +0.000 A 
ATOM     14  C   UNL     1      -4.757  -8.394  -4.968  0.00  0.00    +0.002 A 
ATOM     15  C   UNL     1      -4.297  -9.665  -4.694  0.00  0.00    +0.023 A 
ATOM     16  C   UNL     1      -3.295  -9.859  -3.747  0.00  0.00    +0.039 A 
ATOM     17  N   UNL     1      -2.672 -11.028  -3.303  0.00  0.00    -0.283 N 
ATOM     18  C   UNL     1      -1.739 -10.782  -2.364  0.00  0.00    +0.243 C 
ATOM     19  O   UNL     1      -1.043 -11.601  -1.802  0.00  0.00    -0.273 OA
ATOM     20  H   UNL     1      -2.729  -9.581  -0.364  0.00  0.00    +0.124 HD
ATOM     21  H   UNL     1      -2.888 -11.915  -3.634  0.00  0.00    +0.155 HD
ENDROOT
BRANCH   1  25
ATOM     22  C   UNL     1      -0.009  -2.292  -2.311  0.00  0.00    +0.132 A 
ATOM     23  C   UNL     1      -0.819  -2.902  -1.364  0.00  0.00    +0.048 A 
ATOM     24  C   UNL     1      -0.819  -4.277  -1.238  0.00  0.00    +0.027 A 
ATOM     25  C   UNL     1      -0.008  -5.049  -2.060  0.00  0.00    +0.044 A 
ATOM     26  C   UNL     1       0.802  -4.437  -3.007  0.00  0.00    +0.027 A 
ATOM     27  C   UNL     1       0.797  -3.063  -3.135  0.00  0.00    +0.048 A 
BRANCH  22  28
ATOM     28  O   UNL     1      -0.010  -0.938  -2.434  0.00  0.00    -0.426 OA
BRANCH  28  30
ATOM     29  C   UNL     1       0.812   1.271  -1.697  0.00  0.00    +0.136 C 
ATOM     30  C   UNL     1       0.691  -0.223  -1.539  0.00  0.00    +0.309 C 
ATOM     31  O   UNL     1       1.224  -0.777  -0.608  0.00  0.00    -0.251 OA
ENDBRANCH  28  30
ENDBRANCH  22  28
ENDBRANCH   1  25
BRANCH   5  32
ATOM     32  C   UNL     1      -0.467 -10.582   0.270  0.00  0.00    +0.054 C 
BRANCH  32  33
ATOM     33  C   UNL     1       0.394 -10.688   1.502  0.00  0.00    -0.046 A 
ATOM     34  C   UNL     1       1.772 -10.695   1.385  0.00  0.00    +0.004 A 
ATOM     35  C   UNL     1       2.561 -10.792   2.515  0.00  0.00    +0.000 A 
ATOM     36  C   UNL     1       1.974 -10.882   3.763  0.00  0.00    +0.000 A 
ATOM     37  C   UNL     1       0.597 -10.874   3.881  0.00  0.00    +0.000 A 
ATOM     38  C   UNL     1      -0.193 -10.772   2.751  0.00  0.00    +0.004 A 
ENDBRANCH  32  33
ENDBRANCH   5  32
TORSDOF 5
