REMARK  Name = ZINC04476251
REMARK  6 active torsions:
REMARK  status: ('A' for Active; 'I' for Inactive)
REMARK    1  A    between atoms: C_1  and  C_2
REMARK    2  A    between atoms: C_2  and  C_25
REMARK    3  A    between atoms: N_5  and  C_9
REMARK    4  A    between atoms: C_9  and  C_10
REMARK    5  A    between atoms: C_22  and  C_23
REMARK    6  A    between atoms: C_22  and  C_24
REMARK                            x       y       z     vdW  Elec       q    Type
REMARK                         _______ _______ _______ _____ _____    ______ ____
ROOT
ATOM      1  C   UNL     1      -2.834  -1.906   1.607  0.00  0.00    +0.214 C 
ENDROOT
BRANCH   1   2
ATOM      2  C   UNL     1      -2.743  -3.337   1.144  0.00  0.00    +0.239 C 
ATOM      3  O   UNL     1      -1.892  -3.663   0.344  0.00  0.00    -0.273 OA
ATOM      4  N   UNL     1      -3.608  -4.255   1.618  0.00  0.00    -0.254 N 
ATOM      5  C   UNL     1      -4.659  -3.887   2.473  0.00  0.00    +0.059 A 
ATOM      6  C   UNL     1      -4.542  -2.800   3.321  0.00  0.00    +0.025 A 
ATOM      7  C   UNL     1      -5.594  -2.465   4.155  0.00  0.00    +0.002 A 
ATOM      8  C   UNL     1      -6.758  -3.212   4.142  0.00  0.00    +0.002 A 
ATOM      9  C   UNL     1      -6.881  -4.298   3.296  0.00  0.00    +0.025 A 
ATOM     10  C   UNL     1      -5.834  -4.640   2.455  0.00  0.00    +0.055 A 
ATOM     11  N   UNL     1      -5.942  -5.729   1.583  0.00  0.00    -0.282 N 
ATOM     12  C   UNL     1      -4.853  -6.234   0.973  0.00  0.00    +0.241 C 
ATOM     13  O   UNL     1      -4.977  -7.149   0.187  0.00  0.00    -0.273 OA
ATOM     14  C   UNL     1      -3.486  -5.674   1.252  0.00  0.00    +0.113 C 
ATOM     15  C   UNL     1      -2.615  -5.806   0.001  0.00  0.00    +0.042 C 
ATOM     16  C   UNL     1      -2.846  -6.448   2.407  0.00  0.00    +0.042 C 
ATOM     17  H   UNL     1      -6.812  -6.124   1.415  0.00  0.00    +0.155 HD
ENDBRANCH   1   2
BRANCH   1  22
ATOM     18  C   UNL     1      -1.784   1.815  -1.061  0.00  0.00    +0.047 C 
ATOM     19  C   UNL     1      -1.458   0.320  -1.028  0.00  0.00    +0.135 C 
ATOM     20  C   UNL     1      -2.596  -0.461  -0.401  0.00  0.00    +0.251 C 
ATOM     21  O   UNL     1      -3.737  -0.540  -0.802  0.00  0.00    -0.272 OA
ATOM     22  N   UNL     1      -2.075  -1.048   0.694  0.00  0.00    -0.215 N 
ATOM     23  C   UNL     1      -0.779  -0.750   0.845  0.00  0.00    +0.310 C 
ATOM     24  O   UNL     1      -0.093  -1.163   1.759  0.00  0.00    -0.252 OA
ATOM     25  N   UNL     1      -0.321   0.057  -0.129  0.00  0.00    -0.281 N 
ATOM     26  H   UNL     1       0.582   0.399  -0.221  0.00  0.00    +0.152 HD
BRANCH  19  27
ATOM     27  C   UNL     1      -1.164  -0.187  -2.416  0.00  0.00    -0.016 A 
ATOM     28  C   UNL     1      -2.187  -0.684  -3.202  0.00  0.00    +0.006 A 
ATOM     29  C   UNL     1      -1.918  -1.150  -4.475  0.00  0.00    +0.000 A 
ATOM     30  C   UNL     1      -0.625  -1.117  -4.963  0.00  0.00    +0.000 A 
ATOM     31  C   UNL     1       0.398  -0.619  -4.179  0.00  0.00    +0.000 A 
ATOM     32  C   UNL     1       0.128  -0.150  -2.907  0.00  0.00    +0.006 A 
ENDBRANCH  19  27
ENDBRANCH   1  22
TORSDOF 3
