REMARK  Name = ZINC21892442
REMARK  4 active torsions:
REMARK  status: ('A' for Active; 'I' for Inactive)
REMARK    1  A    between atoms: C_1  and  C_2
REMARK    2  A    between atoms: C_2  and  C_3
REMARK    3  A    between atoms: C_2  and  N_4
REMARK    4  A    between atoms: C_20  and  C_22
REMARK                            x       y       z     vdW  Elec       q    Type
REMARK                         _______ _______ _______ _____ _____    ______ ____
ROOT
ATOM      1  N   UNL     1      -3.272   4.843   2.652  0.00  0.00    -0.297 N 
ATOM      2  C   UNL     1      -3.817   3.730   2.123  0.00  0.00    +0.303 C 
ATOM      3  O   UNL     1      -4.560   3.039   2.793  0.00  0.00    -0.253 OA
ATOM      4  N   UNL     1      -3.539   3.382   0.851  0.00  0.00    -0.269 N 
ATOM      5  C   UNL     1      -4.203   2.232   0.210  0.00  0.00    +0.147 C 
ATOM      6  C   UNL     1      -3.241   1.422  -0.613  0.00  0.00    -0.006 A 
ATOM      7  C   UNL     1      -2.772   0.205  -0.162  0.00  0.00    +0.007 A 
ATOM      8  C   UNL     1      -1.925  -0.546  -0.956  0.00  0.00    +0.000 A 
ATOM      9  C   UNL     1      -1.548  -0.085  -2.205  0.00  0.00    +0.002 A 
ATOM     10  C   UNL     1      -1.999   1.142  -2.655  0.00  0.00    +0.026 A 
ATOM     11  C   UNL     1      -2.827   1.905  -1.850  0.00  0.00    +0.051 A 
ATOM     12  N   UNL     1      -3.200   3.206  -2.221  0.00  0.00    -0.318 N 
ATOM     13  C   UNL     1      -3.704   3.651  -3.400  0.00  0.00    +0.091 A 
ATOM     14  C   UNL     1      -3.907   4.983  -3.292  0.00  0.00    +0.020 A 
ATOM     15  C   UNL     1      -3.510   5.369  -1.993  0.00  0.00    +0.025 A 
ATOM     16  C   UNL     1      -3.084   4.266  -1.359  0.00  0.00    +0.049 A 
ATOM     17  C   UNL     1      -2.559   4.139   0.048  0.00  0.00    +0.155 C 
ATOM     18  H   UNL     1      -2.668   5.512   2.022  0.00  0.00    +0.150 HD
ENDROOT
BRANCH  17  19
ATOM     19  C   UNL     1      -1.243   3.405   0.032  0.00  0.00    -0.016 A 
ATOM     20  C   UNL     1      -0.902   2.576   1.085  0.00  0.00    +0.044 A 
ATOM     21  C   UNL     1       0.307   1.901   1.072  0.00  0.00    +0.126 A 
ATOM     22  C   UNL     1       1.174   2.056   0.004  0.00  0.00    +0.076 A 
ATOM     23  C   UNL     1       0.832   2.886  -1.049  0.00  0.00    +0.126 A 
ATOM     24  C   UNL     1      -0.375   3.564  -1.032  0.00  0.00    +0.044 A 
ATOM     25  F   UNL     1       1.677   3.038  -2.092  0.00  0.00    -0.205 F 
ATOM     26  F   UNL     1       0.639   1.092   2.101  0.00  0.00    -0.205 F 
ENDBRANCH  17  19
BRANCH   1  28
ATOM     27  C   UNL     1      -2.447   4.427   4.916  0.00  0.00    +0.027 C 
ATOM     28  C   UNL     1      -3.485   5.162   4.066  0.00  0.00    +0.068 C 
ATOM     29  C   UNL     1      -3.340   6.671   4.276  0.00  0.00    +0.027 C 
ENDBRANCH   1  28
TORSDOF 2
