REMARK  Name = ZINC09900398
REMARK  6 active torsions:
REMARK  status: ('A' for Active; 'I' for Inactive)
REMARK    1  A    between atoms: C_1  and  C_2
REMARK    2  A    between atoms: C_2  and  C_3
REMARK    3  A    between atoms: C_2  and  C_4
REMARK    4  A    between atoms: C_4  and  C_6
REMARK    5  A    between atoms: C_4  and  N_22
REMARK    6  A    between atoms: C_23  and  C_25
REMARK                            x       y       z     vdW  Elec       q    Type
REMARK                         _______ _______ _______ _____ _____    ______ ____
ROOT
ATOM      1  C   UNL     1      -0.581   4.069  -1.923  0.00  0.00    +0.236 C 
ATOM      2  O   UNL     1      -1.304   5.018  -2.140  0.00  0.00    -0.274 OA
ATOM      3  N   UNL     1      -0.698   3.382  -0.770  0.00  0.00    -0.295 N 
ATOM      4  C   UNL     1       0.087   2.160  -0.535  0.00  0.00    +0.114 C 
ATOM      5  C   UNL     1       1.047   2.400   0.636  0.00  0.00    +0.072 C 
ATOM      6  C   UNL     1       0.298   3.076   1.760  0.00  0.00    +0.023 A 
ATOM      7  C   UNL     1      -0.885   3.712   1.604  0.00  0.00    -0.002 A 
ATOM      8  C   UNL     1      -1.269   4.224   2.902  0.00  0.00    +0.005 A 
ATOM      9  C   UNL     1      -2.371   4.959   3.348  0.00  0.00    +0.010 A 
ATOM     10  C   UNL     1      -2.407   5.283   4.681  0.00  0.00    +0.001 A 
ATOM     11  C   UNL     1      -1.402   4.906   5.557  0.00  0.00    +0.002 A 
ATOM     12  C   UNL     1      -0.297   4.181   5.146  0.00  0.00    +0.026 A 
ATOM     13  C   UNL     1      -0.233   3.838   3.797  0.00  0.00    +0.047 A 
ATOM     14  N   UNL     1       0.692   3.144   3.071  0.00  0.00    -0.358 N 
ATOM     15  H   UNL     1       1.506   2.758   3.430  0.00  0.00    +0.166 HD
ATOM     16  C   UNL     1      -1.617   3.832   0.290  0.00  0.00    +0.145 C 
ENDROOT
BRANCH   1  17
ATOM     17  C   UNL     1       0.450   3.660  -2.943  0.00  0.00    +0.162 C 
BRANCH  17  18
ATOM     18  N   UNL     1       1.010   4.855  -3.579  0.00  0.00    -0.300 N 
ATOM     19  C   UNL     1       2.242   4.814  -4.123  0.00  0.00    +0.245 C 
ATOM     20  O   UNL     1       2.890   3.786  -4.085  0.00  0.00    -0.270 OA
ATOM     21  H   UNL     1       0.493   5.675  -3.610  0.00  0.00    +0.150 HD
BRANCH  19  22
ATOM     22  C   UNL     1       2.807   6.020  -4.765  0.00  0.00    +0.037 A 
ATOM     23  C   UNL     1       2.063   7.201  -4.815  0.00  0.00    +0.014 A 
ATOM     24  C   UNL     1       2.598   8.324  -5.409  0.00  0.00    +0.021 A 
ATOM     25  C   UNL     1       3.865   8.280  -5.967  0.00  0.00    +0.041 A 
ATOM     26  C   UNL     1       4.605   7.109  -5.926  0.00  0.00    +0.021 A 
ATOM     27  C   UNL     1       4.083   5.981  -5.328  0.00  0.00    +0.014 A 
ATOM     28 CL   UNL     1       4.528   9.696  -6.721  0.00  0.00    -0.084 Cl
ENDBRANCH  19  22
ENDBRANCH  17  18
BRANCH  17  30
ATOM     29  C   UNL     1      -0.783   1.524  -3.342  0.00  0.00    +0.009 C 
ATOM     30  C   UNL     1      -0.207   2.776  -4.006  0.00  0.00    +0.012 C 
ATOM     31  C   UNL     1      -1.332   3.554  -4.691  0.00  0.00    +0.009 C 
ENDBRANCH  17  30
ENDBRANCH   1  17
TORSDOF 4
