REMARK  Name = ZINC60370108
REMARK  8 active torsions:
REMARK  status: ('A' for Active; 'I' for Inactive)
REMARK    1  A    between atoms: C_1  and  C_2
REMARK    2  A    between atoms: C_4  and  C_26
REMARK    3  A    between atoms: C_5  and  C_25
REMARK    4  A    between atoms: C_6  and  S_9
REMARK    5  A    between atoms: C_7  and  C_8
REMARK    6  A    between atoms: S_9  and  N_12
REMARK    7  A    between atoms: C_15  and  N_18
REMARK    8  A    between atoms: N_18  and  C_19
REMARK                            x       y       z     vdW  Elec       q    Type
REMARK                         _______ _______ _______ _____ _____    ______ ____
ROOT
ATOM      1  S   UNL     1      -0.069  -3.001   2.691  0.00  0.00    +0.061 S 
ATOM      2  O   UNL     1      -0.533  -2.101   3.688  0.00  0.00    -0.153 OA
ATOM      3  O   UNL     1      -0.726  -4.229   2.407  0.00  0.00    -0.153 OA
ENDROOT
BRANCH   1   9
ATOM      4  C   UNL     1       0.158  -2.791  -2.527  0.00  0.00    +0.044 C 
ATOM      5  C   UNL     1       0.088  -2.058  -1.212  0.00  0.00    -0.045 A 
ATOM      6  C   UNL     1       0.064  -0.676  -1.191  0.00  0.00    +0.007 A 
ATOM      7  C   UNL     1      -0.001  -0.004   0.015  0.00  0.00    -0.045 A 
ATOM      8  C   UNL     1      -0.041  -0.714   1.201  0.00  0.00    -0.021 A 
ATOM      9  C   UNL     1      -0.018  -2.096   1.180  0.00  0.00    +0.112 A 
ATOM     10  C   UNL     1       0.042  -2.768  -0.026  0.00  0.00    -0.021 A 
ATOM     11  C   UNL     1       0.063  -4.275  -0.049  0.00  0.00    +0.046 C 
ATOM     12  C   UNL     1      -0.111   0.018   2.516  0.00  0.00    +0.046 C 
ATOM     13  C   UNL     1      -0.026   1.502   0.038  0.00  0.00    +0.044 C 
ENDBRANCH   1   9
BRANCH   1  14
ATOM     14  N   UNL     1       1.494  -3.381   3.087  0.00  0.00    -0.175 NA
ATOM     15  C   UNL     1       2.214  -4.598   2.672  0.00  0.00    +0.111 C 
ATOM     16  C   UNL     1       3.713  -4.213   2.735  0.00  0.00    +0.040 C 
ATOM     17  C   UNL     1       3.746  -3.297   3.986  0.00  0.00    +0.087 C 
ATOM     18  C   UNL     1       2.394  -2.557   3.907  0.00  0.00    +0.131 C 
BRANCH  17  19
ATOM     19  N   UNL     1       4.861  -2.350   3.906  0.00  0.00    -0.340 N 
ATOM     20  H   UNL     1       4.720  -1.465   3.534  0.00  0.00    +0.146 HD
BRANCH  19  21
ATOM     21  C   UNL     1       6.128  -2.721   4.364  0.00  0.00    +0.027 A 
ATOM     22  C   UNL     1       6.333  -3.990   4.891  0.00  0.00    +0.023 A 
ATOM     23  C   UNL     1       7.586  -4.354   5.342  0.00  0.00    +0.002 A 
ATOM     24  C   UNL     1       8.636  -3.457   5.270  0.00  0.00    +0.000 A 
ATOM     25  C   UNL     1       8.435  -2.193   4.746  0.00  0.00    +0.002 A 
ATOM     26  C   UNL     1       7.186  -1.825   4.288  0.00  0.00    +0.023 A 
ENDBRANCH  19  21
ENDBRANCH  17  19
ENDBRANCH   1  14
TORSDOF 4
