REMARK  Name = ZINC36354596
REMARK  6 active torsions:
REMARK  status: ('A' for Active; 'I' for Inactive)
REMARK    1  A    between atoms: C_1  and  C_2
REMARK    2  A    between atoms: C_15  and  O_33
REMARK    3  A    between atoms: C_17  and  C_19
REMARK    4  A    between atoms: C_22  and  C_24
REMARK    5  A    between atoms: C_27  and  C_30
REMARK    6  A    between atoms: C_30  and  C_32
REMARK                            x       y       z     vdW  Elec       q    Type
REMARK                         _______ _______ _______ _____ _____    ______ ____
ROOT
ATOM      1  C   UNL     1      -0.026   1.524  -0.003  0.00  0.00    +0.068 C 
ATOM      2  C   UNL     1      -0.007   0.017   0.000  0.00  0.00    +0.066 A 
ATOM      3  C   UNL     1       0.002  -0.793  -1.120  0.00  0.00    +0.030 A 
ATOM      4  C   UNL     1       0.023  -2.113  -0.691  0.00  0.00    +0.165 A 
ATOM      5  N   UNL     1       0.020  -2.093   0.662  0.00  0.00    -0.194 N 
ATOM      6  N   UNL     1       0.009  -0.748   1.068  0.00  0.00    -0.168 NA
ATOM      7  C   UNL     1       0.030  -3.209   1.505  0.00  0.00    +0.178 A 
ATOM      8  C   UNL     1       0.532  -3.102   2.802  0.00  0.00    +0.055 A 
ATOM      9  C   UNL     1       0.521  -4.234   3.598  0.00  0.00    +0.077 A 
ATOM     10  C   UNL     1       0.010  -5.411   3.054  0.00  0.00    +0.289 A 
ATOM     11  N   UNL     1      -0.445  -5.419   1.812  0.00  0.00    -0.105 NA
ATOM     12  N   UNL     1      -0.440  -4.368   1.075  0.00  0.00    -0.126 NA
ATOM     13  O   UNL     1      -0.020  -6.546   3.797  0.00  0.00    -0.264 OA
ATOM     14  N   UNL     1       0.050  -3.151  -1.576  0.00  0.00    -0.197 NA
ATOM     15  C   UNL     1       0.341  -2.913  -2.820  0.00  0.00    +0.190 C 
ATOM     16  C   UNL     1       0.717  -1.557  -3.341  0.00  0.00    +0.111 C 
ATOM     17  C   UNL     1      -0.013  -0.440  -2.586  0.00  0.00    +0.099 C 
ENDROOT
BRANCH  17  18
ATOM     18  C   UNL     1      -1.435  -0.337  -3.073  0.00  0.00    +0.114 A 
ATOM     19  C   UNL     1      -2.004   0.761  -3.612  0.00  0.00    +0.046 A 
ATOM     20  C   UNL     1      -3.333   0.424  -3.927  0.00  0.00    +0.050 A 
ATOM     21  C   UNL     1      -3.506  -0.876  -3.559  0.00  0.00    +0.135 A 
ATOM     22  O   UNL     1      -2.344  -1.324  -3.047  0.00  0.00    -0.459 OA
BRANCH  21  23
ATOM     23  C   UNL     1      -4.749  -1.658  -3.701  0.00  0.00    +0.017 A 
ATOM     24  C   UNL     1      -5.886  -1.067  -4.262  0.00  0.00    +0.012 A 
ATOM     25  C   UNL     1      -7.036  -1.789  -4.394  0.00  0.00    +0.012 A 
ATOM     26  C   UNL     1      -7.078  -3.123  -3.966  0.00  0.00    +0.017 A 
ATOM     27  C   UNL     1      -5.938  -3.714  -3.405  0.00  0.00    +0.012 A 
ATOM     28  C   UNL     1      -4.787  -2.991  -3.280  0.00  0.00    +0.012 A 
BRANCH  26  29
ATOM     29  C   UNL     1      -8.315  -3.901  -4.107  0.00  0.00    +0.160 C 
ATOM     30  O   UNL     1      -9.329  -3.363  -4.499  0.00  0.00    -0.292 OA
ATOM     31  C   UNL     1      -8.325  -5.369  -3.764  0.00  0.00    +0.091 C 
ENDBRANCH  26  29
ENDBRANCH  21  23
ENDBRANCH  17  18
BRANCH  15  32
ATOM     32  O   UNL     1       0.305  -3.943  -3.690  0.00  0.00    -0.495 OA
ATOM     33  H   UNL     1       0.057  -4.788  -3.290  0.00  0.00    +0.293 HD
ENDBRANCH  15  32
TORSDOF 4
