REMARK  Name = ZINC39609054
REMARK  7 active torsions:
REMARK  status: ('A' for Active; 'I' for Inactive)
REMARK    1  A    between atoms: C_1  and  C_2
REMARK    2  A    between atoms: C_5  and  C_10
REMARK    3  A    between atoms: C_14  and  C_23
REMARK    4  A    between atoms: N_25  and  C_26
REMARK    5  A    between atoms: C_31  and  O_33
REMARK    6  A    between atoms: O_33  and  C_34
REMARK    7  A    between atoms: C_34  and  C_35
REMARK                            x       y       z     vdW  Elec       q    Type
REMARK                         _______ _______ _______ _____ _____    ______ ____
ROOT
ATOM      1  C   UNL     1       0.143  -4.029  -0.093  0.00  0.00    +0.250 C 
ATOM      2  O   UNL     1       0.172  -4.604   0.978  0.00  0.00    -0.270 OA
ATOM      3  N   UNL     1      -0.014  -4.734  -1.231  0.00  0.00    -0.296 N 
ATOM      4  C   UNL     1       0.033  -4.231  -2.624  0.00  0.00    +0.121 C 
ATOM      5  C   UNL     1       0.779  -5.332  -3.412  0.00  0.00    +0.100 C 
ATOM      6  C   UNL     1       0.572  -6.613  -2.586  0.00  0.00    -0.004 C 
ATOM      7  C   UNL     1      -0.267  -6.188  -1.372  0.00  0.00    +0.115 C 
ATOM      8  C   UNL     1       1.917  -7.165  -2.122  0.00  0.00    -0.010 C 
ATOM      9  C   UNL     1       1.690  -8.469  -1.352  0.00  0.00    -0.082 C 
ATOM     10  N   UNL     1       1.012  -9.440  -2.220  0.00  0.00    +0.379 N 
ATOM     11  C   UNL     1      -0.319  -8.941  -2.586  0.00  0.00    -0.082 C 
ATOM     12  C   UNL     1      -0.177  -7.657  -3.408  0.00  0.00    -0.010 C 
ATOM     13  H   UNL     1       1.559  -9.581  -3.056  0.00  0.00    -0.086 HD
ATOM     14  H   UNL     1       0.918 -10.318  -1.731  0.00  0.00    -0.086 HD
ENDROOT
BRANCH   1  19
ATOM     15  C   UNL     1       0.672   1.699  -0.308  0.00  0.00    +0.047 C 
ATOM     16  C   UNL     1       0.535   0.199  -0.250  0.00  0.00    -0.012 A 
ATOM     17  C   UNL     1      -0.274  -0.455  -1.164  0.00  0.00    +0.007 A 
ATOM     18  C   UNL     1      -0.405  -1.826  -1.118  0.00  0.00    +0.016 A 
ATOM     19  C   UNL     1       0.280  -2.560  -0.147  0.00  0.00    +0.075 A 
ATOM     20  C   UNL     1       1.097  -1.897   0.773  0.00  0.00    +0.171 A 
ATOM     21  C   UNL     1       1.224  -0.518   0.712  0.00  0.00    +0.162 A 
ATOM     22  F   UNL     1       2.016   0.127   1.596  0.00  0.00    -0.202 F 
ATOM     23  F   UNL     1       1.764  -2.597   1.716  0.00  0.00    -0.202 F 
ENDBRANCH   1  19
BRANCH   5  24
ATOM     24  C   UNL     1       0.182  -5.489  -4.786  0.00  0.00    +0.218 C 
ATOM     25  O   UNL     1      -1.000  -5.284  -4.961  0.00  0.00    -0.275 OA
ATOM     26  N   UNL     1       0.962  -5.858  -5.822  0.00  0.00    -0.310 N 
ATOM     27  H   UNL     1       1.908  -6.022  -5.681  0.00  0.00    +0.149 HD
BRANCH  26  28
ATOM     28  C   UNL     1       0.382  -6.011  -7.158  0.00  0.00    +0.102 C 
ATOM     29  C   UNL     1      -0.175  -7.435  -7.331  0.00  0.00    +0.025 C 
ATOM     30  C   UNL     1       0.599  -8.072  -8.504  0.00  0.00    +0.004 C 
ATOM     31  C   UNL     1       1.103  -6.861  -9.328  0.00  0.00    +0.033 C 
ATOM     32  C   UNL     1       1.475  -5.831  -8.232  0.00  0.00    +0.139 C 
BRANCH  32  33
ATOM     33  O   UNL     1       1.443  -4.503  -8.760  0.00  0.00    -0.370 OA
BRANCH  33  34
ATOM     34  C   UNL     1       2.715  -4.021  -9.199  0.00  0.00    +0.195 C 
BRANCH  34  35
ATOM     35  C   UNL     1       2.564  -2.620  -9.733  0.00  0.00    -0.022 A 
ATOM     36  C   UNL     1       2.278  -2.418 -11.070  0.00  0.00    +0.006 A 
ATOM     37  C   UNL     1       2.140  -1.133 -11.561  0.00  0.00    +0.000 A 
ATOM     38  C   UNL     1       2.286  -0.050 -10.714  0.00  0.00    +0.000 A 
ATOM     39  C   UNL     1       2.571  -0.253  -9.376  0.00  0.00    +0.000 A 
ATOM     40  C   UNL     1       2.705  -1.538  -8.885  0.00  0.00    +0.006 A 
ENDBRANCH  34  35
ENDBRANCH  33  34
ENDBRANCH  32  33
ENDBRANCH  26  28
ENDBRANCH   5  24
TORSDOF 6
