REMARK  Name = ZINC13317207
REMARK  5 active torsions:
REMARK  status: ('A' for Active; 'I' for Inactive)
REMARK    1  A    between atoms: C_3  and  C_25
REMARK    2  A    between atoms: C_6  and  C_7
REMARK    3  A    between atoms: C_7  and  N_8
REMARK    4  A    between atoms: C_9  and  C_11
REMARK    5  A    between atoms: C_12  and  C_13
REMARK                            x       y       z     vdW  Elec       q    Type
REMARK                         _______ _______ _______ _____ _____    ______ ____
ROOT
ATOM      1  N   UNL     1      -1.242  -6.327   3.390  0.00  0.00    -0.308 N 
ATOM      2  C   UNL     1      -1.265  -4.979   3.412  0.00  0.00    +0.237 C 
ATOM      3  O   UNL     1      -1.656  -4.393   4.404  0.00  0.00    -0.271 OA
ATOM      4  H   UNL     1      -0.931  -6.794   2.599  0.00  0.00    +0.149 HD
ENDROOT
BRANCH   2   5
ATOM      5  C   UNL     1      -0.821  -4.221   2.242  0.00  0.00    +0.068 C 
ATOM      6  C   UNL     1      -0.844  -2.872   2.264  0.00  0.00    +0.013 C 
BRANCH   6   7
ATOM      7  C   UNL     1      -0.397  -2.110   1.089  0.00  0.00    -0.020 A 
ATOM      8  C   UNL     1      -0.419  -0.710   1.110  0.00  0.00    +0.057 A 
ATOM      9  C   UNL     1       0.002  -0.004   0.002  0.00  0.00    +0.164 A 
ATOM     10  C   UNL     1       0.448  -0.678  -1.130  0.00  0.00    +0.180 A 
ATOM     11  C   UNL     1       0.472  -2.067  -1.155  0.00  0.00    +0.087 A 
ATOM     12  C   UNL     1       0.053  -2.782  -0.053  0.00  0.00    +0.031 A 
ATOM     13 CL   UNL     1       1.030  -2.900  -2.572  0.00  0.00    -0.080 Cl
ATOM     14  O   UNL     1       0.862   0.033  -2.217  0.00  0.00    -0.487 OA
ATOM     15  C   UNL     1       2.070   0.777  -2.055  0.00  0.00    +0.232 C 
ATOM     16  C   UNL     1       1.790   2.130  -1.419  0.00  0.00    +0.082 C 
ATOM     17  C   UNL     1       1.260   2.003   0.001  0.00  0.00    +0.232 C 
ATOM     18  O   UNL     1      -0.016   1.361   0.009  0.00  0.00    -0.488 OA
ENDBRANCH   6   7
ENDBRANCH   2   5
BRANCH   1  19
ATOM     19  C   UNL     1      -1.688  -7.086   4.561  0.00  0.00    +0.139 C 
BRANCH  19  25
ATOM     20  C   UNL     1      -2.627  -9.249   3.724  0.00  0.00    +0.006 A 
ATOM     21  C   UNL     1      -2.518 -10.598   3.460  0.00  0.00    +0.015 A 
ATOM     22  C   UNL     1      -1.335 -11.273   3.765  0.00  0.00    +0.063 A 
ATOM     23  C   UNL     1      -0.267 -10.574   4.331  0.00  0.00    +0.015 A 
ATOM     24  C   UNL     1      -0.387  -9.223   4.585  0.00  0.00    +0.006 A 
ATOM     25  C   UNL     1      -1.563  -8.561   4.280  0.00  0.00    -0.030 A 
BRANCH  22  26
ATOM     26  C   UNL     1      -1.212 -12.719   3.490  0.00  0.00    +0.387 C 
ATOM     27  O   UNL     1      -0.181 -13.303   3.756  0.00  0.00    -0.241 OA
ATOM     28  O   UNL     1      -2.244 -13.390   2.943  0.00  0.00    -0.241 OA
ENDBRANCH  22  26
ENDBRANCH  19  25
ENDBRANCH   1  19
TORSDOF 5
