REMARK  Name = ZINC49162869
REMARK  4 active torsions:
REMARK  status: ('A' for Active; 'I' for Inactive)
REMARK    1  A    between atoms: C_3  and  C_8
REMARK    2  A    between atoms: N_10  and  N_11
REMARK    3  A    between atoms: N_14  and  C_15
REMARK    4  A    between atoms: C_15  and  C_16
REMARK                            x       y       z     vdW  Elec       q    Type
REMARK                         _______ _______ _______ _____ _____    ______ ____
ROOT
ATOM      1  N   UNL     1       6.037   2.215  -0.044  0.00  0.00    -0.218 N 
ATOM      2  C   UNL     1       7.212   1.555  -0.059  0.00  0.00    +0.316 C 
ATOM      3  O   UNL     1       8.257   2.175  -0.066  0.00  0.00    -0.251 OA
ATOM      4  N   UNL     1       7.227   0.207  -0.066  0.00  0.00    -0.291 N 
ATOM      5  H   UNL     1       6.026   3.185  -0.040  0.00  0.00    +0.174 HD
ATOM      6  H   UNL     1       6.393  -0.287  -0.060  0.00  0.00    +0.151 HD
ENDROOT
BRANCH   1   9
ATOM      7  C   UNL     1       3.657   2.161  -0.022  0.00  0.00    +0.260 C 
ATOM      8  O   UNL     1       3.643   3.377  -0.015  0.00  0.00    -0.269 OA
ATOM      9  N   UNL     1       4.832   1.501  -0.036  0.00  0.00    -0.229 N 
ATOM     10  H   UNL     1       4.843   0.531  -0.041  0.00  0.00    +0.173 HD
BRANCH   7  13
ATOM     11  C   UNL     1      -0.017   1.379   0.010  0.00  0.00    +0.002 A 
ATOM     12  C   UNL     1       1.167   2.088   0.002  0.00  0.00    +0.013 A 
ATOM     13  C   UNL     1       2.385   1.407  -0.013  0.00  0.00    +0.039 A 
ATOM     14  C   UNL     1       2.397   0.012  -0.021  0.00  0.00    +0.027 A 
ATOM     15  C   UNL     1       1.207  -0.686  -0.013  0.00  0.00    +0.014 A 
ATOM     16  C   UNL     1       0.002  -0.004   0.002  0.00  0.00    +0.014 A 
ATOM     17  I   UNL     1       1.222  -2.781  -0.025  0.00  0.00    -0.044 I 
ENDBRANCH   7  13
ENDBRANCH   1   9
BRANCH   4  18
ATOM     18  C   UNL     1       8.504  -0.511  -0.082  0.00  0.00    +0.180 C 
BRANCH  18  19
ATOM     19  C   UNL     1       8.245  -1.996  -0.087  0.00  0.00    +0.122 A 
ATOM     20  C   UNL     1       8.105  -2.766  -1.181  0.00  0.00    +0.046 A 
ATOM     21  C   UNL     1       7.878  -4.085  -0.726  0.00  0.00    +0.041 A 
ATOM     22  C   UNL     1       7.893  -4.042   0.618  0.00  0.00    +0.195 A 
ATOM     23  O   UNL     1       8.122  -2.775   1.000  0.00  0.00    -0.466 OA
ENDBRANCH  18  19
ENDBRANCH   4  18
TORSDOF 4
