REMARK  Name = ZINC19357457
REMARK  5 active torsions:
REMARK  status: ('A' for Active; 'I' for Inactive)
REMARK    1  A    between atoms: C_1  and  C_2
REMARK    2  A    between atoms: C_2  and  C_3
REMARK    3  A    between atoms: C_3  and  O_4
REMARK    4  A    between atoms: O_4  and  C_5
REMARK    5  A    between atoms: C_8  and  C_11
REMARK                            x       y       z     vdW  Elec       q    Type
REMARK                         _______ _______ _______ _____ _____    ______ ____
ROOT
ATOM      1  C   UNL     1      -0.018   1.463   0.010  0.00  0.00    +0.217 C 
ATOM      2  N   UNL     1       1.389   1.905  -0.001  0.00  0.00    -0.337 N 
ATOM      3  C   UNL     1       2.321   1.204  -0.719  0.00  0.00    +0.159 C 
ATOM      4  N   UNL     1       2.199  -0.095  -0.927  0.00  0.00    -0.259 N 
ATOM      5  C   UNL     1       1.085  -0.718  -0.474  0.00  0.00    +0.205 A 
ATOM      6  N   UNL     1       0.002  -0.004   0.002  0.00  0.00    -0.286 N 
ATOM      7  C   UNL     1      -0.949  -0.909   0.413  0.00  0.00    +0.076 A 
ATOM      8  C   UNL     1      -2.212  -0.798   0.978  0.00  0.00    +0.077 A 
ATOM      9  C   UNL     1      -2.933  -1.937   1.281  0.00  0.00    +0.164 A 
ATOM     10  C   UNL     1      -2.402  -3.198   1.022  0.00  0.00    +0.164 A 
ATOM     11  C   UNL     1      -1.148  -3.326   0.463  0.00  0.00    +0.079 A 
ATOM     12  C   UNL     1      -0.407  -2.182   0.153  0.00  0.00    +0.095 A 
ATOM     13  N   UNL     1       0.829  -1.998  -0.387  0.00  0.00    -0.214 NA
ATOM     14  O   UNL     1      -3.132  -4.311   1.327  0.00  0.00    -0.488 OA
ATOM     15  C   UNL     1      -3.332  -4.566   2.718  0.00  0.00    +0.232 C 
ATOM     16  C   UNL     1      -4.523  -3.781   3.244  0.00  0.00    +0.082 C 
ATOM     17  C   UNL     1      -4.296  -2.278   3.189  0.00  0.00    +0.232 C 
ATOM     18  O   UNL     1      -4.177  -1.832   1.837  0.00  0.00    -0.488 OA
ATOM     19  N   UNL     1       3.403   1.865  -1.234  0.00  0.00    -0.332 N 
ATOM     20  H   UNL     1       4.159   1.315  -1.813  0.00  0.00    +0.145 HD
ATOM     21  H   UNL     1       2.991  -0.644  -1.457  0.00  0.00    +0.158 HD
ATOM     22  H   UNL     1       3.517   2.947  -1.069  0.00  0.00    +0.145 HD
ATOM     23  H   UNL     1       1.689   2.797   0.568  0.00  0.00    +0.164 HD
ENDROOT
BRANCH   1  27
ATOM     24  C   UNL     1      -2.035   2.918  -3.465  0.00  0.00    +0.121 A 
ATOM     25  C   UNL     1      -2.700   2.860  -2.249  0.00  0.00    +0.046 A 
ATOM     26  C   UNL     1      -2.046   2.389  -1.127  0.00  0.00    +0.011 A 
ATOM     27  C   UNL     1      -0.729   1.976  -1.216  0.00  0.00    -0.004 A 
ATOM     28  C   UNL     1      -0.062   2.038  -2.425  0.00  0.00    +0.011 A 
ATOM     29  C   UNL     1      -0.714   2.502  -3.551  0.00  0.00    +0.046 A 
BRANCH  24  30
ATOM     30  O   UNL     1      -2.676   3.381  -4.570  0.00  0.00    -0.492 OA
BRANCH  30  31
ATOM     31  C   UNL     1      -1.929   3.412  -5.788  0.00  0.00    +0.229 C 
BRANCH  31  33
ATOM     32  C   UNL     1      -2.011   3.993  -8.217  0.00  0.00    +0.007 C 
ATOM     33  C   UNL     1      -2.811   3.959  -6.913  0.00  0.00    +0.038 C 
ENDBRANCH  31  33
ENDBRANCH  30  31
ENDBRANCH  24  30
ENDBRANCH   1  27
TORSDOF 4
