REMARK  Name = ZINC09605679
REMARK  6 active torsions:
REMARK  status: ('A' for Active; 'I' for Inactive)
REMARK    1  A    between atoms: C_1  and  C_2
REMARK    2  A    between atoms: C_3  and  C_13
REMARK    3  A    between atoms: N_5  and  C_7
REMARK    4  A    between atoms: N_15  and  C_16
REMARK    5  A    between atoms: C_16  and  C_17
REMARK    6  A    between atoms: C_17  and  N_59
REMARK                            x       y       z     vdW  Elec       q    Type
REMARK                         _______ _______ _______ _____ _____    ______ ____
ROOT
ATOM      1  C   UNL     1       0.903   2.163   0.555  0.00  0.00    +0.266 C 
ATOM      2  O   UNL     1       0.673   3.333   0.788  0.00  0.00    -0.268 OA
ATOM      3  N   UNL     1      -0.104   1.332   0.219  0.00  0.00    -0.311 N 
ATOM      4  H   UNL     1       0.080   0.398   0.033  0.00  0.00    +0.149 HD
ENDROOT
BRANCH   1   7
ATOM      5  C   UNL     1       3.474   3.870   1.305  0.00  0.00    +0.070 C 
ATOM      6  C   UNL     1       3.428   2.401   0.971  0.00  0.00    +0.093 A 
ATOM      7  C   UNL     1       2.287   1.650   0.639  0.00  0.00    +0.170 A 
ATOM      8  N   UNL     1       2.670   0.407   0.411  0.00  0.00    -0.142 NA
ATOM      9  N   UNL     1       3.943   0.316   0.575  0.00  0.00    -0.149 N 
ATOM     10  N   UNL     1       4.446   1.573   0.936  0.00  0.00    -0.152 NA
BRANCH   9  11
ATOM     11  C   UNL     1       4.703  -0.852   0.420  0.00  0.00    +0.086 A 
ATOM     12  C   UNL     1       4.084  -2.043   0.064  0.00  0.00    +0.029 A 
ATOM     13  C   UNL     1       4.836  -3.190  -0.094  0.00  0.00    +0.002 A 
ATOM     14  C   UNL     1       6.203  -3.157   0.114  0.00  0.00    +0.000 A 
ATOM     15  C   UNL     1       6.822  -1.973   0.473  0.00  0.00    +0.002 A 
ATOM     16  C   UNL     1       6.076  -0.821   0.627  0.00  0.00    +0.029 A 
ENDBRANCH   9  11
ENDBRANCH   1   7
BRANCH   3  17
ATOM     17  C   UNL     1      -1.474   1.842   0.130  0.00  0.00    +0.092 C 
BRANCH  17  18
ATOM     18  C   UNL     1      -2.437   0.676  -0.108  0.00  0.00    -0.050 C 
ATOM     19  C   UNL     1      -1.966  -0.135  -1.317  0.00  0.00    -0.010 C 
ATOM     20  C   UNL     1      -1.937   0.763  -2.555  0.00  0.00    -0.001 C 
ATOM     21  C   UNL     1      -3.341   1.308  -2.823  0.00  0.00    -0.000 C 
ATOM     22  C   UNL     1      -3.812   2.120  -1.614  0.00  0.00    -0.001 C 
ATOM     23  C   UNL     1      -3.841   1.222  -0.376  0.00  0.00    -0.010 C 
BRANCH  18  29
ATOM     24  C   UNL     1      -2.879   0.570   2.269  0.00  0.00    -0.078 C 
ATOM     25  C   UNL     1      -3.037  -0.387   3.454  0.00  0.00    -0.019 C 
ATOM     26  C   UNL     1      -1.704  -1.094   3.714  0.00  0.00    -0.004 C 
ATOM     27  C   UNL     1      -1.272  -1.834   2.445  0.00  0.00    -0.019 C 
ATOM     28  C   UNL     1      -1.165  -0.836   1.290  0.00  0.00    -0.078 C 
ATOM     29  N   UNL     1      -2.485  -0.207   1.075  0.00  0.00    +0.384 N 
ATOM     30  H   UNL     1      -3.182  -0.944   0.912  0.00  0.00    -0.081 HD
ENDBRANCH  18  29
ENDBRANCH  17  18
ENDBRANCH   3  17
TORSDOF 5
