REMARK  Name = ZINC09700029
REMARK  4 active torsions:
REMARK  status: ('A' for Active; 'I' for Inactive)
REMARK    1  A    between atoms: C_11  and  C_13
REMARK    2  A    between atoms: C_13  and  C_14
REMARK    3  A    between atoms: C_20  and  C_22
REMARK    4  A    between atoms: N_27  and  C_29
REMARK                            x       y       z     vdW  Elec       q    Type
REMARK                         _______ _______ _______ _____ _____    ______ ____
ROOT
ATOM      1  C   UNL     1       4.598   9.358   0.036  0.00  0.00    +0.059 A 
ATOM      2  C   UNL     1       5.192  10.119  -0.916  0.00  0.00    +0.072 A 
ATOM      3  S   UNL     1       6.906   9.978  -0.432  0.00  0.00    -0.060 S 
ATOM      4  C   UNL     1       6.668   8.944   0.943  0.00  0.00    +0.165 A 
ATOM      5  N   UNL     1       5.359   8.784   0.947  0.00  0.00    -0.229 NA
ATOM      6  N   UNL     1       7.615   8.420   1.816  0.00  0.00    -0.264 N 
ATOM      7  C   UNL     1       8.921   8.704   1.643  0.00  0.00    +0.224 C 
ATOM      8  O   UNL     1       9.271   9.416   0.726  0.00  0.00    -0.275 OA
ATOM      9  H   UNL     1       7.335   7.850   2.550  0.00  0.00    +0.157 HD
ENDROOT
BRANCH   7  10
ATOM     10  C   UNL     1       9.947   8.135   2.589  0.00  0.00    +0.102 C 
ATOM     11  C   UNL     1      10.054   6.601   2.433  0.00  0.00    +0.110 C 
ATOM     12  C   UNL     1      11.176   6.406   1.438  0.00  0.00    +0.221 C 
ATOM     13  O   UNL     1      11.396   5.379   0.831  0.00  0.00    -0.275 OA
ATOM     14  N   UNL     1      11.893   7.537   1.323  0.00  0.00    -0.271 N 
ATOM     15  C   UNL     1      11.371   8.591   2.200  0.00  0.00    +0.127 C 
BRANCH  14  16
ATOM     16  C   UNL     1      12.998   7.690   0.475  0.00  0.00    +0.036 A 
ATOM     17  C   UNL     1      13.493   6.598  -0.225  0.00  0.00    +0.026 A 
ATOM     18  C   UNL     1      14.579   6.752  -1.064  0.00  0.00    +0.040 A 
ATOM     19  C   UNL     1      15.181   7.992  -1.200  0.00  0.00    +0.124 A 
ATOM     20  C   UNL     1      14.691   9.081  -0.499  0.00  0.00    +0.040 A 
ATOM     21  C   UNL     1      13.602   8.932   0.337  0.00  0.00    +0.026 A 
ATOM     22  F   UNL     1      16.246   8.139  -2.017  0.00  0.00    -0.205 F 
ENDBRANCH  14  16
ENDBRANCH   7  10
BRANCH   1  23
ATOM     23  C   UNL     1       3.103   9.168   0.050  0.00  0.00    +0.152 C 
BRANCH  23  34
ATOM     24  C   UNL     1      -1.265   1.874  -0.022  0.00  0.00    +0.002 A 
ATOM     25  C   UNL     1      -0.064   1.181  -0.040  0.00  0.00    +0.001 A 
ATOM     26  C   UNL     1       1.126   1.886  -0.042  0.00  0.00    +0.017 A 
ATOM     27  C   UNL     1       1.099   3.258  -0.020  0.00  0.00    +0.041 A 
ATOM     28  C   UNL     1      -0.105   3.998   0.004  0.00  0.00    +0.080 A 
ATOM     29  C   UNL     1      -1.301   3.244   0.007  0.00  0.00    +0.029 A 
ATOM     30  N   UNL     1       0.034   5.341   0.024  0.00  0.00    -0.225 NA
ATOM     31  C   UNL     1       1.207   5.930   0.020  0.00  0.00    +0.165 A 
ATOM     32  S   UNL     1       2.330   4.540  -0.014  0.00  0.00    -0.052 S 
ATOM     33  N   UNL     1       1.501   7.283   0.038  0.00  0.00    -0.264 N 
ATOM     34  C   UNL     1       2.784   7.695   0.030  0.00  0.00    +0.224 C 
ATOM     35  O   UNL     1       3.682   6.880   0.008  0.00  0.00    -0.275 OA
ATOM     36  H   UNL     1       0.782   7.935   0.056  0.00  0.00    +0.157 HD
ENDBRANCH  23  34
ENDBRANCH   1  23
TORSDOF 4
