REMARK  Name = ZINC04786332
REMARK  9 active torsions:
REMARK  status: ('A' for Active; 'I' for Inactive)
REMARK    1  A    between atoms: C_1  and  C_2
REMARK    2  A    between atoms: C_2  and  C_3
REMARK    3  A    between atoms: C_5  and  C_29
REMARK    4  A    between atoms: C_6  and  S_17
REMARK    5  A    between atoms: C_13  and  C_15
REMARK    6  A    between atoms: C_13  and  C_16
REMARK    7  A    between atoms: S_17  and  C_18
REMARK    8  A    between atoms: C_18  and  C_20
REMARK    9  A    between atoms: C_18  and  C_26
REMARK                            x       y       z     vdW  Elec       q    Type
REMARK                         _______ _______ _______ _____ _____    ______ ____
ROOT
ATOM      1  C   UNL     1       3.070  -7.048   2.129  0.00  0.00    +0.047 C 
ATOM      2  C   UNL     1       3.293  -5.589   2.402  0.00  0.00    +0.154 C 
ATOM      3  C   UNL     1       2.682  -4.634   1.651  0.00  0.00    +0.093 C 
ATOM      4  N   UNL     1       1.860  -4.997   0.609  0.00  0.00    -0.248 NA
ATOM      5  C   UNL     1       1.944  -6.247   0.059  0.00  0.00    +0.050 C 
ATOM      6  C   UNL     1       2.519  -7.261   0.742  0.00  0.00    +0.021 C 
ATOM      7  C   UNL     1       2.626  -8.544   0.178  0.00  0.00    +0.162 C 
ATOM      8  O   UNL     1       3.145  -9.436   0.820  0.00  0.00    -0.292 OA
ATOM      9  C   UNL     1       2.111  -8.835  -1.205  0.00  0.00    +0.086 C 
ATOM     10  C   UNL     1       2.170  -7.551  -2.040  0.00  0.00    -0.023 C 
ATOM     11  C   UNL     1       1.365  -6.466  -1.316  0.00  0.00    +0.062 C 
ATOM     12  C   UNL     1       3.625  -7.102  -2.190  0.00  0.00    +0.011 C 
ATOM     13  C   UNL     1       1.566  -7.808  -3.422  0.00  0.00    +0.011 C 
ENDROOT
BRANCH   1  15
ATOM     14  C   UNL     1       5.333  -7.358   1.118  0.00  0.00    +0.004 C 
ATOM     15  C   UNL     1       4.405  -7.784   2.257  0.00  0.00    +0.006 C 
ENDBRANCH   1  15
BRANCH   2  16
ATOM     16  C   UNL     1       4.155  -5.196   3.475  0.00  0.00    +0.073 C 
ATOM     17  N   UNL     1       4.840  -4.885   4.327  0.00  0.00    -0.196 NA
ENDBRANCH   2  16
BRANCH   3  18
ATOM     18  S   UNL     1       2.942  -2.929   2.014  0.00  0.00    -0.091 S 
BRANCH  18  19
ATOM     19  C   UNL     1       1.912  -2.174   0.731  0.00  0.00    +0.168 C 
BRANCH  19  20
ATOM     20  C   UNL     1       1.884  -0.680   0.925  0.00  0.00    -0.025 A 
ATOM     21  C   UNL     1       0.674  -0.017   1.011  0.00  0.00    +0.005 A 
ATOM     22  C   UNL     1       0.648   1.354   1.188  0.00  0.00    +0.000 A 
ATOM     23  C   UNL     1       1.832   2.061   1.281  0.00  0.00    +0.000 A 
ATOM     24  C   UNL     1       3.042   1.398   1.195  0.00  0.00    +0.000 A 
ATOM     25  C   UNL     1       3.068   0.028   1.018  0.00  0.00    +0.005 A 
ENDBRANCH  19  20
BRANCH  19  26
ATOM     26  C   UNL     1       2.484  -2.494  -0.625  0.00  0.00    +0.228 C 
ATOM     27  O   UNL     1       1.825  -3.118  -1.430  0.00  0.00    -0.274 OA
ATOM     28  N   UNL     1       3.729  -2.088  -0.945  0.00  0.00    -0.328 N 
ATOM     29  H   UNL     1       4.285  -1.659  -0.276  0.00  0.00    +0.145 HD
ATOM     30  H   UNL     1       4.068  -2.224  -1.843  0.00  0.00    +0.145 HD
ENDBRANCH  19  26
ENDBRANCH  18  19
ENDBRANCH   3  18
TORSDOF 6
