REMARK  Name = ZINC63362190
REMARK  15 active torsions:
REMARK  status: ('A' for Active; 'I' for Inactive)
REMARK    1  A    between atoms: C_1  and  C_2
REMARK    2  A    between atoms: C_2  and  C_3
REMARK    3  A    between atoms: C_3  and  N_4
REMARK    4  A    between atoms: C_5  and  C_7
REMARK    5  A    between atoms: C_7  and  C_9
REMARK    6  A    between atoms: C_7  and  N_19
REMARK    7  A    between atoms: C_9  and  C_10
REMARK    8  A    between atoms: C_20  and  C_22
REMARK    9  A    between atoms: C_28  and  C_30
REMARK   10  A    between atoms: C_30  and  N_31
REMARK   11  A    between atoms: C_32  and  O_34
REMARK   12  A    between atoms: O_34  and  C_35
REMARK   13  A    between atoms: C_35  and  C_36
REMARK   14  A    between atoms: C_35  and  C_37
REMARK   15  A    between atoms: C_35  and  C_38
REMARK                            x       y       z     vdW  Elec       q    Type
REMARK                         _______ _______ _______ _____ _____    ______ ____
ROOT
ATOM      1  N   UNL     1      -3.925  -4.702   0.014  0.00  0.00    -0.303 N 
ATOM      2  C   UNL     1      -4.582  -4.846   1.183  0.00  0.00    +0.217 C 
ATOM      3  O   UNL     1      -4.034  -4.556   2.225  0.00  0.00    -0.275 OA
ATOM      4  H   UNL     1      -4.363  -4.934  -0.820  0.00  0.00    +0.149 HD
ENDROOT
BRANCH   2   5
ATOM      5  C   UNL     1      -5.995  -5.368   1.193  0.00  0.00    +0.078 C 
ATOM      6  C   UNL     1      -6.890  -4.432   0.378  0.00  0.00    +0.032 C 
ATOM      7  C   UNL     1      -8.319  -4.984   0.362  0.00  0.00    +0.108 C 
ATOM      8  N   UNL     1      -8.763  -5.187   1.748  0.00  0.00    -0.300 N 
ATOM      9  C   UNL     1      -7.928  -5.997   2.645  0.00  0.00    +0.108 C 
ATOM     10  C   UNL     1      -6.503  -5.434   2.635  0.00  0.00    +0.032 C 
ATOM     11  C   UNL     1      -9.914  -4.640   2.188  0.00  0.00    +0.233 C 
ATOM     12  O   UNL     1     -10.594  -3.973   1.437  0.00  0.00    -0.274 OA
BRANCH  11  13
ATOM     13  C   UNL     1     -10.355  -4.858   3.612  0.00  0.00    +0.203 C 
BRANCH  13  14
ATOM     14  N   UNL     1     -11.627  -4.167   3.840  0.00  0.00    -0.273 N 
ATOM     15  C   UNL     1     -12.216  -4.222   5.051  0.00  0.00    +0.401 C 
ATOM     16  O   UNL     1     -11.693  -4.846   5.953  0.00  0.00    -0.226 OA
ATOM     17  H   UNL     1     -12.044  -3.669   3.120  0.00  0.00    +0.153 HD
BRANCH  15  18
ATOM     18  O   UNL     1     -13.384  -3.587   5.261  0.00  0.00    -0.445 OA
BRANCH  18  19
ATOM     19  C   UNL     1     -13.952  -3.688   6.568  0.00  0.00    +0.107 C 
ATOM     20  C   UNL     1     -12.978  -3.107   7.594  0.00  0.00    +0.055 C 
ATOM     21  C   UNL     1     -15.268  -2.908   6.615  0.00  0.00    +0.055 C 
ATOM     22  C   UNL     1     -14.220  -5.159   6.895  0.00  0.00    +0.055 C 
ENDBRANCH  18  19
ENDBRANCH  15  18
ENDBRANCH  13  14
ENDBRANCH  11  13
ENDBRANCH   2   5
BRANCH   1  23
ATOM     23  C   UNL     1      -2.551  -4.195   0.004  0.00  0.00    +0.163 C 
BRANCH  23  25
ATOM     24  N   UNL     1      -1.413  -1.998   0.005  0.00  0.00    -0.314 N 
ATOM     25  C   UNL     1      -2.571  -2.688   0.012  0.00  0.00    +0.234 C 
ATOM     26  O   UNL     1      -3.630  -2.096   0.025  0.00  0.00    -0.274 OA
ATOM     27  H   UNL     1      -0.567  -2.472  -0.006  0.00  0.00    +0.149 HD
BRANCH  24  28
ATOM     28  C   UNL     1      -1.433  -0.534   0.013  0.00  0.00    +0.104 C 
BRANCH  28  30
ATOM     29  C   UNL     1      -0.019   1.526   0.010  0.00  0.00    +0.005 C 
ATOM     30  C   UNL     1       0.002  -0.004   0.002  0.00  0.00    +0.015 C 
ENDBRANCH  28  30
ENDBRANCH  24  28
ENDBRANCH  23  25
BRANCH  23  31
ATOM     31  C   UNL     1      -1.835  -4.688  -1.255  0.00  0.00    +0.065 C 
BRANCH  31  32
ATOM     32  C   UNL     1      -1.706  -6.189  -1.204  0.00  0.00    -0.039 C 
ATOM     33  C   UNL     1      -2.537  -7.096  -1.765  0.00  0.00    -0.001 A 
ATOM     34  C   UNL     1      -3.764  -6.963  -2.559  0.00  0.00    +0.010 A 
ATOM     35  C   UNL     1      -4.391  -8.081  -2.991  0.00  0.00    +0.001 A 
ATOM     36  C   UNL     1      -3.900  -9.361  -2.699  0.00  0.00    +0.002 A 
ATOM     37  C   UNL     1      -2.779  -9.564  -1.976  0.00  0.00    +0.026 A 
ATOM     38  C   UNL     1      -2.039  -8.459  -1.471  0.00  0.00    +0.043 A 
ATOM     39  N   UNL     1      -0.942  -8.396  -0.756  0.00  0.00    -0.380 N 
ATOM     40  C   UNL     1      -0.617  -6.985  -0.520  0.00  0.00    +0.144 C 
ATOM     41  H   UNL     1      -0.428  -9.156  -0.439  0.00  0.00    +0.160 HD
ENDBRANCH  31  32
ENDBRANCH  23  31
ENDBRANCH   1  23
TORSDOF 11
