REMARK  Name = ZINC00926257
REMARK  10 active torsions:
REMARK  status: ('A' for Active; 'I' for Inactive)
REMARK    1  A    between atoms: C_1  and  C_2
REMARK    2  A    between atoms: C_12  and  C_14
REMARK    3  A    between atoms: C_14  and  N_59
REMARK    4  A    between atoms: C_15  and  C_16
REMARK    5  A    between atoms: C_15  and  N_59
REMARK    6  A    between atoms: N_20  and  C_21
REMARK    7  A    between atoms: C_21  and  C_22
REMARK    8  A    between atoms: C_21  and  C_23
REMARK    9  A    between atoms: C_21  and  C_24
REMARK   10  A    between atoms: C_25  and  N_59
REMARK                            x       y       z     vdW  Elec       q    Type
REMARK                         _______ _______ _______ _____ _____    ______ ____
ROOT
ATOM      1  N   UNL     1      -0.843  -3.281  -1.300  0.00  0.00    +0.389 N 
ATOM      2  H   UNL     1      -0.844  -3.715  -2.231  0.00  0.00    -0.080 HD
ENDROOT
BRANCH   1   3
ATOM      3  C   UNL     1      -1.916  -2.267  -1.243  0.00  0.00    -0.068 C 
ATOM      4  C   UNL     1      -1.724  -1.251  -2.388  0.00  0.00    -0.015 C 
ATOM      5  C   UNL     1      -2.160   0.102  -1.773  0.00  0.00    -0.002 C 
ATOM      6  C   UNL     1      -1.623   0.008  -0.324  0.00  0.00    -0.002 C 
ATOM      7  C   UNL     1      -1.851  -1.466   0.070  0.00  0.00    -0.015 C 
ENDBRANCH   1   3
BRANCH   1   8
ATOM      8  C   UNL     1      -1.081  -4.327  -0.284  0.00  0.00    -0.037 C 
BRANCH   8  20
ATOM      9  C   UNL     1      -6.888  -7.100  -1.627  0.00  0.00    +0.046 C 
ATOM     10  C   UNL     1      -5.481  -7.526  -1.959  0.00  0.00    -0.026 A 
ATOM     11  C   UNL     1      -5.258  -8.687  -2.668  0.00  0.00    +0.005 A 
ATOM     12  C   UNL     1      -3.967  -9.090  -2.980  0.00  0.00    +0.001 A 
ATOM     13  C   UNL     1      -2.892  -8.342  -2.591  0.00  0.00    +0.010 A 
ATOM     14  C   UNL     1      -3.094  -7.160  -1.872  0.00  0.00    -0.001 A 
ATOM     15  C   UNL     1      -4.402  -6.748  -1.553  0.00  0.00    +0.052 A 
ATOM     16  N   UNL     1      -4.595  -5.582  -0.843  0.00  0.00    -0.322 N 
ATOM     17  H   UNL     1      -5.525  -5.289  -0.620  0.00  0.00    +0.169 HD
ATOM     18  C   UNL     1      -3.551  -4.833  -0.445  0.00  0.00    +0.251 A 
ATOM     19  O   UNL     1      -3.759  -3.811   0.184  0.00  0.00    -0.268 OA
ATOM     20  C   UNL     1      -2.221  -5.199  -0.744  0.00  0.00    +0.001 A 
ATOM     21  C   UNL     1      -1.965  -6.335  -1.439  0.00  0.00    +0.017 A 
ENDBRANCH   8  20
ENDBRANCH   1   8
BRANCH   1  22
ATOM     22  C   UNL     1       0.470  -2.642  -1.069  0.00  0.00    +0.001 C 
BRANCH  22  23
ATOM     23  C   UNL     1       1.555  -3.663  -1.296  0.00  0.00    +0.136 A 
ATOM     24  N   UNL     1       2.143  -4.396  -0.383  0.00  0.00    -0.115 NA
ATOM     25  N   UNL     1       3.016  -5.139  -0.970  0.00  0.00    -0.023 NA
ATOM     26  N   UNL     1       2.997  -4.903  -2.235  0.00  0.00    -0.043 NA
ATOM     27  N   UNL     1       2.107  -4.000  -2.476  0.00  0.00    -0.226 N 
BRANCH  27  28
ATOM     28  C   UNL     1       1.765  -3.444  -3.788  0.00  0.00    +0.059 C 
ATOM     29  C   UNL     1       2.578  -4.155  -4.871  0.00  0.00    +0.036 C 
ATOM     30  C   UNL     1       2.088  -1.948  -3.807  0.00  0.00    +0.036 C 
ATOM     31  C   UNL     1       0.272  -3.647  -4.055  0.00  0.00    +0.036 C 
ENDBRANCH  27  28
ENDBRANCH  22  23
ENDBRANCH   1  22
TORSDOF 6
