REMARK  Name = ZINC28535530
REMARK  7 active torsions:
REMARK  status: ('A' for Active; 'I' for Inactive)
REMARK    1  A    between atoms: C_1  and  C_2
REMARK    2  A    between atoms: C_6  and  C_26
REMARK    3  A    between atoms: C_7  and  N_8
REMARK    4  A    between atoms: N_12  and  N_25
REMARK    5  A    between atoms: C_13  and  S_16
REMARK    6  A    between atoms: S_16  and  C_17
REMARK    7  A    between atoms: C_17  and  C_18
REMARK                            x       y       z     vdW  Elec       q    Type
REMARK                         _______ _______ _______ _____ _____    ______ ____
ROOT
ATOM      1  N   UNL     1       3.636  -0.441  -0.065  0.00  0.00    -0.293 N 
ATOM      2  C   UNL     1       2.777  -0.294   1.026  0.00  0.00    +0.212 A 
ATOM      3  C   UNL     1       1.671  -1.169   1.190  0.00  0.00    +0.312 A 
ATOM      4  O   UNL     1       1.450  -2.061   0.389  0.00  0.00    -0.262 OA
ATOM      5  N   UNL     1       0.868  -0.984   2.264  0.00  0.00    -0.205 N 
ATOM      6  C   UNL     1       1.161   0.030   3.130  0.00  0.00    +0.210 A 
ATOM      7  N   UNL     1       2.204   0.810   2.922  0.00  0.00    -0.121 NA
ATOM      8  N   UNL     1       2.982   0.657   1.912  0.00  0.00    -0.126 NA
ATOM      9  H   UNL     1       3.411  -1.181  -0.847  0.00  0.00    +0.154 HD
ENDROOT
BRANCH   1  16
ATOM     10  C   UNL     1       3.311   2.320  -0.671  0.00  0.00    +0.045 C 
ATOM     11  C   UNL     1       4.670   1.705  -0.457  0.00  0.00    -0.029 A 
ATOM     12  C   UNL     1       5.804   2.487  -0.546  0.00  0.00    +0.005 A 
ATOM     13  C   UNL     1       7.052   1.922  -0.355  0.00  0.00    +0.001 A 
ATOM     14  C   UNL     1       7.168   0.575  -0.067  0.00  0.00    +0.005 A 
ATOM     15  C   UNL     1       6.037  -0.212   0.030  0.00  0.00    -0.029 A 
ATOM     16  C   UNL     1       4.782   0.352  -0.162  0.00  0.00    +0.038 A 
ATOM     17  C   UNL     1       6.165  -1.681   0.344  0.00  0.00    +0.045 C 
ENDBRANCH   1  16
BRANCH   5  18
ATOM     18  N   UNL     1      -0.212  -1.793   2.477  0.00  0.00    -0.293 N 
ATOM     19  H   UNL     1      -0.856  -1.631   3.353  0.00  0.00    +0.163 HD
ATOM     20  H   UNL     1      -0.437  -2.606   1.771  0.00  0.00    +0.163 HD
ENDBRANCH   5  18
BRANCH   6  21
ATOM     21  S   UNL     1       0.132   0.304   4.534  0.00  0.00    -0.080 S 
BRANCH  21  22
ATOM     22  C   UNL     1       0.983   1.719   5.276  0.00  0.00    +0.112 C 
BRANCH  22  23
ATOM     23  C   UNL     1       0.259   2.140   6.529  0.00  0.00    -0.037 A 
ATOM     24  C   UNL     1      -0.749   3.084   6.460  0.00  0.00    +0.006 A 
ATOM     25  C   UNL     1      -1.417   3.466   7.608  0.00  0.00    +0.020 A 
ATOM     26  C   UNL     1      -1.069   2.913   8.828  0.00  0.00    +0.041 A 
ATOM     27  C   UNL     1      -0.056   1.973   8.896  0.00  0.00    +0.020 A 
ATOM     28  C   UNL     1       0.607   1.587   7.747  0.00  0.00    +0.006 A 
ATOM     29 CL   UNL     1      -1.903   3.397  10.271  0.00  0.00    -0.084 Cl
ENDBRANCH  22  23
ENDBRANCH  21  22
ENDBRANCH   6  21
TORSDOF 5
