REMARK  Name = ZINC13563383
REMARK  2 active torsions:
REMARK  status: ('A' for Active; 'I' for Inactive)
REMARK    1  A    between atoms: C_5  and  C_7
REMARK    2  A    between atoms: C_18  and  N_23
REMARK                            x       y       z     vdW  Elec       q    Type
REMARK                         _______ _______ _______ _____ _____    ______ ____
ROOT
ATOM      1  C   UNL     1       3.628   0.886   0.316  0.00  0.00    +0.106 C 
ATOM      2  C   UNL     1       2.174   0.665   0.691  0.00  0.00    +0.029 C 
ATOM      3  C   UNL     1       1.447  -0.508   0.020  0.00  0.00    +0.033 C 
ATOM      4  C   UNL     1       0.002  -0.004   0.002  0.00  0.00    -0.030 C 
ATOM      5  C   UNL     1      -0.016   1.323   0.009  0.00  0.00    -0.023 C 
ATOM      6  C   UNL     1       1.385   1.817  -0.001  0.00  0.00    +0.049 C 
ATOM      7  C   UNL     1       1.772   3.087   0.650  0.00  0.00    -0.017 A 
ATOM      8  C   UNL     1       0.888   4.131   0.817  0.00  0.00    +0.038 A 
ATOM      9  C   UNL     1       1.306   5.313   1.400  0.00  0.00    +0.127 A 
ATOM     10  C   UNL     1       2.617   5.450   1.819  0.00  0.00    +0.034 A 
ATOM     11  C   UNL     1       3.507   4.408   1.664  0.00  0.00    +0.025 A 
ATOM     12  C   UNL     1       3.096   3.214   1.085  0.00  0.00    +0.032 A 
ATOM     13  N   UNL     1       4.013   2.165   0.952  0.00  0.00    -0.336 N 
ATOM     14  H   UNL     1       4.918   2.279   1.282  0.00  0.00    +0.147 HD
ENDROOT
BRANCH   1  19
ATOM     15  C   UNL     1       5.906  -1.131   2.551  0.00  0.00    +0.000 A 
ATOM     16  C   UNL     1       6.043  -2.299   1.824  0.00  0.00    +0.001 A 
ATOM     17  C   UNL     1       5.399  -2.437   0.609  0.00  0.00    +0.020 A 
ATOM     18  C   UNL     1       4.617  -1.406   0.120  0.00  0.00    +0.046 A 
ATOM     19  C   UNL     1       4.480  -0.237   0.848  0.00  0.00    -0.009 A 
ATOM     20  C   UNL     1       5.129  -0.099   2.060  0.00  0.00    +0.007 A 
ATOM     21 CL   UNL     1       3.807  -1.578  -1.406  0.00  0.00    -0.083 Cl
ENDBRANCH   1  19
BRANCH   9  22
ATOM     22  N   UNL     1       0.352   6.431   1.575  0.00  0.00    +0.056 N 
ATOM     23  O   UNL     1       0.721   7.472   2.089  0.00  0.00    -0.126 OA
ATOM     24  O   UNL     1      -0.802   6.310   1.205  0.00  0.00    -0.126 OA
ENDBRANCH   9  22
TORSDOF 2
