REMARK  Name = ZINC06622491
REMARK  6 active torsions:
REMARK  status: ('A' for Active; 'I' for Inactive)
REMARK    1  A    between atoms: C_3  and  C_8
REMARK    2  A    between atoms: C_5  and  O_7
REMARK    3  A    between atoms: C_10  and  C_11
REMARK    4  A    between atoms: C_11  and  C_12
REMARK    5  A    between atoms: N_24  and  C_25
REMARK    6  A    between atoms: C_25  and  C_26
REMARK                            x       y       z     vdW  Elec       q    Type
REMARK                         _______ _______ _______ _____ _____    ______ ____
ROOT
ATOM      1  C   UNL     1       3.153   1.877  -0.160  0.00  0.00    +0.145 C 
ATOM      2  C   UNL     1       3.855   2.446  -1.371  0.00  0.00    +0.076 C 
ATOM      3  C   UNL     1       4.023   3.769  -1.139  0.00  0.00    +0.249 C 
ATOM      4  O   UNL     1       4.614   4.644  -1.985  0.00  0.00    -0.282 OA
ATOM      5  C   UNL     1       3.459   4.105   0.185  0.00  0.00    +0.288 C 
ATOM      6  O   UNL     1       3.455   5.215   0.680  0.00  0.00    -0.266 OA
ATOM      7  N   UNL     1       2.949   3.001   0.761  0.00  0.00    -0.276 N 
ENDROOT
BRANCH   1  10
ATOM      8  C   UNL     1      -0.470   1.579  -1.183  0.00  0.00    +0.004 A 
ATOM      9  C   UNL     1       0.750   2.117  -0.816  0.00  0.00    +0.006 A 
ATOM     10  C   UNL     1       1.825   1.287  -0.560  0.00  0.00    -0.019 A 
ATOM     11  C   UNL     1       1.684  -0.083  -0.671  0.00  0.00    +0.051 A 
ATOM     12  C   UNL     1       0.462  -0.625  -1.039  0.00  0.00    +0.117 A 
ATOM     13  C   UNL     1      -0.616   0.210  -1.295  0.00  0.00    +0.045 A 
BRANCH  12  14
ATOM     14  O   UNL     1       0.320  -1.972  -1.149  0.00  0.00    -0.507 OA
ATOM     15  H   UNL     1       0.043  -2.407  -0.330  0.00  0.00    +0.292 HD
ENDBRANCH  12  14
ENDBRANCH   1  10
BRANCH   2  16
ATOM     16  C   UNL     1       4.272   1.708  -2.567  0.00  0.00    +0.195 C 
ATOM     17  O   UNL     1       3.773   1.966  -3.646  0.00  0.00    -0.287 OA
BRANCH  16  18
ATOM     18  C   UNL     1       5.299   0.651  -2.462  0.00  0.00    +0.022 A 
ATOM     19  C   UNL     1       5.955   0.429  -1.248  0.00  0.00    +0.014 A 
ATOM     20  C   UNL     1       6.912  -0.558  -1.156  0.00  0.00    +0.039 A 
ATOM     21  C   UNL     1       7.225  -1.330  -2.265  0.00  0.00    +0.123 A 
ATOM     22  C   UNL     1       6.577  -1.114  -3.472  0.00  0.00    +0.039 A 
ATOM     23  C   UNL     1       5.614  -0.134  -3.574  0.00  0.00    +0.014 A 
ATOM     24  F   UNL     1       8.165  -2.296  -2.169  0.00  0.00    -0.205 F 
ENDBRANCH  16  18
ENDBRANCH   2  16
BRANCH   7  25
ATOM     25  C   UNL     1       2.304   2.934   2.074  0.00  0.00    +0.183 C 
BRANCH  25  26
ATOM     26  C   UNL     1       3.340   2.644   3.129  0.00  0.00    +0.122 A 
ATOM     27  C   UNL     1       4.040   3.564   3.818  0.00  0.00    +0.046 A 
ATOM     28  C   UNL     1       4.893   2.856   4.696  0.00  0.00    +0.041 A 
ATOM     29  C   UNL     1       4.664   1.546   4.491  0.00  0.00    +0.195 A 
ATOM     30  O   UNL     1       3.718   1.424   3.545  0.00  0.00    -0.466 OA
ENDBRANCH  25  26
ENDBRANCH   7  25
TORSDOF 6
