REMARK  Name = ZINC35253793
REMARK  5 active torsions:
REMARK  status: ('A' for Active; 'I' for Inactive)
REMARK    1  A    between atoms: C_6  and  C_7
REMARK    2  A    between atoms: C_7  and  C_9
REMARK    3  A    between atoms: C_7  and  C_21
REMARK    4  A    between atoms: C_9  and  C_10
REMARK    5  A    between atoms: C_15  and  C_18
REMARK                            x       y       z     vdW  Elec       q    Type
REMARK                         _______ _______ _______ _____ _____    ______ ____
ROOT
ATOM      1  C   UNL     1      -1.294  -0.774   0.010  0.00  0.00    +0.076 C 
ENDROOT
BRANCH   1   2
ATOM      2  C   UNL     1      -2.100  -0.413  -1.211  0.00  0.00    +0.051 A 
ATOM      3  C   UNL     1      -2.930   0.646  -1.340  0.00  0.00    +0.135 A 
ATOM      4  N   UNL     1      -3.459   0.626  -2.565  0.00  0.00    -0.236 NA
ATOM      5  C   UNL     1      -2.987  -0.422  -3.226  0.00  0.00    +0.138 A 
ATOM      6  N   UNL     1      -2.124  -1.092  -2.398  0.00  0.00    -0.302 N 
ATOM      7  C   UNL     1      -1.485  -2.219  -2.830  0.00  0.00    +0.113 A 
ATOM      8  C   UNL     1      -1.691  -2.689  -4.080  0.00  0.00    +0.058 A 
ATOM      9  C   UNL     1      -2.568  -2.022  -4.952  0.00  0.00    +0.025 A 
ATOM     10  C   UNL     1      -3.216  -0.903  -4.531  0.00  0.00    +0.048 A 
ATOM     11 CL   UNL     1      -0.868  -4.123  -4.610  0.00  0.00    -0.082 Cl
ENDBRANCH   1   2
BRANCH   1  17
ATOM     12  C   UNL     1      -0.017   1.378   0.010  0.00  0.00    +0.008 A 
ATOM     13  C   UNL     1       1.170   2.088   0.002  0.00  0.00    +0.050 A 
ATOM     14  C   UNL     1       2.380   1.416  -0.013  0.00  0.00    +0.166 A 
ATOM     15  C   UNL     1       2.399   0.023  -0.021  0.00  0.00    +0.167 A 
ATOM     16  C   UNL     1       1.207  -0.682  -0.014  0.00  0.00    +0.053 A 
ATOM     17  C   UNL     1       0.002  -0.004   0.002  0.00  0.00    -0.034 A 
ATOM     18  O   UNL     1       3.698  -0.395  -0.036  0.00  0.00    -0.453 OA
ATOM     19  C   UNL     1       4.466   0.750  -0.450  0.00  0.00    +0.466 C 
ATOM     20  O   UNL     1       3.668   1.870  -0.024  0.00  0.00    -0.453 OA
ENDBRANCH   1  17
BRANCH   1  21
ATOM     21  C   UNL     1      -2.088  -0.421   1.269  0.00  0.00    +0.110 C 
BRANCH  21  22
ATOM     22  C   UNL     1      -3.325  -1.279   1.340  0.00  0.00    +0.217 C 
ATOM     23  O   UNL     1      -3.548  -2.094   0.469  0.00  0.00    -0.276 OA
ATOM     24  N   UNL     1      -4.182  -1.143   2.370  0.00  0.00    -0.301 N 
ATOM     25  C   UNL     1      -3.928  -0.157   3.430  0.00  0.00    +0.108 C 
ATOM     26  C   UNL     1      -3.971  -0.868   4.786  0.00  0.00    +0.032 C 
ATOM     27  C   UNL     1      -5.301  -1.612   4.926  0.00  0.00    +0.078 C 
ATOM     28  C   UNL     1      -5.415  -2.667   3.823  0.00  0.00    +0.032 C 
ATOM     29  C   UNL     1      -5.392  -1.973   2.453  0.00  0.00    +0.108 C 
BRANCH  27  30
ATOM     30  C   UNL     1      -5.360  -2.285   6.273  0.00  0.00    +0.214 C 
ATOM     31  O   UNL     1      -4.431  -2.179   7.045  0.00  0.00    -0.276 OA
ATOM     32  N   UNL     1      -6.446  -3.004   6.620  0.00  0.00    -0.329 N 
ATOM     33  H   UNL     1      -7.189  -3.088   6.002  0.00  0.00    +0.145 HD
ATOM     34  H   UNL     1      -6.484  -3.437   7.487  0.00  0.00    +0.145 HD
ENDBRANCH  27  30
ENDBRANCH  21  22
ENDBRANCH   1  21
TORSDOF 5
