REMARK  Name = ZINC11917931
REMARK  3 active torsions:
REMARK  status: ('A' for Active; 'I' for Inactive)
REMARK    1  A    between atoms: C_6  and  N_7
REMARK    2  A    between atoms: C_8  and  C_10
REMARK    3  A    between atoms: C_10  and  N_11
REMARK                            x       y       z     vdW  Elec       q    Type
REMARK                         _______ _______ _______ _____ _____    ______ ____
ROOT
ATOM      1  N   UNL     1      -1.202  -0.721   0.011  0.00  0.00    -0.284 N 
ATOM      2  C   UNL     1      -2.374  -0.067   0.128  0.00  0.00    +0.235 C 
ATOM      3  O   UNL     1      -2.395   1.145   0.135  0.00  0.00    -0.274 OA
ATOM      4  H   UNL     1      -1.191  -1.687  -0.072  0.00  0.00    +0.155 HD
ENDROOT
BRANCH   1  10
ATOM      5  C   UNL     1       0.122   1.154   0.763  0.00  0.00    +0.027 A 
ATOM      6  C   UNL     1       1.310   1.861   0.762  0.00  0.00    +0.051 A 
ATOM      7  C   UNL     1       2.383   1.417   0.008  0.00  0.00    +0.167 A 
ATOM      8  C   UNL     1       2.265   0.255  -0.752  0.00  0.00    +0.169 A 
ATOM      9  C   UNL     1       1.075  -0.453  -0.751  0.00  0.00    +0.072 A 
ATOM     10  C   UNL     1       0.002  -0.004   0.008  0.00  0.00    +0.037 A 
ATOM     11  O   UNL     1       3.448   0.032  -1.399  0.00  0.00    -0.447 OA
ATOM     12  C   UNL     1       4.160   1.271  -1.322  0.00  0.00    +0.254 C 
ATOM     13  O   UNL     1       3.642   1.924  -0.160  0.00  0.00    -0.448 OA
ATOM     14  C   UNL     1       5.670   1.028  -1.189  0.00  0.00    +0.093 C 
ATOM     15  C   UNL     1       6.208   1.209  -2.632  0.00  0.00    +0.008 C 
ATOM     16  C   UNL     1       5.342   2.372  -3.179  0.00  0.00    +0.008 C 
ATOM     17  C   UNL     1       3.941   2.116  -2.579  0.00  0.00    +0.093 C 
ENDBRANCH   1  10
BRANCH   2  18
ATOM     18  C   UNL     1      -3.660  -0.843   0.251  0.00  0.00    +0.212 C 
BRANCH  18  19
ATOM     19  N   UNL     1      -4.785   0.089   0.364  0.00  0.00    -0.233 N 
ATOM     20  C   UNL     1      -5.243   0.565   1.554  0.00  0.00    +0.226 C 
ATOM     21  O   UNL     1      -4.965   0.154   2.660  0.00  0.00    -0.275 OA
ATOM     22  C   UNL     1      -6.159   1.698   1.219  0.00  0.00    +0.087 C 
ATOM     23  C   UNL     1      -7.362   1.971   2.090  0.00  0.00    +0.013 C 
ATOM     24  C   UNL     1      -8.116   3.150   1.447  0.00  0.00    +0.001 C 
ATOM     25  C   UNL     1      -8.496   2.866  -0.002  0.00  0.00    +0.001 C 
ATOM     26  C   UNL     1      -7.278   2.429  -0.840  0.00  0.00    +0.013 C 
ATOM     27  C   UNL     1      -6.703   1.212  -0.158  0.00  0.00    +0.087 C 
ATOM     28  C   UNL     1      -5.468   0.569  -0.710  0.00  0.00    +0.226 C 
ATOM     29  O   UNL     1      -5.144   0.491  -1.875  0.00  0.00    -0.275 OA
ENDBRANCH  18  19
ENDBRANCH   2  18
TORSDOF 3
