REMARK  Name = ZINC03305529
REMARK  4 active torsions:
REMARK  status: ('A' for Active; 'I' for Inactive)
REMARK    1  A    between atoms: C_1  and  C_2
REMARK    2  A    between atoms: C_2  and  C_3
REMARK    3  A    between atoms: C_13  and  C_15
REMARK    4  A    between atoms: C_15  and  N_16
REMARK                            x       y       z     vdW  Elec       q    Type
REMARK                         _______ _______ _______ _____ _____    ______ ____
ROOT
ATOM      1  C   UNL     1       0.000   1.080   2.488  0.00  0.00    -0.046 A 
ATOM      2  C   UNL     1       1.017   1.835   3.054  0.00  0.00    +0.006 A 
ATOM      3  C   UNL     1       1.696   1.404   4.164  0.00  0.00    +0.029 A 
ATOM      4  C   UNL     1       1.377   0.167   4.771  0.00  0.00    +0.080 A 
ATOM      5  C   UNL     1       0.336  -0.574   4.167  0.00  0.00    +0.041 A 
ATOM      6  C   UNL     1      -0.342  -0.132   3.058  0.00  0.00    +0.021 A 
ATOM      7  S   UNL     1       0.251  -2.017   5.200  0.00  0.00    -0.052 S 
ATOM      8  C   UNL     1       1.558  -1.561   6.331  0.00  0.00    +0.165 A 
ATOM      9  N   UNL     1       1.943  -0.399   5.859  0.00  0.00    -0.225 NA
ATOM     10  N   UNL     1       2.041  -2.258   7.426  0.00  0.00    -0.263 N 
ATOM     11  C   UNL     1       3.044  -1.742   8.164  0.00  0.00    +0.237 C 
ATOM     12  O   UNL     1       3.524  -0.668   7.868  0.00  0.00    -0.274 OA
ATOM     13  H   UNL     1       1.657  -3.117   7.663  0.00  0.00    +0.157 HD
ENDROOT
BRANCH   1  15
ATOM     14  C   UNL     1      -0.013   1.086   0.008  0.00  0.00    +0.009 C 
ATOM     15  C   UNL     1      -0.729   1.579   1.267  0.00  0.00    +0.032 C 
ENDBRANCH   1  15
BRANCH  11  16
ATOM     16  C   UNL     1       3.570  -2.499   9.356  0.00  0.00    +0.214 C 
BRANCH  16  17
ATOM     17  N   UNL     1       4.649  -1.733   9.984  0.00  0.00    -0.215 N 
ATOM     18  C   UNL     1       4.464  -0.823  10.964  0.00  0.00    +0.247 C 
ATOM     19  O   UNL     1       3.414  -0.495  11.474  0.00  0.00    -0.273 OA
ATOM     20  C   UNL     1       5.840  -0.302  11.289  0.00  0.00    +0.113 C 
ATOM     21  C   UNL     1       6.199  -0.571  12.757  0.00  0.00    +0.035 C 
ATOM     22  C   UNL     1       7.043   0.664  13.168  0.00  0.00    +0.003 C 
ATOM     23  C   UNL     1       6.342   1.825  12.419  0.00  0.00    +0.003 C 
ATOM     24  C   UNL     1       5.931   1.209  11.063  0.00  0.00    +0.035 C 
ATOM     25  N   UNL     1       6.731  -1.032  10.385  0.00  0.00    -0.285 N 
ATOM     26  C   UNL     1       5.944  -1.853   9.661  0.00  0.00    +0.310 C 
ATOM     27  O   UNL     1       6.361  -2.613   8.810  0.00  0.00    -0.252 OA
ATOM     28  H   UNL     1       7.696  -0.946  10.322  0.00  0.00    +0.151 HD
ENDBRANCH  16  17
ENDBRANCH  11  16
TORSDOF 3
