REMARK  Name = ZINC37987139
REMARK  8 active torsions:
REMARK  status: ('A' for Active; 'I' for Inactive)
REMARK    1  A    between atoms: C_1  and  C_2
REMARK    2  A    between atoms: C_2  and  C_3
REMARK    3  A    between atoms: C_3  and  C_4
REMARK    4  A    between atoms: C_4  and  N_5
REMARK    5  A    between atoms: C_6  and  N_22
REMARK    6  A    between atoms: C_7  and  N_14
REMARK    7  A    between atoms: N_14  and  C_15
REMARK    8  A    between atoms: C_15  and  C_16
REMARK                            x       y       z     vdW  Elec       q    Type
REMARK                         _______ _______ _______ _____ _____    ______ ____
ROOT
ATOM      1  N   UNL     1       1.471  -2.526   2.420  0.00  0.00    -0.281 N 
ATOM      2  C   UNL     1       2.832  -2.730   2.369  0.00  0.00    +0.127 A 
ATOM      3  C   UNL     1       3.484  -3.183   3.483  0.00  0.00    +0.131 A 
ATOM      4  C   UNL     1       2.745  -3.429   4.654  0.00  0.00    +0.277 A 
ATOM      5  O   UNL     1       3.304  -3.833   5.660  0.00  0.00    -0.266 OA
ATOM      6  N   UNL     1       1.414  -3.215   4.658  0.00  0.00    -0.273 N 
ATOM      7  H   UNL     1       0.903  -3.384   5.465  0.00  0.00    +0.173 HD
ATOM      8  C   UNL     1       0.789  -2.764   3.555  0.00  0.00    +0.331 A 
ATOM      9  O   UNL     1      -0.411  -2.574   3.583  0.00  0.00    -0.246 OA
ENDROOT
BRANCH   2  10
ATOM     10  N   UNL     1       3.529  -2.481   1.209  0.00  0.00    -0.343 N 
ATOM     11  H   UNL     1       3.061  -2.160   0.422  0.00  0.00    +0.144 HD
ATOM     12  H   UNL     1       4.487  -2.627   1.178  0.00  0.00    +0.144 HD
ENDBRANCH   2  10
BRANCH   3  13
ATOM     13  N   UNL     1       4.881  -3.401   3.458  0.00  0.00    -0.332 N 
ATOM     14  H   UNL     1       5.384  -3.230   2.646  0.00  0.00    +0.147 HD
BRANCH  13  15
ATOM     15  C   UNL     1       5.569  -3.887   4.657  0.00  0.00    +0.144 C 
BRANCH  15  16
ATOM     16  C   UNL     1       7.040  -4.035   4.367  0.00  0.00    +0.008 A 
ATOM     17  C   UNL     1       8.035  -3.127   4.518  0.00  0.00    +0.014 A 
ATOM     18  C   UNL     1       9.328  -3.486   4.184  0.00  0.00    +0.023 A 
ATOM     19  C   UNL     1       9.561  -4.738   3.716  0.00  0.00    +0.055 A 
ATOM     20  S   UNL     1       7.926  -5.454   3.743  0.00  0.00    -0.085 S 
ATOM     21 BR   UNL     1      11.196  -5.523   3.179  0.00  0.00    -0.043 Br
ENDBRANCH  15  16
ENDBRANCH  13  15
ENDBRANCH   3  13
BRANCH   1  22
ATOM     22  C   UNL     1       0.763  -2.041   1.233  0.00  0.00    +0.128 C 
BRANCH  22  23
ATOM     23  C   UNL     1       0.742  -0.511   1.242  0.00  0.00    +0.021 C 
BRANCH  23  25
ATOM     24  C   UNL     1      -0.019   1.526   0.010  0.00  0.00    +0.004 C 
ATOM     25  C   UNL     1       0.002  -0.004   0.002  0.00  0.00    -0.002 C 
ENDBRANCH  23  25
ENDBRANCH  22  23
ENDBRANCH   1  22
TORSDOF 7
