REMARK  Name = ZINC03248988
REMARK  11 active torsions:
REMARK  status: ('A' for Active; 'I' for Inactive)
REMARK    1  A    between atoms: C_1  and  C_2
REMARK    2  A    between atoms: N_11  and  S_12
REMARK    3  A    between atoms: S_12  and  C_15
REMARK    4  A    between atoms: C_19  and  C_21
REMARK    5  A    between atoms: C_21  and  O_23
REMARK    6  A    between atoms: O_23  and  C_24
REMARK    7  A    between atoms: C_24  and  C_25
REMARK    8  A    between atoms: C_25  and  C_27
REMARK    9  A    between atoms: C_28  and  N_37
REMARK   10  A    between atoms: N_29  and  C_36
REMARK   11  A    between atoms: N_32  and  C_35
REMARK                            x       y       z     vdW  Elec       q    Type
REMARK                         _______ _______ _______ _____ _____    ______ ____
ROOT
ATOM      1  C   UNL     1       2.724   8.131   0.057  0.00  0.00    +0.110 A 
ATOM      2  C   UNL     1       1.437   8.639   0.059  0.00  0.00    +0.029 A 
ATOM      3  C   UNL     1       0.349   7.784   0.052  0.00  0.00    +0.003 A 
ATOM      4  C   UNL     1       0.541   6.418   0.043  0.00  0.00    +0.015 A 
ATOM      5  C   UNL     1       1.837   5.899   0.042  0.00  0.00    +0.061 A 
ATOM      6  C   UNL     1       2.931   6.767   0.054  0.00  0.00    +0.043 A 
ENDROOT
BRANCH   1   7
ATOM      7  S   UNL     1       4.103   9.228   0.067  0.00  0.00    +0.075 S 
ATOM      8  O   UNL     1       5.197   8.511  -0.487  0.00  0.00    -0.150 OA
ATOM      9  O   UNL     1       3.646  10.459  -0.476  0.00  0.00    -0.150 OA
BRANCH   7  19
ATOM     10  C   UNL     1       4.299  11.967   1.842  0.00  0.00    +0.030 C 
ATOM     11  C   UNL     1       3.932  10.615   2.458  0.00  0.00    +0.099 C 
ATOM     12  C   UNL     1       4.584  10.462   3.842  0.00  0.00    +0.061 C 
ATOM     13  C   UNL     1       5.491   9.260   3.704  0.00  0.00    -0.023 A 
ATOM     14  C   UNL     1       6.332   8.649   4.615  0.00  0.00    +0.005 A 
ATOM     15  C   UNL     1       7.072   7.543   4.243  0.00  0.00    +0.000 A 
ATOM     16  C   UNL     1       6.969   7.046   2.956  0.00  0.00    +0.002 A 
ATOM     17  C   UNL     1       6.131   7.652   2.044  0.00  0.00    +0.025 A 
ATOM     18  C   UNL     1       5.380   8.770   2.412  0.00  0.00    +0.055 A 
ATOM     19  N   UNL     1       4.483   9.523   1.652  0.00  0.00    -0.200 N 
ENDBRANCH   7  19
ENDBRANCH   1   7
BRANCH   5  20
ATOM     20  C   UNL     1       2.050   4.437   0.033  0.00  0.00    +0.340 C 
ATOM     21  O   UNL     1       3.179   3.988   0.031  0.00  0.00    -0.245 OA
BRANCH  20  22
ATOM     22  O   UNL     1       0.993   3.602   0.026  0.00  0.00    -0.453 OA
BRANCH  22  23
ATOM     23  C   UNL     1       1.278   2.178   0.018  0.00  0.00    +0.312 C 
BRANCH  23  24
ATOM     24  C   UNL     1      -0.017   1.407   0.012  0.00  0.00    +0.209 C 
ATOM     25  O   UNL     1      -1.077   2.000   0.009  0.00  0.00    -0.288 OA
BRANCH  24  26
ATOM     26  C   UNL     1       0.002  -0.004   0.003  0.00  0.00    +0.123 A 
ATOM     27  C   UNL     1      -1.186  -0.746   0.114  0.00  0.00    +0.116 A 
ATOM     28  N   UNL     1      -1.117  -2.110   0.101  0.00  0.00    -0.284 N 
ATOM     29  C   UNL     1       0.058  -2.748  -0.016  0.00  0.00    +0.333 A 
ATOM     30  O   UNL     1       0.066  -3.963  -0.022  0.00  0.00    -0.246 OA
ATOM     31  N   UNL     1       1.225  -2.093  -0.125  0.00  0.00    -0.263 N 
ATOM     32  C   UNL     1       1.264  -0.744  -0.129  0.00  0.00    +0.269 A 
ATOM     33  O   UNL     1       2.323  -0.153  -0.234  0.00  0.00    -0.267 OA
ATOM     34  C   UNL     1       2.472  -2.852  -0.249  0.00  0.00    +0.157 C 
ATOM     35  C   UNL     1      -2.350  -2.893   0.216  0.00  0.00    +0.155 C 
BRANCH  27  36
ATOM     36  N   UNL     1      -2.386  -0.116   0.234  0.00  0.00    -0.344 N 
ATOM     37  H   UNL     1      -3.200  -0.565  -0.046  0.00  0.00    +0.144 HD
ATOM     38  H   UNL     1      -2.428   0.782   0.599  0.00  0.00    +0.144 HD
ENDBRANCH  27  36
ENDBRANCH  24  26
ENDBRANCH  23  24
ENDBRANCH  22  23
ENDBRANCH  20  22
ENDBRANCH   5  20
TORSDOF 8
