REMARK  Name = ZINC13361814
REMARK  6 active torsions:
REMARK  status: ('A' for Active; 'I' for Inactive)
REMARK    1  A    between atoms: C_1  and  C_2
REMARK    2  A    between atoms: C_15  and  C_16
REMARK    3  A    between atoms: C_18  and  O_24
REMARK    4  A    between atoms: C_21  and  O_22
REMARK    5  A    between atoms: O_22  and  C_23
REMARK    6  A    between atoms: O_24  and  C_25
REMARK                            x       y       z     vdW  Elec       q    Type
REMARK                         _______ _______ _______ _____ _____    ______ ____
ROOT
ATOM      1  C   UNL     1       0.096   0.985  -0.778  0.00  0.00    +0.044 C 
ATOM      2  C   UNL     1      -0.049  -0.503  -0.589  0.00  0.00    -0.050 A 
ATOM      3  C   UNL     1      -0.313  -1.313  -1.687  0.00  0.00    +0.005 A 
ATOM      4  C   UNL     1      -0.449  -2.675  -1.536  0.00  0.00    +0.026 A 
ATOM      5  C   UNL     1      -0.321  -3.249  -0.275  0.00  0.00    +0.047 A 
ATOM      6  C   UNL     1      -0.052  -2.425   0.838  0.00  0.00    +0.004 A 
ATOM      7  C   UNL     1       0.086  -1.042   0.656  0.00  0.00    +0.013 A 
ATOM      8  C   UNL     1       0.025  -3.270   1.966  0.00  0.00    -0.011 A 
ATOM      9  C   UNL     1      -0.196  -4.549   1.534  0.00  0.00    +0.091 A 
ATOM     10  N   UNL     1      -0.403  -4.548   0.180  0.00  0.00    -0.351 N 
ATOM     11  H   UNL     1      -0.577  -5.329  -0.367  0.00  0.00    +0.166 HD
ATOM     12  C   UNL     1      -0.199  -5.694   2.474  0.00  0.00    +0.206 C 
ATOM     13  O   UNL     1      -0.514  -6.825   2.146  0.00  0.00    -0.285 OA
ATOM     14  C   UNL     1       0.218  -5.334   3.850  0.00  0.00    +0.002 C 
ATOM     15  C   UNL     1       0.946  -6.175   4.620  0.00  0.00    +0.019 C 
ATOM     16  C   UNL     1      -0.218  -3.970   4.344  0.00  0.00    +0.044 C 
ATOM     17  C   UNL     1       0.303  -2.886   3.395  0.00  0.00    +0.043 C 
ENDROOT
BRANCH  15  18
ATOM     18  C   UNL     1       1.490  -7.412   4.045  0.00  0.00    +0.020 A 
ATOM     19  C   UNL     1       1.946  -7.432   2.722  0.00  0.00    +0.057 A 
ATOM     20  C   UNL     1       2.456  -8.600   2.188  0.00  0.00    +0.121 A 
ATOM     21  C   UNL     1       2.517  -9.754   2.962  0.00  0.00    +0.049 A 
ATOM     22  C   UNL     1       2.069  -9.744   4.268  0.00  0.00    +0.050 A 
ATOM     23  C   UNL     1       1.560  -8.580   4.821  0.00  0.00    +0.127 A 
BRANCH  23  24
ATOM     24  O   UNL     1       1.125  -8.570   6.107  0.00  0.00    -0.495 OA
ATOM     25  C   UNL     1       1.228  -9.795   6.836  0.00  0.00    +0.277 C 
ENDBRANCH  23  24
BRANCH  20  26
ATOM     26  O   UNL     1       2.899  -8.621   0.903  0.00  0.00    -0.495 OA
ATOM     27  C   UNL     1       3.414  -9.862   0.415  0.00  0.00    +0.277 C 
ENDBRANCH  20  26
ENDBRANCH  15  18
TORSDOF 3
