REMARK  Name = ZINC31807467
REMARK  7 active torsions:
REMARK  status: ('A' for Active; 'I' for Inactive)
REMARK    1  A    between atoms: C_1  and  O_2
REMARK    2  A    between atoms: O_2  and  C_3
REMARK    3  A    between atoms: C_3  and  C_5
REMARK    4  A    between atoms: C_5  and  C_6
REMARK    5  A    between atoms: C_6  and  C_7
REMARK    6  A    between atoms: C_7  and  N_8
REMARK    7  A    between atoms: C_20  and  C_22
REMARK                            x       y       z     vdW  Elec       q    Type
REMARK                         _______ _______ _______ _____ _____    ______ ____
ROOT
ATOM      1  N   UNL     1       1.917  -6.863   2.982  0.00  0.00    -0.299 N 
ATOM      2  C   UNL     1       2.348  -5.883   3.802  0.00  0.00    +0.303 C 
ATOM      3  O   UNL     1       2.225  -4.719   3.474  0.00  0.00    -0.253 OA
ATOM      4  N   UNL     1       2.914  -6.195   4.985  0.00  0.00    -0.273 N 
ATOM      5  C   UNL     1       3.288  -5.142   5.941  0.00  0.00    +0.116 C 
ATOM      6  C   UNL     1       4.811  -5.145   6.120  0.00  0.00    +0.074 C 
ATOM      7  C   UNL     1       5.278  -6.567   6.285  0.00  0.00    +0.040 A 
ATOM      8  C   UNL     1       4.561  -7.659   5.943  0.00  0.00    +0.062 A 
ATOM      9  N   UNL     1       5.290  -8.741   6.227  0.00  0.00    -0.348 N 
ATOM     10  C   UNL     1       6.434  -8.364   6.736  0.00  0.00    +0.171 A 
ATOM     11  N   UNL     1       6.463  -7.012   6.789  0.00  0.00    -0.349 N 
ATOM     12  H   UNL     1       7.190  -6.464   7.123  0.00  0.00    +0.166 HD
ATOM     13  C   UNL     1       3.167  -7.599   5.354  0.00  0.00    +0.159 C 
ATOM     14  H   UNL     1       2.080  -7.792   3.209  0.00  0.00    +0.150 HD
ATOM     15  H   UNL     1       5.015  -9.659   6.079  0.00  0.00    +0.167 HD
ENDROOT
BRANCH  13  16
ATOM     16  C   UNL     1       2.155  -8.052   6.373  0.00  0.00    +0.014 A 
ATOM     17  C   UNL     1       2.512  -8.155   7.705  0.00  0.00    +0.010 A 
ATOM     18  C   UNL     1       1.584  -8.570   8.640  0.00  0.00    +0.016 A 
ATOM     19  C   UNL     1       0.295  -8.884   8.246  0.00  0.00    +0.021 A 
ATOM     20  C   UNL     1      -0.064  -8.782   6.915  0.00  0.00    +0.054 A 
ATOM     21  C   UNL     1       0.864  -8.360   5.978  0.00  0.00    +0.130 A 
ATOM     22  F   UNL     1       0.512  -8.255   4.678  0.00  0.00    -0.205 F 
ATOM     23 BR   UNL     1      -0.974  -9.453   9.527  0.00  0.00    -0.050 Br
ENDBRANCH  13  16
BRANCH   1  24
ATOM     24  C   UNL     1       1.203  -6.524   1.748  0.00  0.00    +0.106 C 
BRANCH  24  25
ATOM     25  C   UNL     1       0.828  -7.809   1.007  0.00  0.00    +0.030 C 
BRANCH  25  26
ATOM     26  C   UNL     1       0.083  -7.456  -0.281  0.00  0.00    +0.122 C 
BRANCH  26  27
ATOM     27  C   UNL     1      -0.286  -8.721  -1.011  0.00  0.00    +0.307 C 
ATOM     28  O   UNL     1       0.016  -9.796  -0.548  0.00  0.00    -0.251 OA
BRANCH  27  30
ATOM     29  C   UNL     1      -1.268  -9.894  -2.813  0.00  0.00    +0.280 C 
ATOM     30  O   UNL     1      -0.951  -8.655  -2.176  0.00  0.00    -0.468 OA
ENDBRANCH  27  30
ENDBRANCH  26  27
ENDBRANCH  25  26
ENDBRANCH  24  25
ENDBRANCH   1  24
TORSDOF 6
