REMARK  Name = ZINC09582021
REMARK  10 active torsions:
REMARK  status: ('A' for Active; 'I' for Inactive)
REMARK    1  A    between atoms: C_1  and  C_2
REMARK    2  A    between atoms: C_2  and  C_3
REMARK    3  A    between atoms: C_3  and  N_4
REMARK    4  A    between atoms: C_8  and  S_25
REMARK    5  A    between atoms: N_13  and  C_14
REMARK    6  A    between atoms: C_14  and  C_16
REMARK    7  A    between atoms: C_16  and  S_17
REMARK    8  A    between atoms: S_17  and  C_18
REMARK    9  A    between atoms: C_21  and  C_24
REMARK   10  A    between atoms: S_25  and  N_28
REMARK                            x       y       z     vdW  Elec       q    Type
REMARK                         _______ _______ _______ _____ _____    ______ ____
ROOT
ATOM      1  N   UNL     1       5.705  -6.932  -0.103  0.00  0.00    -0.321 N 
ATOM      2  C   UNL     1       5.671  -8.313  -0.151  0.00  0.00    +0.058 A 
ATOM      3  C   UNL     1       6.750  -9.210  -0.196  0.00  0.00    +0.029 A 
ATOM      4  C   UNL     1       6.535 -10.567  -0.240  0.00  0.00    +0.030 A 
ATOM      5  C   UNL     1       5.253 -11.091  -0.240  0.00  0.00    +0.106 A 
ATOM      6  C   UNL     1       4.171 -10.230  -0.195  0.00  0.00    +0.045 A 
ATOM      7  C   UNL     1       4.385  -8.873  -0.152  0.00  0.00    +0.041 A 
ATOM      8  S   UNL     1       3.323  -7.452  -0.080  0.00  0.00    -0.052 S 
ATOM      9  C   UNL     1       4.546  -6.223  -0.062  0.00  0.00    +0.166 A 
ATOM     10  N   UNL     1       4.388  -4.902  -0.015  0.00  0.00    -0.156 NA
ENDROOT
BRANCH   5  11
ATOM     11  S   UNL     1       5.003 -12.835  -0.298  0.00  0.00    +0.056 S 
ATOM     12  O   UNL     1       3.705 -13.041  -0.838  0.00  0.00    -0.153 OA
ATOM     13  O   UNL     1       6.170 -13.393  -0.885  0.00  0.00    -0.153 OA
BRANCH  11  14
ATOM     14  N   UNL     1       4.956 -13.374   1.267  0.00  0.00    -0.204 NA
ATOM     15  H   UNL     1       4.425 -14.153   1.496  0.00  0.00    +0.144 HD
ATOM     16  H   UNL     1       5.459 -12.912   1.955  0.00  0.00    +0.144 HD
ENDBRANCH  11  14
ENDBRANCH   5  11
BRANCH  10  17
ATOM     17  C   UNL     1       3.167  -4.380   0.021  0.00  0.00    +0.249 C 
ATOM     18  O   UNL     1       2.193  -5.108   0.009  0.00  0.00    -0.273 OA
BRANCH  17  19
ATOM     19  C   UNL     1       2.988  -2.884   0.075  0.00  0.00    +0.172 C 
BRANCH  19  20
ATOM     20  S   UNL     1       1.219  -2.488   0.113  0.00  0.00    -0.116 S 
BRANCH  20  21
ATOM     21  C   UNL     1       1.177  -0.727   0.175  0.00  0.00    +0.008 A 
ATOM     22  C   UNL     1      -0.041  -0.060   0.215  0.00  0.00    +0.015 A 
ATOM     23  C   UNL     1      -0.069   1.320   0.264  0.00  0.00    +0.004 A 
ATOM     24  C   UNL     1       1.113   2.038   0.272  0.00  0.00    -0.050 A 
ATOM     25  C   UNL     1       2.327   1.377   0.232  0.00  0.00    +0.004 A 
ATOM     26  C   UNL     1       2.363  -0.003   0.184  0.00  0.00    +0.015 A 
ATOM     27  C   UNL     1       1.077   3.543   0.325  0.00  0.00    +0.044 C 
ENDBRANCH  20  21
ENDBRANCH  19  20
ENDBRANCH  17  19
ENDBRANCH  10  17
BRANCH   1  28
ATOM     28  C   UNL     1       6.992  -6.232  -0.098  0.00  0.00    +0.124 C 
BRANCH  28  30
ATOM     29  C   UNL     1       8.253  -4.288  -1.032  0.00  0.00    +0.005 C 
ATOM     30  C   UNL     1       6.876  -4.946  -0.918  0.00  0.00    +0.018 C 
ENDBRANCH  28  30
ENDBRANCH   1  28
TORSDOF 8
