REMARK  Name = ZINC15540817
REMARK  5 active torsions:
REMARK  status: ('A' for Active; 'I' for Inactive)
REMARK    1  A    between atoms: C_4  and  C_7
REMARK    2  A    between atoms: C_8  and  C_18
REMARK    3  A    between atoms: N_10  and  C_12
REMARK    4  A    between atoms: N_20  and  N_21
REMARK    5  A    between atoms: C_22  and  C_24
REMARK                            x       y       z     vdW  Elec       q    Type
REMARK                         _______ _______ _______ _____ _____    ______ ____
ROOT
ATOM      1  C   UNL     1       3.300   4.029   1.478  0.00  0.00    +0.264 C 
ATOM      2  O   UNL     1       3.541   2.847   1.630  0.00  0.00    -0.269 OA
ATOM      3  N   UNL     1       4.100   4.957   2.038  0.00  0.00    -0.230 N 
ATOM      4  H   UNL     1       3.908   5.900   1.917  0.00  0.00    +0.173 HD
ENDROOT
BRANCH   1   6
ATOM      5  C   UNL     1       1.169   3.569   0.010  0.00  0.00    +0.105 A 
ATOM      6  C   UNL     1       2.133   4.446   0.682  0.00  0.00    +0.084 A 
ATOM      7  C   UNL     1       1.731   5.740   0.420  0.00  0.00    +0.128 A 
ATOM      8  N   UNL     1       0.624   5.681  -0.340  0.00  0.00    -0.239 N 
ATOM      9  N   UNL     1       0.294   4.346  -0.588  0.00  0.00    -0.166 NA
BRANCH   5  13
ATOM     10  C   UNL     1       1.208  -0.682  -0.013  0.00  0.00    +0.000 A 
ATOM     11  C   UNL     1       0.002  -0.004   0.002  0.00  0.00    +0.001 A 
ATOM     12  C   UNL     1      -0.017   1.376   0.010  0.00  0.00    +0.010 A 
ATOM     13  C   UNL     1       1.183   2.087   0.002  0.00  0.00    +0.003 A 
ATOM     14  C   UNL     1       2.394   1.398  -0.013  0.00  0.00    +0.010 A 
ATOM     15  C   UNL     1       2.401   0.018  -0.020  0.00  0.00    +0.001 A 
ENDBRANCH   5  13
BRANCH   8  16
ATOM     16  C   UNL     1      -0.088   6.790  -0.816  0.00  0.00    +0.065 A 
ATOM     17  C   UNL     1       0.336   8.075  -0.504  0.00  0.00    +0.028 A 
ATOM     18  C   UNL     1      -0.365   9.166  -0.979  0.00  0.00    +0.002 A 
ATOM     19  C   UNL     1      -1.494   8.980  -1.756  0.00  0.00    +0.000 A 
ATOM     20  C   UNL     1      -1.921   7.702  -2.064  0.00  0.00    +0.002 A 
ATOM     21  C   UNL     1      -1.222   6.606  -1.597  0.00  0.00    +0.028 A 
ENDBRANCH   8  16
ENDBRANCH   1   6
BRANCH   3  22
ATOM     22  N   UNL     1       5.210   4.561   2.795  0.00  0.00    -0.230 N 
ATOM     23  C   UNL     1       6.011   5.489   3.355  0.00  0.00    +0.267 C 
ATOM     24  O   UNL     1       5.770   6.671   3.203  0.00  0.00    -0.268 OA
ATOM     25  H   UNL     1       5.402   3.618   2.917  0.00  0.00    +0.173 HD
BRANCH  23  26
ATOM     26  C   UNL     1       7.177   5.072   4.151  0.00  0.00    +0.123 A 
ATOM     27  C   UNL     1       7.460   3.730   4.337  0.00  0.00    +0.031 A 
ATOM     28  C   UNL     1       8.597   3.373   5.106  0.00  0.00    +0.018 A 
ATOM     29  C   UNL     1       8.916   2.022   5.309  0.00  0.00    +0.011 A 
ATOM     30  C   UNL     1      10.009   1.686   6.055  0.00  0.00    +0.001 A 
ATOM     31  C   UNL     1      10.808   2.672   6.616  0.00  0.00    +0.004 A 
ATOM     32  C   UNL     1      10.514   4.006   6.429  0.00  0.00    +0.047 A 
ATOM     33  C   UNL     1       9.406   4.374   5.673  0.00  0.00    +0.139 A 
ATOM     34  O   UNL     1       9.120   5.681   5.491  0.00  0.00    -0.422 OA
ATOM     35  C   UNL     1       8.058   6.072   4.767  0.00  0.00    +0.350 A 
ATOM     36  O   UNL     1       7.825   7.257   4.621  0.00  0.00    -0.244 OA
ENDBRANCH  23  26
ENDBRANCH   3  22
TORSDOF 5
