REMARK  Name = ZINC08259043
REMARK  11 active torsions:
REMARK  status: ('A' for Active; 'I' for Inactive)
REMARK    1  A    between atoms: C_1  and  C_2
REMARK    2  A    between atoms: C_5  and  N_8
REMARK    3  A    between atoms: C_9  and  C_30
REMARK    4  A    between atoms: C_10  and  N_14
REMARK    5  A    between atoms: C_11  and  C_13
REMARK    6  A    between atoms: C_15  and  C_17
REMARK    7  A    between atoms: C_17  and  O_18
REMARK    8  A    between atoms: O_18  and  C_19
REMARK    9  A    between atoms: C_19  and  C_21
REMARK   10  A    between atoms: C_23  and  C_27
REMARK   11  A    between atoms: C_27  and  C_29
REMARK                            x       y       z     vdW  Elec       q    Type
REMARK                         _______ _______ _______ _____ _____    ______ ____
ROOT
ATOM      1  N   UNL     1      -6.061  -1.259   0.329  0.00  0.00    -0.280 N 
ATOM      2  C   UNL     1      -4.858  -0.675   0.156  0.00  0.00    +0.255 C 
ATOM      3  O   UNL     1      -4.791   0.500  -0.134  0.00  0.00    -0.272 OA
ATOM      4  H   UNL     1      -6.119  -2.216   0.475  0.00  0.00    +0.155 HD
ENDROOT
BRANCH   1   7
ATOM      5  N   UNL     1      -9.310   0.159   0.011  0.00  0.00    -0.235 N 
ATOM      6  C   UNL     1      -8.457  -0.893  -0.117  0.00  0.00    +0.063 A 
ATOM      7  C   UNL     1      -7.232  -0.479   0.298  0.00  0.00    +0.078 A 
ATOM      8  C   UNL     1      -7.343   0.862   0.696  0.00  0.00    +0.082 A 
ATOM      9  N   UNL     1      -8.582   1.243   0.519  0.00  0.00    -0.170 NA
ATOM     10  C   UNL     1      -6.225   1.718   1.232  0.00  0.00    +0.069 C 
ATOM     11  C   UNL     1      -8.807  -2.267  -0.628  0.00  0.00    +0.068 C 
BRANCH   5  16
ATOM     12  C   UNL     1     -14.836   0.157  -1.282  0.00  0.00    +0.044 C 
ATOM     13  C   UNL     1     -13.369   0.157  -0.939  0.00  0.00    -0.050 A 
ATOM     14  C   UNL     1     -12.813  -0.925  -0.282  0.00  0.00    +0.005 A 
ATOM     15  C   UNL     1     -11.469  -0.928   0.034  0.00  0.00    +0.028 A 
ATOM     16  C   UNL     1     -10.675   0.159  -0.308  0.00  0.00    +0.066 A 
ATOM     17  C   UNL     1     -11.237   1.247  -0.962  0.00  0.00    +0.028 A 
ATOM     18  C   UNL     1     -12.581   1.241  -1.281  0.00  0.00    +0.005 A 
ENDBRANCH   5  16
ENDBRANCH   1   7
BRANCH   2  19
ATOM     19  C   UNL     1      -3.598  -1.484   0.324  0.00  0.00    +0.328 C 
BRANCH  19  20
ATOM     20  O   UNL     1      -2.443  -0.635   0.087  0.00  0.00    -0.451 OA
BRANCH  20  21
ATOM     21  C   UNL     1      -1.228  -1.209   0.198  0.00  0.00    +0.356 C 
ATOM     22  O   UNL     1      -1.136  -2.387   0.485  0.00  0.00    -0.243 OA
BRANCH  21  23
ATOM     23  C   UNL     1      -0.018  -0.413  -0.028  0.00  0.00    +0.125 A 
ATOM     24  C   UNL     1       1.264  -0.870   0.052  0.00  0.00    +0.045 A 
ATOM     25  C   UNL     1       2.112   0.226  -0.237  0.00  0.00    +0.035 A 
ATOM     26  C   UNL     1       1.294   1.317  -0.484  0.00  0.00    +0.094 A 
ATOM     27  N   UNL     1       0.018   0.926  -0.357  0.00  0.00    -0.355 N 
ATOM     28  H   UNL     1      -0.758   1.494  -0.480  0.00  0.00    +0.166 HD
BRANCH  25  29
ATOM     29  C   UNL     1       3.578   0.209  -0.270  0.00  0.00    +0.162 C 
ATOM     30  O   UNL     1       4.179  -0.818  -0.033  0.00  0.00    -0.292 OA
ATOM     31  C   UNL     1       4.339   1.468  -0.597  0.00  0.00    +0.091 C 
ENDBRANCH  25  29
ENDBRANCH  21  23
ENDBRANCH  20  21
ENDBRANCH  19  20
ENDBRANCH   2  19
TORSDOF 7
