REMARK  Name = ZINC20618085
REMARK  7 active torsions:
REMARK  status: ('A' for Active; 'I' for Inactive)
REMARK    1  A    between atoms: C_1  and  C_2
REMARK    2  A    between atoms: C_7  and  C_34
REMARK    3  A    between atoms: N_9  and  C_10
REMARK    4  A    between atoms: C_10  and  C_11
REMARK    5  A    between atoms: C_11  and  N_12
REMARK    6  A    between atoms: C_13  and  C_15
REMARK    7  A    between atoms: C_18  and  N_21
REMARK                            x       y       z     vdW  Elec       q    Type
REMARK                         _______ _______ _______ _____ _____    ______ ____
ROOT
ATOM      1  C   UNL     1      -4.061  -3.382  -1.004  0.00  0.00    +0.037 A 
ATOM      2  C   UNL     1      -3.055  -4.322  -1.248  0.00  0.00    +0.015 A 
ATOM      3  C   UNL     1      -1.809  -3.904  -1.656  0.00  0.00    +0.028 A 
ATOM      4  C   UNL     1      -1.550  -2.547  -1.827  0.00  0.00    +0.067 A 
ATOM      5  C   UNL     1      -2.547  -1.609  -1.579  0.00  0.00    +0.028 A 
ATOM      6  C   UNL     1      -3.797  -2.020  -1.176  0.00  0.00    +0.015 A 
ENDROOT
BRANCH   4   7
ATOM      7  N   UNL     1      -0.287  -2.128  -2.240  0.00  0.00    -0.226 NA
ATOM      8  C   UNL     1      -0.162  -1.035  -3.070  0.00  0.00    +0.155 C 
ATOM      9  N   UNL     1       0.938  -0.476  -3.464  0.00  0.00    -0.318 N 
ATOM     10  C   UNL     1       0.944   0.691  -4.324  0.00  0.00    +0.108 C 
ATOM     11  C   UNL     1       1.739   1.823  -3.632  0.00  0.00    +0.189 C 
ATOM     12  S   UNL     1       0.839   3.327  -4.198  0.00  0.00    -0.028 S 
ATOM     13  O   UNL     1       1.267   3.696  -5.502  0.00  0.00    -0.174 OA
ATOM     14  O   UNL     1       0.850   4.290  -3.153  0.00  0.00    -0.174 OA
ATOM     15  C   UNL     1      -0.835   2.555  -4.301  0.00  0.00    +0.182 C 
ATOM     16  C   UNL     1      -0.471   1.123  -4.737  0.00  0.00    +0.097 C 
ATOM     17  S   UNL     1      -1.480  -0.105  -3.827  0.00  0.00    -0.084 S 
ATOM     18  H   UNL     1       1.889  -0.915  -3.126  0.00  0.00    +0.148 HD
ENDBRANCH   4   7
BRANCH   1  20
ATOM     19  N   UNL     1      -6.367  -2.919  -0.332  0.00  0.00    -0.313 N 
ATOM     20  C   UNL     1      -5.398  -3.826  -0.567  0.00  0.00    +0.244 C 
ATOM     21  O   UNL     1      -5.627  -5.011  -0.418  0.00  0.00    -0.270 OA
ATOM     22  H   UNL     1      -6.160  -1.847  -0.467  0.00  0.00    +0.149 HD
BRANCH  19  23
ATOM     23  C   UNL     1      -7.694  -3.360   0.102  0.00  0.00    +0.086 C 
BRANCH  23  24
ATOM     24  C   UNL     1      -8.598  -2.141   0.296  0.00  0.00    -0.059 C 
BRANCH  24  31
ATOM     25  C   UNL     1     -10.806  -0.856  -0.883  0.00  0.00    -0.013 C 
ATOM     26  C   UNL     1     -10.919  -1.483   0.508  0.00  0.00    -0.071 C 
ATOM     27  C   UNL     1     -12.339  -2.015   0.715  0.00  0.00    -0.016 C 
ATOM     28  C   UNL     1     -12.441  -2.659   2.100  0.00  0.00    -0.003 C 
ATOM     29  C   UNL     1     -11.398  -3.774   2.213  0.00  0.00    -0.016 C 
ATOM     30  C   UNL     1     -10.005  -3.192   1.964  0.00  0.00    -0.071 C 
ATOM     31  N   UNL     1      -9.959  -2.588   0.626  0.00  0.00    +0.384 N 
ATOM     32  C   UNL     1      -9.703  -2.123   3.016  0.00  0.00    -0.013 C 
ATOM     33  H   UNL     1     -10.247  -3.361  -0.101  0.00  0.00    -0.081 HD
ENDBRANCH  24  31
ENDBRANCH  23  24
ENDBRANCH  19  23
ENDBRANCH   1  20
TORSDOF 5
