REMARK  Name = ZINC59317393
REMARK  10 active torsions:
REMARK  status: ('A' for Active; 'I' for Inactive)
REMARK    1  A    between atoms: C_1  and  C_2
REMARK    2  A    between atoms: C_5  and  N_8
REMARK    3  A    between atoms: C_9  and  C_11
REMARK    4  A    between atoms: C_11  and  C_12
REMARK    5  A    between atoms: C_12  and  S_13
REMARK    6  A    between atoms: S_13  and  C_14
REMARK    7  A    between atoms: C_20  and  C_22
REMARK    8  A    between atoms: N_27  and  C_29
REMARK    9  A    between atoms: C_32  and  O_35
REMARK   10  A    between atoms: O_35  and  C_36
REMARK                            x       y       z     vdW  Elec       q    Type
REMARK                         _______ _______ _______ _____ _____    ______ ____
ROOT
ATOM      1  C   UNL     1       0.790  -9.132   4.217  0.00  0.00    +0.160 A 
ATOM      2  N   UNL     1       0.762  -8.358   5.293  0.00  0.00    -0.133 NA
ATOM      3  N   UNL     1       0.847  -8.833   6.458  0.00  0.00    -0.125 NA
ATOM      4  C   UNL     1       0.968 -10.132   6.679  0.00  0.00    +0.189 A 
ATOM      5  S   UNL     1       0.951 -10.737   4.994  0.00  0.00    -0.024 S 
ATOM      6  N   UNL     1       1.074 -10.830   7.879  0.00  0.00    -0.263 N 
ATOM      7  C   UNL     1       1.059 -10.163   9.050  0.00  0.00    +0.224 C 
ATOM      8  O   UNL     1       0.954  -8.954   9.059  0.00  0.00    -0.275 OA
ATOM      9  H   UNL     1       1.158 -11.796   7.873  0.00  0.00    +0.157 HD
ENDROOT
BRANCH   7  10
ATOM     10  C   UNL     1       1.173 -10.918  10.350  0.00  0.00    +0.102 C 
ATOM     11  C   UNL     1       2.548 -11.617  10.464  0.00  0.00    +0.110 C 
ATOM     12  C   UNL     1       3.408 -10.623  11.212  0.00  0.00    +0.221 C 
ATOM     13  O   UNL     1       4.620 -10.656  11.268  0.00  0.00    -0.275 OA
ATOM     14  N   UNL     1       2.635  -9.697  11.806  0.00  0.00    -0.271 N 
ATOM     15  C   UNL     1       1.211  -9.948  11.551  0.00  0.00    +0.127 C 
BRANCH  14  16
ATOM     16  C   UNL     1       3.126  -8.631  12.571  0.00  0.00    +0.036 A 
ATOM     17  C   UNL     1       4.493  -8.405  12.652  0.00  0.00    +0.027 A 
ATOM     18  C   UNL     1       4.976  -7.353  13.405  0.00  0.00    +0.047 A 
ATOM     19  C   UNL     1       4.094  -6.522  14.082  0.00  0.00    +0.120 A 
ATOM     20  C   UNL     1       2.728  -6.748  14.002  0.00  0.00    +0.047 A 
ATOM     21  C   UNL     1       2.244  -7.795  13.244  0.00  0.00    +0.027 A 
BRANCH  19  22
ATOM     22  O   UNL     1       4.570  -5.487  14.823  0.00  0.00    -0.495 OA
ATOM     23  C   UNL     1       3.606  -4.672  15.494  0.00  0.00    +0.277 C 
ENDBRANCH  19  22
ENDBRANCH  14  16
ENDBRANCH   7  10
BRANCH   1  24
ATOM     24  S   UNL     1       0.690  -8.703   2.511  0.00  0.00    -0.096 S 
BRANCH  24  25
ATOM     25  C   UNL     1       0.543  -6.895   2.520  0.00  0.00    +0.085 C 
BRANCH  25  26
ATOM     26  C   UNL     1       0.446  -6.384   1.082  0.00  0.00    +0.107 C 
BRANCH  26  28
ATOM     27  N   UNL     1       0.224  -4.208  -0.073  0.00  0.00    -0.285 N 
ATOM     28  C   UNL     1       0.324  -4.882   1.089  0.00  0.00    +0.218 C 
ATOM     29  O   UNL     1       0.315  -4.280   2.142  0.00  0.00    -0.275 OA
ATOM     30  H   UNL     1       0.154  -4.693  -0.911  0.00  0.00    +0.155 HD
BRANCH  27  35
ATOM     31  C   UNL     1       0.217   1.465  -0.073  0.00  0.00    +0.044 C 
ATOM     32  C   UNL     1       0.219  -0.042  -0.073  0.00  0.00    -0.050 A 
ATOM     33  C   UNL     1       0.957  -0.731   0.872  0.00  0.00    +0.005 A 
ATOM     34  C   UNL     1       0.961  -2.112   0.874  0.00  0.00    +0.023 A 
ATOM     35  C   UNL     1       0.222  -2.809  -0.073  0.00  0.00    +0.033 A 
ATOM     36  C   UNL     1      -0.519  -2.114  -1.020  0.00  0.00    +0.023 A 
ATOM     37  C   UNL     1      -0.522  -0.733  -1.015  0.00  0.00    +0.005 A 
ENDBRANCH  27  35
ENDBRANCH  26  28
ENDBRANCH  25  26
ENDBRANCH  24  25
ENDBRANCH   1  24
TORSDOF 8
