REMARK  Name = ZINC12430417
REMARK  3 active torsions:
REMARK  status: ('A' for Active; 'I' for Inactive)
REMARK    1  A    between atoms: C_11  and  C_27
REMARK    2  A    between atoms: C_15  and  C_16
REMARK    3  A    between atoms: C_15  and  N_53
REMARK                            x       y       z     vdW  Elec       q    Type
REMARK                         _______ _______ _______ _____ _____    ______ ____
ROOT
ATOM      1  C   UNL     1      -2.202   7.509   7.349  0.00  0.00    +0.001 A 
ATOM      2  C   UNL     1      -3.163   8.448   7.013  0.00  0.00    +0.002 A 
ATOM      3  C   UNL     1      -3.632   8.593   5.719  0.00  0.00    +0.026 A 
ATOM      4  C   UNL     1      -3.094   7.746   4.753  0.00  0.00    +0.047 A 
ATOM      5  C   UNL     1      -2.108   6.786   5.103  0.00  0.00    +0.003 A 
ATOM      6  C   UNL     1      -1.653   6.661   6.420  0.00  0.00    +0.010 A 
ATOM      7  C   UNL     1      -1.777   6.093   3.878  0.00  0.00    -0.022 A 
ATOM      8  C   UNL     1      -2.535   6.632   2.896  0.00  0.00    +0.012 A 
ATOM      9  N   UNL     1      -3.325   7.622   3.413  0.00  0.00    -0.359 N 
ATOM     10  H   UNL     1      -3.955   8.156   2.904  0.00  0.00    +0.166 HD
ATOM     11  C   UNL     1      -2.473   6.168   1.460  0.00  0.00    +0.030 C 
ATOM     12  C   UNL     1      -0.530   4.876   2.140  0.00  0.00    -0.072 C 
ATOM     13  C   UNL     1      -0.791   4.975   3.649  0.00  0.00    +0.019 C 
ATOM     14  N   UNL     1      -1.831   4.832   1.436  0.00  0.00    +0.393 N 
ATOM     15  H   UNL     1      -2.444   4.160   1.913  0.00  0.00    -0.080 HD
ENDROOT
BRANCH  11  16
ATOM     16  C   UNL     1      -3.869   6.049   0.906  0.00  0.00    +0.033 A 
ATOM     17  C   UNL     1      -4.487   7.162   0.367  0.00  0.00    +0.022 A 
ATOM     18  C   UNL     1      -5.769   7.041  -0.146  0.00  0.00    +0.003 A 
ATOM     19  C   UNL     1      -6.389   5.802  -0.087  0.00  0.00    +0.020 A 
ATOM     20  C   UNL     1      -5.711   4.736   0.472  0.00  0.00    +0.111 A 
ATOM     21  N   UNL     1      -4.489   4.886   0.945  0.00  0.00    -0.261 NA
ENDBRANCH  11  16
BRANCH  14  22
ATOM     22  C   UNL     1      -1.634   4.393   0.039  0.00  0.00    -0.023 C 
BRANCH  22  23
ATOM     23  C   UNL     1      -0.745   3.176   0.025  0.00  0.00    +0.010 A 
ATOM     24  C   UNL     1      -1.161   1.894   0.017  0.00  0.00    +0.021 A 
ATOM     25  C   UNL     1      -0.013   1.076   0.008  0.00  0.00    +0.020 A 
ATOM     26  C   UNL     1       1.063   1.887   0.002  0.00  0.00    +0.094 A 
ATOM     27  N   UNL     1       0.622   3.181   0.012  0.00  0.00    -0.291 N 
ATOM     28  C   UNL     1       1.431   4.316   0.011  0.00  0.00    +0.235 A 
ATOM     29  N   UNL     1       0.864   5.513   0.017  0.00  0.00    -0.220 NA
ATOM     30  C   UNL     1       1.602   6.611   0.020  0.00  0.00    +0.116 A 
ATOM     31  C   UNL     1       2.983   6.496   0.007  0.00  0.00    +0.039 A 
ATOM     32  C   UNL     1       3.543   5.228  -0.004  0.00  0.00    +0.116 A 
ATOM     33  N   UNL     1       2.746   4.172  -0.002  0.00  0.00    -0.220 NA
ENDBRANCH  22  23
ENDBRANCH  14  22
TORSDOF 3
