REMARK  Name = ZINC12145340
REMARK  7 active torsions:
REMARK  status: ('A' for Active; 'I' for Inactive)
REMARK    1  A    between atoms: C_1  and  C_2
REMARK    2  A    between atoms: C_13  and  C_14
REMARK    3  A    between atoms: C_13  and  N_50
REMARK    4  A    between atoms: C_17  and  O_26
REMARK    5  A    between atoms: C_18  and  C_20
REMARK    6  A    between atoms: C_20  and  N_21
REMARK    7  A    between atoms: O_26  and  C_27
REMARK                            x       y       z     vdW  Elec       q    Type
REMARK                         _______ _______ _______ _____ _____    ______ ____
ROOT
ATOM      1  C   UNL     1       2.130  -3.483   4.680  0.00  0.00    -0.043 C 
ENDROOT
BRANCH   1  14
ATOM      2  C   UNL     1      -0.918   1.998   9.360  0.00  0.00    +0.086 C 
ATOM      3  C   UNL     1      -0.587   0.916   8.366  0.00  0.00    +0.107 A 
ATOM      4  N   UNL     1      -1.508   0.557   7.450  0.00  0.00    -0.311 N 
ATOM      5  H   UNL     1      -2.373   0.995   7.432  0.00  0.00    +0.170 HD
ATOM      6  C   UNL     1      -1.222  -0.413   6.557  0.00  0.00    +0.253 A 
ATOM      7  O   UNL     1      -2.043  -0.750   5.721  0.00  0.00    -0.268 OA
ATOM      8  C   UNL     1       0.048  -1.031   6.608  0.00  0.00    +0.022 A 
ATOM      9  C   UNL     1       0.934  -0.621   7.550  0.00  0.00    +0.048 A 
ATOM     10  N   UNL     1       0.586   0.346   8.410  0.00  0.00    -0.239 NA
ATOM     11  C   UNL     1       2.310  -1.226   7.661  0.00  0.00    +0.037 C 
ATOM     12  C   UNL     1       2.359  -2.555   6.907  0.00  0.00    -0.072 C 
ATOM     13  C   UNL     1       0.366  -2.121   5.623  0.00  0.00    -0.035 C 
ATOM     14  N   UNL     1       1.824  -2.325   5.551  0.00  0.00    +0.385 N 
ATOM     15  H   UNL     1       2.262  -1.485   5.156  0.00  0.00    -0.081 HD
ENDBRANCH   1  14
BRANCH   1  16
ATOM     16  C   UNL     1       1.359  -3.354   3.392  0.00  0.00    -0.063 A 
ATOM     17  C   UNL     1       0.100  -3.917   3.282  0.00  0.00    +0.005 A 
ATOM     18  C   UNL     1      -0.609  -3.801   2.102  0.00  0.00    +0.046 A 
ATOM     19  C   UNL     1      -0.060  -3.114   1.029  0.00  0.00    +0.125 A 
ATOM     20  C   UNL     1       1.205  -2.554   1.140  0.00  0.00    +0.016 A 
ATOM     21  C   UNL     1       1.910  -2.674   2.322  0.00  0.00    +0.010 A 
BRANCH  19  22
ATOM     22  O   UNL     1      -0.758  -2.993  -0.130  0.00  0.00    -0.495 OA
ATOM     23  C   UNL     1      -2.054  -3.593  -0.173  0.00  0.00    +0.277 C 
ENDBRANCH  19  22
BRANCH  20  24
ATOM     24  C   UNL     1       1.806  -1.812  -0.025  0.00  0.00    +0.182 C 
BRANCH  24  25
ATOM     25  N   UNL     1       1.339  -0.424  -0.013  0.00  0.00    -0.267 N 
ATOM     26  C   UNL     1       2.119   0.677  -0.015  0.00  0.00    +0.108 A 
ATOM     27  C   UNL     1       1.307   1.759  -0.001  0.00  0.00    +0.041 A 
ATOM     28  C   UNL     1      -0.016   1.304   0.009  0.00  0.00    +0.134 A 
ATOM     29  N   UNL     1       0.002  -0.004   0.002  0.00  0.00    -0.179 NA
ENDBRANCH  24  25
ENDBRANCH  20  24
ENDBRANCH   1  16
TORSDOF 5
