REMARK  Name = ZINC15978461
REMARK  10 active torsions:
REMARK  status: ('A' for Active; 'I' for Inactive)
REMARK    1  A    between atoms: C_1  and  C_2
REMARK    2  A    between atoms: C_5  and  S_8
REMARK    3  A    between atoms: S_8  and  N_11
REMARK    4  A    between atoms: C_15  and  C_18
REMARK    5  A    between atoms: N_20  and  N_21
REMARK    6  A    between atoms: N_21  and  C_22
REMARK    7  A    between atoms: C_22  and  C_24
REMARK    8  A    between atoms: C_22  and  C_25
REMARK    9  A    between atoms: N_27  and  C_28
REMARK   10  A    between atoms: C_31  and  N_35
REMARK                            x       y       z     vdW  Elec       q    Type
REMARK                         _______ _______ _______ _____ _____    ______ ____
ROOT
ATOM      1  C   UNL     1      -2.419  -0.258   4.422  0.00  0.00    +0.231 C 
ATOM      2  O   UNL     1      -3.217  -1.076   4.014  0.00  0.00    -0.274 OA
ATOM      3  N   UNL     1      -2.618   0.341   5.612  0.00  0.00    -0.250 N 
ATOM      4  H   UNL     1      -1.981   0.995   5.939  0.00  0.00    +0.169 HD
ENDROOT
BRANCH   1   9
ATOM      5  N   UNL     1       0.030  -0.476   1.570  0.00  0.00    -0.176 NA
ATOM      6  C   UNL     1       1.308  -0.680   2.266  0.00  0.00    +0.109 C 
ATOM      7  C   UNL     1       1.293   0.141   3.565  0.00  0.00    +0.018 C 
ATOM      8  C   UNL     1       0.061  -0.241   4.389  0.00  0.00    +0.015 C 
ATOM      9  C   UNL     1      -1.207   0.088   3.597  0.00  0.00    +0.092 C 
ATOM     10  C   UNL     1      -1.220  -0.727   2.300  0.00  0.00    +0.122 C 
BRANCH   5  11
ATOM     11  S   UNL     1      -0.001   0.022  -0.009  0.00  0.00    +0.061 S 
ATOM     12  O   UNL     1      -1.244  -0.408  -0.546  0.00  0.00    -0.153 OA
ATOM     13  O   UNL     1       1.246  -0.355  -0.578  0.00  0.00    -0.153 OA
BRANCH  11  18
ATOM     14  C   UNL     1      -0.128   6.054   0.021  0.00  0.00    +0.044 C 
ATOM     15  C   UNL     1      -0.096   4.547   0.014  0.00  0.00    -0.050 A 
ATOM     16  C   UNL     1       1.115   3.881  -0.005  0.00  0.00    +0.005 A 
ATOM     17  C   UNL     1       1.144   2.499  -0.011  0.00  0.00    +0.029 A 
ATOM     18  C   UNL     1      -0.038   1.783   0.000  0.00  0.00    +0.105 A 
ATOM     19  C   UNL     1      -1.249   2.449   0.013  0.00  0.00    +0.029 A 
ATOM     20  C   UNL     1      -1.278   3.831   0.025  0.00  0.00    +0.005 A 
ENDBRANCH  11  18
ENDBRANCH   5  11
ENDBRANCH   1   9
BRANCH   3  21
ATOM     21  N   UNL     1      -3.717   0.027   6.360  0.00  0.00    -0.229 NA
ATOM     22  H   UNL     1      -4.566   0.172   5.834  0.00  0.00    +0.145 HD
BRANCH  21  23
ATOM     23  C   UNL     1      -3.737   0.792   7.614  0.00  0.00    +0.155 C 
ATOM     24  C   UNL     1      -2.482   0.470   8.428  0.00  0.00    +0.035 C 
BRANCH  23  25
ATOM     25  C   UNL     1      -3.770   2.266   7.303  0.00  0.00    +0.236 C 
ATOM     26  O   UNL     1      -3.776   2.642   6.150  0.00  0.00    -0.274 OA
ATOM     27  N   UNL     1      -3.792   3.166   8.306  0.00  0.00    -0.283 N 
ATOM     28  H   UNL     1      -3.869   2.866   9.225  0.00  0.00    +0.155 HD
BRANCH  27  29
ATOM     29  C   UNL     1      -3.705   4.534   8.020  0.00  0.00    +0.052 A 
ATOM     30  C   UNL     1      -3.100   4.963   6.847  0.00  0.00    +0.027 A 
ATOM     31  C   UNL     1      -3.019   6.313   6.566  0.00  0.00    +0.034 A 
ATOM     32  C   UNL     1      -3.533   7.238   7.457  0.00  0.00    +0.128 A 
ATOM     33  C   UNL     1      -4.132   6.815   8.629  0.00  0.00    +0.054 A 
ATOM     34  C   UNL     1      -4.220   5.465   8.914  0.00  0.00    +0.064 A 
ATOM     35 CL   UNL     1      -4.973   4.935  10.386  0.00  0.00    -0.082 Cl
BRANCH  32  36
ATOM     36  N   UNL     1      -3.440   8.684   7.155  0.00  0.00    +0.056 N 
ATOM     37  O   UNL     1      -3.892   9.500   7.938  0.00  0.00    -0.126 OA
ATOM     38  O   UNL     1      -2.913   9.058   6.123  0.00  0.00    -0.126 OA
ENDBRANCH  32  36
ENDBRANCH  27  29
ENDBRANCH  23  25
ENDBRANCH  21  23
ENDBRANCH   3  21
TORSDOF 8
