REMARK  Name = ZINC43526601
REMARK  7 active torsions:
REMARK  status: ('A' for Active; 'I' for Inactive)
REMARK    1  A    between atoms: C_1  and  N_2
REMARK    2  A    between atoms: C_3  and  C_17
REMARK    3  A    between atoms: C_5  and  C_7
REMARK    4  A    between atoms: C_26  and  C_28
REMARK    5  A    between atoms: C_28  and  N_29
REMARK    6  A    between atoms: N_29  and  S_30
REMARK    7  A    between atoms: S_30  and  C_33
REMARK                            x       y       z     vdW  Elec       q    Type
REMARK                         _______ _______ _______ _____ _____    ______ ____
ROOT
ATOM      1  C   UNL     1      -2.057   0.405  -0.321  0.00  0.00    +0.172 C 
ATOM      2  N   UNL     1      -0.894  -0.469  -0.144  0.00  0.00    -0.271 N 
ATOM      3  C   UNL     1       0.008  -0.790  -1.096  0.00  0.00    +0.041 A 
ATOM      4  C   UNL     1       0.924  -1.614  -0.541  0.00  0.00    +0.053 A 
ATOM      5  C   UNL     1       0.570  -1.806   0.809  0.00  0.00    +0.093 A 
ATOM      6  N   UNL     1      -0.521  -1.110   1.045  0.00  0.00    -0.171 NA
ENDROOT
BRANCH   5   7
ATOM      7  C   UNL     1       1.303  -2.641   1.793  0.00  0.00    +0.003 A 
ATOM      8  C   UNL     1       2.467  -3.321   1.399  0.00  0.00    +0.011 A 
ATOM      9  C   UNL     1       3.156  -4.091   2.280  0.00  0.00    +0.009 A 
ATOM     10  C   UNL     1       2.705  -4.215   3.607  0.00  0.00    -0.018 A 
ATOM     11  C   UNL     1       3.401  -5.006   4.537  0.00  0.00    +0.008 A 
ATOM     12  C   UNL     1       2.940  -5.106   5.814  0.00  0.00    +0.001 A 
ATOM     13  C   UNL     1       1.786  -4.435   6.216  0.00  0.00    +0.001 A 
ATOM     14  C   UNL     1       1.086  -3.661   5.343  0.00  0.00    +0.008 A 
ATOM     15  C   UNL     1       1.532  -3.533   4.015  0.00  0.00    -0.017 A 
ATOM     16  C   UNL     1       0.838  -2.738   3.090  0.00  0.00    +0.018 A 
ENDBRANCH   5   7
BRANCH   3  17
ATOM     17  C   UNL     1      -0.006  -0.315  -2.526  0.00  0.00    +0.024 C 
ATOM     18  C   UNL     1       1.431  -0.140  -3.022  0.00  0.00    -0.068 C 
ATOM     19  N   UNL     1       1.676  -1.014  -4.171  0.00  0.00    +0.383 N 
ATOM     20  C   UNL     1       1.510  -2.420  -3.794  0.00  0.00    -0.078 C 
ATOM     21  C   UNL     1       0.076  -2.671  -3.324  0.00  0.00    -0.015 C 
ATOM     22  C   UNL     1      -0.713  -1.355  -3.406  0.00  0.00    -0.007 C 
ATOM     23  C   UNL     1      -0.678  -0.862  -4.859  0.00  0.00    -0.010 C 
ATOM     24  C   UNL     1       0.783  -0.670  -5.280  0.00  0.00    -0.053 C 
ATOM     25  H   UNL     1       2.629  -0.883  -4.475  0.00  0.00    -0.081 HD
BRANCH  24  26
ATOM     26  C   UNL     1       1.090  -1.571  -6.478  0.00  0.00    +0.090 C 
BRANCH  26  27
ATOM     27  N   UNL     1       2.512  -1.467  -6.816  0.00  0.00    -0.196 NA
ATOM     28  H   UNL     1       3.044  -0.740  -6.456  0.00  0.00    +0.148 HD
BRANCH  27  29
ATOM     29  S   UNL     1       3.210  -2.590  -7.813  0.00  0.00    +0.026 S 
ATOM     30  O   UNL     1       4.573  -2.199  -7.901  0.00  0.00    -0.158 OA
ATOM     31  O   UNL     1       2.851  -3.845  -7.253  0.00  0.00    -0.158 OA
ATOM     32  C   UNL     1       2.391  -2.363  -9.416  0.00  0.00    +0.214 C 
ENDBRANCH  27  29
ENDBRANCH  26  27
ENDBRANCH  24  26
ENDBRANCH   3  17
TORSDOF 5
