REMARK  Name = ZINC36899738
REMARK  2 active torsions:
REMARK  status: ('A' for Active; 'I' for Inactive)
REMARK    1  A    between atoms: N_10  and  C_11
REMARK    2  A    between atoms: C_11  and  C_12
REMARK                            x       y       z     vdW  Elec       q    Type
REMARK                         _______ _______ _______ _____ _____    ______ ____
ROOT
ATOM      1  C   UNL     1      -0.017   1.383   0.010  0.00  0.00    +0.017 A 
ATOM      2  C   UNL     1       1.164   2.098   0.002  0.00  0.00    +0.029 A 
ATOM      3  C   UNL     1       2.377   1.427  -0.013  0.00  0.00    +0.070 A 
ATOM      4  C   UNL     1       2.402   0.023  -0.021  0.00  0.00    +0.092 A 
ATOM      5  C   UNL     1       1.199  -0.687  -0.013  0.00  0.00    +0.045 A 
ATOM      6  C   UNL     1       0.002  -0.004   0.002  0.00  0.00    +0.020 A 
ATOM      7 BR   UNL     1      -1.627  -0.965   0.013  0.00  0.00    -0.050 Br
ATOM      8  N   UNL     1       3.708  -0.353  -0.036  0.00  0.00    -0.215 NA
ATOM      9  C   UNL     1       4.472   0.710  -0.038  0.00  0.00    +0.194 A 
ATOM     10  N   UNL     1       3.700   1.837  -0.024  0.00  0.00    -0.312 N 
ATOM     11  N   UNL     1       5.851   0.695  -0.051  0.00  0.00    -0.329 N 
ATOM     12  H   UNL     1       6.327  -0.151  -0.061  0.00  0.00    +0.145 HD
ATOM     13  H   UNL     1       6.345   1.529  -0.051  0.00  0.00    +0.145 HD
ENDROOT
BRANCH  10  14
ATOM     14  C   UNL     1       4.183   3.220  -0.022  0.00  0.00    +0.128 C 
BRANCH  14  15
ATOM     15  C   UNL     1       4.364   3.694   1.422  0.00  0.00    +0.009 C 
ATOM     16  C   UNL     1       3.003   3.739   2.119  0.00  0.00    +0.005 C 
ATOM     17  C   UNL     1       3.185   4.213   3.562  0.00  0.00    +0.000 C 
ATOM     18  C   UNL     1       3.806   5.612   3.565  0.00  0.00    +0.000 C 
ATOM     19  C   UNL     1       5.167   5.567   2.868  0.00  0.00    +0.000 C 
ATOM     20  C   UNL     1       4.985   5.093   1.424  0.00  0.00    +0.005 C 
ENDBRANCH  14  15
ENDBRANCH  10  14
TORSDOF 2
