REMARK  Name = ZINC53757418
REMARK  7 active torsions:
REMARK  status: ('A' for Active; 'I' for Inactive)
REMARK    1  A    between atoms: C_1  and  C_2
REMARK    2  A    between atoms: C_2  and  C_3
REMARK    3  A    between atoms: C_2  and  C_10
REMARK    4  A    between atoms: C_2  and  N_18
REMARK    5  A    between atoms: C_3  and  C_4
REMARK    6  A    between atoms: C_13  and  O_16
REMARK    7  A    between atoms: O_16  and  C_17
REMARK                            x       y       z     vdW  Elec       q    Type
REMARK                         _______ _______ _______ _____ _____    ______ ____
ROOT
ATOM      1  C   UNL     1      -0.019   1.526   0.010  0.00  0.00    -0.005 C 
ATOM      2  C   UNL     1       0.002  -0.004   0.002  0.00  0.00    -0.043 C 
ENDROOT
BRANCH   2   3
ATOM      3  C   UNL     1      -1.412  -0.526   0.013  0.00  0.00    -0.059 A 
ATOM      4  C   UNL     1      -2.050  -0.766   1.216  0.00  0.00    +0.006 A 
ATOM      5  C   UNL     1      -3.346  -1.244   1.228  0.00  0.00    +0.046 A 
ATOM      6  C   UNL     1      -4.007  -1.484   0.032  0.00  0.00    +0.120 A 
ATOM      7  C   UNL     1      -3.365  -1.242  -1.173  0.00  0.00    +0.046 A 
ATOM      8  C   UNL     1      -2.071  -0.758  -1.180  0.00  0.00    +0.006 A 
BRANCH   6   9
ATOM      9  O   UNL     1      -5.282  -1.955   0.042  0.00  0.00    -0.495 OA
ATOM     10  C   UNL     1      -5.900  -2.178  -1.227  0.00  0.00    +0.277 C 
ENDBRANCH   6   9
ENDBRANCH   2   3
BRANCH   2  11
ATOM     11  N   UNL     1       0.690  -0.478  -1.207  0.00  0.00    +0.385 N 
ATOM     12  H   UNL     1       1.636  -0.129  -1.214  0.00  0.00    -0.089 HD
ATOM     13  H   UNL     1       0.703  -1.487  -1.212  0.00  0.00    -0.089 HD
ATOM     14  H   UNL     1       0.202  -0.144  -2.024  0.00  0.00    -0.089 HD
ENDBRANCH   2  11
BRANCH   2  15
ATOM     15  C   UNL     1       0.742  -0.511   1.242  0.00  0.00    +0.035 C 
BRANCH  15  16
ATOM     16  C   UNL     1       2.156   0.011   1.231  0.00  0.00    +0.003 A 
ATOM     17  C   UNL     1       2.647   1.157   1.764  0.00  0.00    +0.028 A 
ATOM     18  C   UNL     1       3.995   1.433   1.631  0.00  0.00    +0.023 A 
ATOM     19  C   UNL     1       4.786   0.550   0.972  0.00  0.00    +0.046 A 
ATOM     20  S   UNL     1       3.620  -0.724   0.520  0.00  0.00    -0.101 S 
ATOM     21 BR   UNL     1       1.506   2.358   2.674  0.00  0.00    -0.049 Br
ENDBRANCH  15  16
ENDBRANCH   2  15
TORSDOF 5
