REMARK  Name = ZINC39863203
REMARK  5 active torsions:
REMARK  status: ('A' for Active; 'I' for Inactive)
REMARK    1  A    between atoms: C_1  and  C_2
REMARK    2  A    between atoms: C_6  and  N_8
REMARK    3  A    between atoms: N_10  and  C_23
REMARK    4  A    between atoms: C_14  and  C_15
REMARK    5  A    between atoms: C_18  and  O_21
REMARK                            x       y       z     vdW  Elec       q    Type
REMARK                         _______ _______ _______ _____ _____    ______ ____
ROOT
ATOM      1  N   UNL     1       1.611  -2.801   2.405  0.00  0.00    -0.206 NA
ATOM      2  C   UNL     1       1.416  -2.077   3.486  0.00  0.00    +0.170 C 
ATOM      3  N   UNL     1       1.419  -0.706   3.611  0.00  0.00    -0.249 N 
ATOM      4  C   UNL     1       1.204  -0.134   4.783  0.00  0.00    +0.259 C 
ATOM      5  O   UNL     1       1.204   1.076   4.910  0.00  0.00    -0.269 OA
ATOM      6  C   UNL     1       0.964  -1.030   5.930  0.00  0.00    +0.078 C 
ATOM      7  C   UNL     1       0.718  -0.721   7.229  0.00  0.00    +0.028 C 
ATOM      8  S   UNL     1       1.075  -2.634   5.148  0.00  0.00    -0.049 S 
ATOM      9  C   UNL     1       1.665   0.128   2.432  0.00  0.00    +0.140 C 
ENDROOT
BRANCH   1  15
ATOM     10  C   UNL     1       4.837  -0.886  -0.541  0.00  0.00    +0.065 C 
ATOM     11  C   UNL     1       3.407  -1.255  -0.238  0.00  0.00    +0.041 A 
ATOM     12  C   UNL     1       2.420  -0.969  -1.160  0.00  0.00    +0.023 A 
ATOM     13  C   UNL     1       1.102  -1.310  -0.879  0.00  0.00    +0.005 A 
ATOM     14  C   UNL     1       0.823  -1.930   0.324  0.00  0.00    +0.048 A 
ATOM     15  C   UNL     1       1.870  -2.191   1.213  0.00  0.00    +0.155 A 
ATOM     16  N   UNL     1       3.118  -1.852   0.902  0.00  0.00    -0.233 NA
ENDBRANCH   1  15
BRANCH   7  17
ATOM     17  C   UNL     1       0.670  -1.784   8.241  0.00  0.00    -0.024 A 
ATOM     18  C   UNL     1       1.129  -3.070   7.931  0.00  0.00    +0.011 A 
ATOM     19  C   UNL     1       1.082  -4.062   8.884  0.00  0.00    +0.046 A 
ATOM     20  C   UNL     1       0.580  -3.790  10.151  0.00  0.00    +0.117 A 
ATOM     21  C   UNL     1       0.122  -2.515  10.464  0.00  0.00    +0.046 A 
ATOM     22  C   UNL     1       0.170  -1.513   9.521  0.00  0.00    +0.011 A 
BRANCH  20  23
ATOM     23  O   UNL     1       0.536  -4.773  11.087  0.00  0.00    -0.507 OA
ATOM     24  H   UNL     1       1.333  -4.834  11.631  0.00  0.00    +0.292 HD
ENDBRANCH  20  23
ENDBRANCH   7  17
TORSDOF 3
