REMARK  Name = ZINC55036103
REMARK  4 active torsions:
REMARK  status: ('A' for Active; 'I' for Inactive)
REMARK    1  A    between atoms: C_1  and  N_2
REMARK    2  A    between atoms: N_2  and  C_3
REMARK    3  A    between atoms: C_3  and  C_4
REMARK    4  A    between atoms: C_19  and  C_22
REMARK                            x       y       z     vdW  Elec       q    Type
REMARK                         _______ _______ _______ _____ _____    ______ ____
ROOT
ATOM      1  C   UNL     1      -0.018   1.461   0.010  0.00  0.00    +0.133 C 
ATOM      2  N   UNL     1       0.002  -0.004   0.002  0.00  0.00    -0.285 N 
ATOM      3  C   UNL     1       0.000  -0.672  -1.169  0.00  0.00    +0.308 C 
ATOM      4  O   UNL     1       0.017  -1.887  -1.175  0.00  0.00    -0.252 OA
ATOM      5  N   UNL     1      -0.020   0.009  -2.332  0.00  0.00    -0.247 N 
ATOM      6  C   UNL     1      -0.022  -0.679  -3.538  0.00  0.00    +0.186 A 
ATOM      7  N   UNL     1      -0.035  -0.191  -4.765  0.00  0.00    -0.204 NA
ATOM      8  C   UNL     1      -0.034  -1.053  -5.767  0.00  0.00    +0.170 A 
ATOM      9  N   UNL     1      -0.021  -2.337  -5.475  0.00  0.00    -0.187 NA
ATOM     10  S   UNL     1      -0.002  -2.338  -3.799  0.00  0.00    +0.050 S 
ATOM     11  H   UNL     1      -0.033   0.978  -2.327  0.00  0.00    +0.158 HD
ENDROOT
BRANCH   8  12
ATOM     12  C   UNL     1      -0.049  -0.588  -7.176  0.00  0.00    +0.020 A 
ATOM     13  C   UNL     1      -0.058   0.776  -7.462  0.00  0.00    +0.011 A 
ATOM     14  C   UNL     1      -0.071   1.203  -8.775  0.00  0.00    +0.001 A 
ATOM     15  C   UNL     1      -0.076   0.280  -9.805  0.00  0.00    +0.000 A 
ATOM     16  C   UNL     1      -0.067  -1.075  -9.527  0.00  0.00    +0.001 A 
ATOM     17  C   UNL     1      -0.048  -1.513  -8.218  0.00  0.00    +0.011 A 
ENDBRANCH   8  12
BRANCH   2  18
ATOM     18  C   UNL     1       0.024  -0.743   1.267  0.00  0.00    +0.153 C 
BRANCH  18  19
ATOM     19  C   UNL     1      -1.411  -1.020   1.720  0.00  0.00    +0.195 C 
ATOM     20  C   UNL     1      -1.423  -1.746   3.087  0.00  0.00    +0.085 C 
ATOM     21  C   UNL     1      -2.600  -2.690   2.930  0.00  0.00    -0.002 A 
ATOM     22  C   UNL     1      -3.329  -3.418   3.843  0.00  0.00    +0.007 A 
ATOM     23  C   UNL     1      -4.380  -4.210   3.415  0.00  0.00    +0.000 A 
ATOM     24  C   UNL     1      -4.693  -4.266   2.070  0.00  0.00    +0.004 A 
ATOM     25  C   UNL     1      -3.962  -3.541   1.153  0.00  0.00    +0.046 A 
ATOM     26  C   UNL     1      -2.900  -2.744   1.575  0.00  0.00    +0.124 A 
ATOM     27  O   UNL     1      -2.047  -1.968   0.846  0.00  0.00    -0.487 OA
ENDBRANCH  18  19
ENDBRANCH   2  18
TORSDOF 3
