REMARK  Name = ZINC05178770
REMARK  11 active torsions:
REMARK  status: ('A' for Active; 'I' for Inactive)
REMARK    1  A    between atoms: C_1  and  C_2
REMARK    2  A    between atoms: C_2  and  N_3
REMARK    3  A    between atoms: N_3  and  C_4
REMARK    4  A    between atoms: N_3  and  C_6
REMARK    5  A    between atoms: C_4  and  C_5
REMARK    6  A    between atoms: C_9  and  C_12
REMARK    7  A    between atoms: C_15  and  C_26
REMARK    8  A    between atoms: C_21  and  N_25
REMARK    9  A    between atoms: C_22  and  C_23
REMARK   10  A    between atoms: C_30  and  O_32
REMARK   11  A    between atoms: O_32  and  C_33
REMARK                            x       y       z     vdW  Elec       q    Type
REMARK                         _______ _______ _______ _____ _____    ______ ____
ROOT
ATOM      1  C   UNL     1      -0.262  -6.032  -1.524  0.00  0.00    +0.102 C 
ATOM      2  C   UNL     1       0.504  -6.519  -2.727  0.00  0.00    +0.054 A 
ATOM      3  C   UNL     1       1.840  -6.668  -2.897  0.00  0.00    +0.074 A 
ATOM      4  N   UNL     1       2.037  -7.139  -4.164  0.00  0.00    -0.273 N 
ATOM      5  N   UNL     1       0.779  -7.278  -4.772  0.00  0.00    -0.135 NA
ATOM      6  H   UNL     1       2.893  -7.342  -4.571  0.00  0.00    +0.189 HD
ATOM      7  C   UNL     1      -0.134  -6.910  -3.920  0.00  0.00    +0.245 A 
ATOM      8  O   UNL     1      -1.488  -6.875  -4.057  0.00  0.00    -0.421 OA
ATOM      9  C   UNL     1      -2.222  -6.715  -2.939  0.00  0.00    +0.201 C 
ATOM     10  C   UNL     1      -1.723  -6.332  -1.744  0.00  0.00    +0.098 C 
ENDROOT
BRANCH   1  14
ATOM     11  C   UNL     1       0.293  -1.820  -1.073  0.00  0.00    +0.013 A 
ATOM     12  C   UNL     1       0.663  -2.679  -0.055  0.00  0.00    +0.022 A 
ATOM     13  C   UNL     1       0.484  -4.042  -0.201  0.00  0.00    +0.006 A 
ATOM     14  C   UNL     1      -0.067  -4.546  -1.364  0.00  0.00    -0.034 A 
ATOM     15  C   UNL     1      -0.439  -3.687  -2.382  0.00  0.00    +0.006 A 
ATOM     16  C   UNL     1      -0.263  -2.323  -2.234  0.00  0.00    +0.022 A 
BRANCH  11  17
ATOM     17  N   UNL     1       0.474  -0.442  -0.925  0.00  0.00    -0.394 NA
ATOM     18  H   UNL     1       0.148   0.031  -1.754  0.00  0.00    +0.126 HD
BRANCH  17  20
ATOM     19  C   UNL     1      -1.784  -0.128  -0.031  0.00  0.00    +0.022 C 
ATOM     20  C   UNL     1      -0.286   0.030   0.240  0.00  0.00    +0.081 C 
ENDBRANCH  17  20
BRANCH  17  21
ATOM     21  C   UNL     1       1.901  -0.155  -0.727  0.00  0.00    +0.081 C 
ATOM     22  C   UNL     1       2.677  -0.529  -1.991  0.00  0.00    +0.022 C 
ENDBRANCH  17  21
ENDBRANCH  11  17
ENDBRANCH   1  14
BRANCH   3  23
ATOM     23  C   UNL     1       2.890  -6.374  -1.896  0.00  0.00    +0.004 A 
ATOM     24  C   UNL     1       2.764  -6.846  -0.590  0.00  0.00    +0.010 A 
ATOM     25  C   UNL     1       3.745  -6.571   0.341  0.00  0.00    +0.004 A 
ATOM     26  C   UNL     1       4.855  -5.828  -0.018  0.00  0.00    +0.045 A 
ATOM     27  C   UNL     1       4.989  -5.354  -1.315  0.00  0.00    +0.121 A 
ATOM     28  C   UNL     1       4.012  -5.629  -2.258  0.00  0.00    +0.055 A 
BRANCH  27  29
ATOM     29  O   UNL     1       6.081  -4.623  -1.662  0.00  0.00    -0.495 OA
ATOM     30  C   UNL     1       7.051  -4.382  -0.641  0.00  0.00    +0.277 C 
ENDBRANCH  27  29
ENDBRANCH   3  23
BRANCH   9  31
ATOM     31  N   UNL     1      -3.571  -6.957  -3.020  0.00  0.00    -0.328 N 
ATOM     32  H   UNL     1      -3.964  -7.233  -3.862  0.00  0.00    +0.145 HD
ATOM     33  H   UNL     1      -4.130  -6.852  -2.235  0.00  0.00    +0.145 HD
ENDBRANCH   9  31
BRANCH  10  34
ATOM     34  C   UNL     1      -2.621  -6.207  -0.635  0.00  0.00    +0.101 C 
ATOM     35  N   UNL     1      -3.333  -6.107   0.244  0.00  0.00    -0.191 NA
ENDBRANCH  10  34
TORSDOF 8
