REMARK  Name = ZINC01434415
REMARK  4 active torsions:
REMARK  status: ('A' for Active; 'I' for Inactive)
REMARK    1  A    between atoms: C_3  and  C_9
REMARK    2  A    between atoms: C_4  and  O_8
REMARK    3  A    between atoms: N_10  and  C_11
REMARK    4  A    between atoms: C_14  and  C_17
REMARK                            x       y       z     vdW  Elec       q    Type
REMARK                         _______ _______ _______ _____ _____    ______ ____
ROOT
ATOM      1  C   UNL     1       5.961   2.233  -0.044  0.00  0.00    +0.064 A 
ATOM      2  C   UNL     1       6.112   3.335  -0.892  0.00  0.00    +0.028 A 
ATOM      3  C   UNL     1       7.285   4.035  -0.900  0.00  0.00    +0.015 A 
ATOM      4  C   UNL     1       8.335   3.650  -0.060  0.00  0.00    +0.037 A 
ATOM      5  C   UNL     1       8.184   2.549   0.788  0.00  0.00    +0.015 A 
ATOM      6  C   UNL     1       7.009   1.852   0.801  0.00  0.00    +0.028 A 
ENDROOT
BRANCH   4   7
ATOM      7  C   UNL     1       9.602   4.406  -0.069  0.00  0.00    +0.228 A 
ATOM      8  N   UNL     1       9.847   5.452  -0.818  0.00  0.00    -0.209 NA
ATOM      9  C   UNL     1      11.108   5.886  -0.562  0.00  0.00    +0.111 A 
ATOM     10  C   UNL     1      11.885   6.938  -1.056  0.00  0.00    +0.051 A 
ATOM     11  C   UNL     1      13.166   7.121  -0.584  0.00  0.00    +0.043 A 
ATOM     12  C   UNL     1      13.688   6.268   0.379  0.00  0.00    +0.024 A 
ATOM     13  C   UNL     1      12.933   5.226   0.875  0.00  0.00    +0.050 A 
ATOM     14  C   UNL     1      11.641   5.026   0.411  0.00  0.00    +0.156 A 
ATOM     15  O   UNL     1      10.675   4.124   0.695  0.00  0.00    -0.435 OA
ATOM     16 CL   UNL     1      14.132   8.427  -1.196  0.00  0.00    -0.083 Cl
ENDBRANCH   4   7
BRANCH   1  18
ATOM     17  C   UNL     1       3.649   2.169  -0.022  0.00  0.00    +0.123 C 
ATOM     18  N   UNL     1       4.788   1.533  -0.036  0.00  0.00    -0.255 NA
BRANCH  17  21
ATOM     19  C   UNL     1      -0.017   1.381   0.010  0.00  0.00    +0.004 A 
ATOM     20  C   UNL     1       1.163   2.093   0.002  0.00  0.00    +0.013 A 
ATOM     21  C   UNL     1       2.387   1.415  -0.013  0.00  0.00    +0.037 A 
ATOM     22  C   UNL     1       2.402   0.012  -0.021  0.00  0.00    +0.161 A 
ATOM     23  C   UNL     1       1.204  -0.688  -0.013  0.00  0.00    +0.165 A 
ATOM     24  C   UNL     1       0.002  -0.004   0.002  0.00  0.00    +0.042 A 
ATOM     25  F   UNL     1       1.212  -2.039  -0.021  0.00  0.00    -0.202 F 
BRANCH  22  26
ATOM     26  O   UNL     1       3.584  -0.657  -0.036  0.00  0.00    -0.503 OA
ATOM     27  H   UNL     1       3.935  -0.855   0.843  0.00  0.00    +0.292 HD
ENDBRANCH  22  26
ENDBRANCH  17  21
ENDBRANCH   1  18
TORSDOF 4
