REMARK  Name = ZINC60510990
REMARK  6 active torsions:
REMARK  status: ('A' for Active; 'I' for Inactive)
REMARK    1  A    between atoms: C_1  and  C_2
REMARK    2  A    between atoms: C_2  and  N_3
REMARK    3  A    between atoms: C_7  and  N_9
REMARK    4  A    between atoms: N_9  and  S_10
REMARK    5  A    between atoms: S_10  and  C_13
REMARK    6  A    between atoms: C_16  and  N_19
REMARK                            x       y       z     vdW  Elec       q    Type
REMARK                         _______ _______ _______ _____ _____    ______ ____
ROOT
ATOM      1  S   UNL     1      -3.898  -4.745   1.250  0.00  0.00    +0.059 S 
ATOM      2  O   UNL     1      -3.629  -6.135   1.134  0.00  0.00    -0.153 OA
ATOM      3  O   UNL     1      -3.932  -4.076   2.503  0.00  0.00    -0.153 OA
ENDROOT
BRANCH   1   4
ATOM      4  C   UNL     1      -5.465  -4.470   0.491  0.00  0.00    +0.105 A 
ATOM      5  C   UNL     1      -6.222  -3.370   0.847  0.00  0.00    +0.031 A 
ATOM      6  C   UNL     1      -7.451  -3.155   0.252  0.00  0.00    +0.034 A 
ATOM      7  C   UNL     1      -7.923  -4.040  -0.700  0.00  0.00    +0.126 A 
ATOM      8  C   UNL     1      -7.165  -5.139  -1.057  0.00  0.00    +0.034 A 
ATOM      9  C   UNL     1      -5.934  -5.352  -0.465  0.00  0.00    +0.031 A 
BRANCH   7  10
ATOM     10  N   UNL     1      -9.239  -3.810  -1.336  0.00  0.00    +0.056 N 
ATOM     11  O   UNL     1      -9.902  -2.848  -1.024  0.00  0.00    -0.126 OA
ATOM     12  O   UNL     1      -9.651  -4.584  -2.169  0.00  0.00    -0.126 OA
ENDBRANCH   7  10
ENDBRANCH   1   4
BRANCH   1  13
ATOM     13  N   UNL     1      -2.765  -3.965   0.328  0.00  0.00    -0.189 NA
ATOM     14  H   UNL     1      -2.085  -4.476  -0.139  0.00  0.00    +0.148 HD
BRANCH  13  19
ATOM     15  N   UNL     1      -1.376  -0.512   0.012  0.00  0.00    +0.381 N 
ATOM     16  C   UNL     1      -2.051  -0.118  -1.230  0.00  0.00    -0.079 C 
ATOM     17  C   UNL     1      -3.511  -0.575  -1.189  0.00  0.00    -0.017 C 
ATOM     18  C   UNL     1      -3.559  -2.099  -1.042  0.00  0.00    +0.017 C 
ATOM     19  C   UNL     1      -2.788  -2.505   0.218  0.00  0.00    +0.060 C 
ATOM     20  C   UNL     1      -1.355  -1.976   0.125  0.00  0.00    -0.058 C 
ATOM     21  H   UNL     1      -1.871  -0.123   0.800  0.00  0.00    -0.082 HD
BRANCH  15  23
ATOM     22  C   UNL     1      -0.019   1.526   0.010  0.00  0.00    -0.017 C 
ATOM     23  C   UNL     1       0.002  -0.004   0.002  0.00  0.00    -0.082 C 
ENDBRANCH  15  23
ENDBRANCH  13  19
ENDBRANCH   1  13
TORSDOF 5
