REMARK  Name = ZINC65119339
REMARK  6 active torsions:
REMARK  status: ('A' for Active; 'I' for Inactive)
REMARK    1  A    between atoms: C_1  and  C_2
REMARK    2  A    between atoms: C_5  and  N_9
REMARK    3  A    between atoms: C_6  and  C_8
REMARK    4  A    between atoms: N_9  and  S_10
REMARK    5  A    between atoms: S_10  and  C_13
REMARK    6  A    between atoms: C_15  and  C_18
REMARK                            x       y       z     vdW  Elec       q    Type
REMARK                         _______ _______ _______ _____ _____    ______ ____
ROOT
ATOM      1  C   UNL     1       0.087  -6.708  -1.079  0.00  0.00    +0.148 A 
ATOM      2  C   UNL     1      -0.954  -7.551  -0.895  0.00  0.00    +0.046 A 
ATOM      3  C   UNL     1      -0.697  -8.886  -0.599  0.00  0.00    +0.011 A 
ATOM      4  C   UNL     1       0.605  -9.294  -0.504  0.00  0.00    +0.057 A 
ATOM      5  S   UNL     1       1.492  -7.783  -0.844  0.00  0.00    -0.076 S 
ENDROOT
BRANCH   3   6
ATOM      6  C   UNL     1      -1.809  -9.845  -0.390  0.00  0.00    +0.092 A 
ATOM      7  C   UNL     1      -1.526 -11.198  -0.089  0.00  0.00    +0.035 A 
ATOM      8  C   UNL     1      -2.574 -12.050   0.096  0.00  0.00    +0.073 A 
ATOM      9  C   UNL     1      -3.881 -11.528  -0.023  0.00  0.00    +0.265 A 
ATOM     10  O   UNL     1      -4.850 -12.253   0.135  0.00  0.00    -0.266 OA
ATOM     11  N   UNL     1      -4.050 -10.224  -0.313  0.00  0.00    -0.243 N 
ATOM     12  N   UNL     1      -3.052  -9.433  -0.479  0.00  0.00    -0.171 NA
ATOM     13  H   UNL     1      -4.950  -9.871  -0.394  0.00  0.00    +0.192 HD
ENDBRANCH   3   6
BRANCH   1  14
ATOM     14  S   UNL     1       0.062  -4.987  -1.460  0.00  0.00    +0.098 S 
ATOM     15  O   UNL     1      -1.190  -4.727  -2.079  0.00  0.00    -0.148 OA
ATOM     16  O   UNL     1       1.300  -4.694  -2.091  0.00  0.00    -0.148 OA
BRANCH  14  17
ATOM     17  N   UNL     1       0.058  -4.167  -0.021  0.00  0.00    -0.097 NA
BRANCH  17  22
ATOM     18  C   UNL     1      -0.018   1.503   0.010  0.00  0.00    +0.044 C 
ATOM     19  C   UNL     1       0.002  -0.004   0.002  0.00  0.00    -0.050 A 
ATOM     20  C   UNL     1       0.006  -0.687  -1.200  0.00  0.00    +0.005 A 
ATOM     21  C   UNL     1       0.024  -2.068  -1.212  0.00  0.00    +0.027 A 
ATOM     22  C   UNL     1       0.040  -2.771  -0.013  0.00  0.00    +0.077 A 
ATOM     23  C   UNL     1       0.036  -2.081   1.192  0.00  0.00    -0.026 A 
ATOM     24  C   UNL     1       0.023  -0.700   1.196  0.00  0.00    +0.008 A 
ATOM     25  C   UNL     1       0.052  -2.839   2.495  0.00  0.00    +0.046 C 
ENDBRANCH  17  22
ENDBRANCH  14  17
ENDBRANCH   1  14
TORSDOF 4
