REMARK  Name = ZINC37984925
REMARK  10 active torsions:
REMARK  status: ('A' for Active; 'I' for Inactive)
REMARK    1  A    between atoms: C_1  and  C_2
REMARK    2  A    between atoms: C_2  and  C_3
REMARK    3  A    between atoms: C_9  and  O_11
REMARK    4  A    between atoms: O_11  and  C_12
REMARK    5  A    between atoms: C_12  and  C_13
REMARK    6  A    between atoms: C_13  and  C_15
REMARK    7  A    between atoms: C_13  and  O_24
REMARK    8  A    between atoms: C_15  and  N_16
REMARK    9  A    between atoms: N_16  and  C_17
REMARK   10  A    between atoms: C_17  and  C_18
REMARK                            x       y       z     vdW  Elec       q    Type
REMARK                         _______ _______ _______ _____ _____    ______ ____
ROOT
ATOM      1  C   UNL     1       0.525  -3.965  -2.670  0.00  0.00    +0.123 C 
ENDROOT
BRANCH   1   2
ATOM      2  O   UNL     1      -0.501  -4.116  -3.654  0.00  0.00    -0.391 OA
ATOM      3  H   UNL     1      -1.118  -4.838  -3.470  0.00  0.00    +0.210 HD
ENDBRANCH   1   2
BRANCH   1   4
ATOM      4  C   UNL     1      -0.112  -3.681  -1.308  0.00  0.00    +0.189 C 
BRANCH   4   5
ATOM      5  O   UNL     1      -0.783  -2.420  -1.350  0.00  0.00    -0.374 OA
BRANCH   5  11
ATOM      6  C   UNL     1      -1.433  -0.534   0.013  0.00  0.00    +0.018 C 
ATOM      7  C   UNL     1      -2.110  -0.145   1.329  0.00  0.00    +0.006 C 
ATOM      8  C   UNL     1      -3.546  -0.675   1.340  0.00  0.00    +0.000 C 
ATOM      9  C   UNL     1      -3.528  -2.199   1.206  0.00  0.00    +0.003 C 
ATOM     10  C   UNL     1      -2.851  -2.587  -0.110  0.00  0.00    +0.032 C 
ATOM     11  C   UNL     1      -1.416  -2.058  -0.121  0.00  0.00    +0.121 C 
BRANCH   6  13
ATOM     12  C   UNL     1      -0.019   1.526   0.010  0.00  0.00    +0.004 C 
ATOM     13  C   UNL     1       0.002  -0.004   0.002  0.00  0.00    +0.003 C 
ENDBRANCH   6  13
ENDBRANCH   5  11
ENDBRANCH   4   5
ENDBRANCH   1   4
BRANCH   1  14
ATOM     14  C   UNL     1       1.348  -5.253  -2.590  0.00  0.00    -0.048 C 
BRANCH  14  15
ATOM     15  N   UNL     1       2.055  -5.462  -3.861  0.00  0.00    +0.384 N 
ATOM     16  H   UNL     1       1.384  -5.538  -4.611  0.00  0.00    -0.085 HD
ATOM     17  H   UNL     1       2.669  -4.681  -4.037  0.00  0.00    -0.085 HD
BRANCH  15  18
ATOM     18  C   UNL     1       2.845  -6.698  -3.784  0.00  0.00    -0.039 C 
BRANCH  18  19
ATOM     19  C   UNL     1       3.570  -6.912  -5.087  0.00  0.00    -0.026 A 
ATOM     20  C   UNL     1       4.804  -6.491  -5.457  0.00  0.00    +0.010 A 
ATOM     21  C   UNL     1       5.271  -6.809  -6.718  0.00  0.00    +0.023 A 
ATOM     22  C   UNL     1       4.481  -7.533  -7.549  0.00  0.00    +0.055 A 
ATOM     23  S   UNL     1       3.030  -7.795  -6.542  0.00  0.00    -0.088 S 
ATOM     24 BR   UNL     1       4.828  -8.120  -9.313  0.00  0.00    -0.043 Br
ENDBRANCH  18  19
ENDBRANCH  15  18
ENDBRANCH  14  15
ENDBRANCH   1  14
TORSDOF 9
