REMARK  Name = ZINC32834306
REMARK  5 active torsions:
REMARK  status: ('A' for Active; 'I' for Inactive)
REMARK    1  A    between atoms: C_4  and  C_7
REMARK    2  A    between atoms: C_7  and  N_8
REMARK    3  A    between atoms: N_17  and  C_30
REMARK    4  A    between atoms: C_18  and  C_20
REMARK    5  A    between atoms: C_30  and  C_31
REMARK                            x       y       z     vdW  Elec       q    Type
REMARK                         _______ _______ _______ _____ _____    ______ ____
ROOT
ATOM      1  N   UNL     1       4.181  -1.187   1.653  0.00  0.00    -0.272 N 
ATOM      2  C   UNL     1       4.951  -0.135   2.124  0.00  0.00    +0.169 A 
ATOM      3  C   UNL     1       5.406  -0.173   3.438  0.00  0.00    +0.152 A 
ATOM      4  C   UNL     1       5.073  -1.279   4.249  0.00  0.00    +0.280 A 
ATOM      5  O   UNL     1       5.460  -1.335   5.403  0.00  0.00    -0.265 OA
ATOM      6  N   UNL     1       4.320  -2.272   3.732  0.00  0.00    -0.273 N 
ATOM      7  H   UNL     1       4.089  -3.034   4.287  0.00  0.00    +0.173 HD
ATOM      8  C   UNL     1       3.881  -2.220   2.463  0.00  0.00    +0.331 A 
ATOM      9  O   UNL     1       3.201  -3.132   2.034  0.00  0.00    -0.246 OA
ATOM     10  N   UNL     1       6.135   0.984   3.634  0.00  0.00    -0.316 N 
ATOM     11  C   UNL     1       6.101   1.674   2.461  0.00  0.00    +0.144 A 
ATOM     12  N   UNL     1       5.394   0.996   1.577  0.00  0.00    -0.209 NA
ENDROOT
BRANCH  11  13
ATOM     13  C   UNL     1       6.753   2.977   2.216  0.00  0.00    +0.018 A 
ATOM     14  C   UNL     1       7.822   3.387   3.033  0.00  0.00    +0.012 A 
ATOM     15  C   UNL     1       8.437   4.580   2.828  0.00  0.00    +0.009 A 
ATOM     16  C   UNL     1       8.006   5.424   1.788  0.00  0.00    -0.018 A 
ATOM     17  C   UNL     1       8.627   6.663   1.557  0.00  0.00    +0.008 A 
ATOM     18  C   UNL     1       8.188   7.459   0.543  0.00  0.00    +0.001 A 
ATOM     19  C   UNL     1       7.129   7.064  -0.273  0.00  0.00    +0.001 A 
ATOM     20  C   UNL     1       6.503   5.872  -0.079  0.00  0.00    +0.008 A 
ATOM     21  C   UNL     1       6.929   5.022   0.958  0.00  0.00    -0.017 A 
ATOM     22  C   UNL     1       6.309   3.784   1.181  0.00  0.00    +0.020 A 
ENDBRANCH  11  13
BRANCH   1  23
ATOM     23  C   UNL     1       3.688  -1.173   0.274  0.00  0.00    +0.163 C 
BRANCH  23  27
ATOM     24  C   UNL     1      -0.122   0.756   0.142  0.00  0.00    +0.000 A 
ATOM     25  C   UNL     1       1.034   1.497  -0.017  0.00  0.00    +0.000 A 
ATOM     26  C   UNL     1       2.267   0.873   0.026  0.00  0.00    +0.005 A 
ATOM     27  C   UNL     1       2.344  -0.492   0.228  0.00  0.00    -0.028 A 
ATOM     28  C   UNL     1       1.188  -1.233   0.389  0.00  0.00    +0.005 A 
ATOM     29  C   UNL     1      -0.045  -0.609   0.344  0.00  0.00    +0.000 A 
ENDBRANCH  23  27
ENDBRANCH   1  23
BRANCH  10  30
ATOM     30  C   UNL     1       6.814   1.390   4.867  0.00  0.00    +0.155 C 
BRANCH  30  31
ATOM     31  C   UNL     1       8.217   0.781   4.902  0.00  0.00    +0.138 C 
ATOM     32  C   UNL     1       8.986   1.272   6.154  0.00  0.00    +0.035 C 
ATOM     33  C   UNL     1      10.010   0.120   6.342  0.00  0.00    +0.031 C 
ATOM     34  C   UNL     1       9.204  -1.113   5.880  0.00  0.00    +0.160 C 
ATOM     35  O   UNL     1       8.138  -0.646   5.043  0.00  0.00    -0.375 OA
ENDBRANCH  30  31
ENDBRANCH  10  30
TORSDOF 5
