REMARK  Name = ZINC17086781
REMARK  7 active torsions:
REMARK  status: ('A' for Active; 'I' for Inactive)
REMARK    1  A    between atoms: C_1  and  C_2
REMARK    2  A    between atoms: C_6  and  O_8
REMARK    3  A    between atoms: O_8  and  C_9
REMARK    4  A    between atoms: C_9  and  C_10
REMARK    5  A    between atoms: C_10  and  N_11
REMARK    6  A    between atoms: C_18  and  C_21
REMARK    7  A    between atoms: C_18  and  O_31
REMARK                            x       y       z     vdW  Elec       q    Type
REMARK                         _______ _______ _______ _____ _____    ______ ____
ROOT
ATOM      1  N   UNL     1      -0.545   7.775  -1.202  0.00  0.00    -0.265 N 
ATOM      2  C   UNL     1      -1.261   8.125  -2.348  0.00  0.00    +0.043 A 
ATOM      3  C   UNL     1      -2.633   8.165  -2.589  0.00  0.00    +0.024 A 
ATOM      4  C   UNL     1      -3.108   8.551  -3.825  0.00  0.00    +0.002 A 
ATOM      5  C   UNL     1      -2.229   8.902  -4.833  0.00  0.00    +0.000 A 
ATOM      6  C   UNL     1      -0.866   8.865  -4.602  0.00  0.00    +0.009 A 
ATOM      7  C   UNL     1      -0.389   8.480  -3.369  0.00  0.00    +0.019 A 
ATOM      8  C   UNL     1       1.006   8.336  -2.806  0.00  0.00    +0.196 C 
ATOM      9  C   UNL     1       0.782   7.875  -1.381  0.00  0.00    +0.261 C 
ATOM     10  O   UNL     1       1.641   7.638  -0.557  0.00  0.00    -0.271 OA
ENDROOT
BRANCH   8  11
ATOM     11  C   UNL     1       1.786   7.307  -3.582  0.00  0.00    +0.022 A 
ATOM     12  C   UNL     1       2.927   7.513  -4.260  0.00  0.00    +0.091 A 
ATOM     13  N   UNL     1       3.344   6.345  -4.837  0.00  0.00    -0.360 N 
ATOM     14  H   UNL     1       4.145   6.244  -5.375  0.00  0.00    +0.165 HD
ATOM     15  C   UNL     1       2.455   5.335  -4.545  0.00  0.00    +0.047 A 
ATOM     16  C   UNL     1       1.441   5.893  -3.746  0.00  0.00    +0.006 A 
ATOM     17  C   UNL     1       0.390   5.092  -3.294  0.00  0.00    +0.010 A 
ATOM     18  C   UNL     1       0.353   3.768  -3.631  0.00  0.00    +0.001 A 
ATOM     19  C   UNL     1       1.351   3.213  -4.419  0.00  0.00    +0.002 A 
ATOM     20  C   UNL     1       2.397   3.985  -4.876  0.00  0.00    +0.026 A 
ENDBRANCH   8  11
BRANCH   8  21
ATOM     21  O   UNL     1       1.685   9.594  -2.822  0.00  0.00    -0.371 OA
ATOM     22  H   UNL     1       2.585   9.560  -2.471  0.00  0.00    +0.212 HD
ENDBRANCH   8  21
BRANCH   1  23
ATOM     23  C   UNL     1      -1.171   7.351   0.053  0.00  0.00    +0.154 C 
BRANCH  23  24
ATOM     24  C   UNL     1      -1.350   5.832   0.047  0.00  0.00    +0.248 C 
BRANCH  24  25
ATOM     25  O   UNL     1      -0.069   5.201   0.031  0.00  0.00    -0.490 OA
BRANCH  25  31
ATOM     26  C   UNL     1       2.490   1.045  -0.016  0.00  0.00    +0.044 C 
ATOM     27  C   UNL     1       1.176   1.782   0.000  0.00  0.00    -0.047 A 
ATOM     28  C   UNL     1      -0.013   1.076   0.008  0.00  0.00    +0.003 A 
ATOM     29  C   UNL     1      -1.220   1.750   0.017  0.00  0.00    +0.004 A 
ATOM     30  C   UNL     1      -1.241   3.131   0.031  0.00  0.00    +0.045 A 
ATOM     31  C   UNL     1      -0.050   3.842   0.024  0.00  0.00    +0.121 A 
ATOM     32  C   UNL     1       1.160   3.163   0.008  0.00  0.00    +0.049 A 
ENDBRANCH  25  31
ENDBRANCH  24  25
ENDBRANCH  23  24
ENDBRANCH   1  23
TORSDOF 6
