REMARK  Name = ZINC32917798
REMARK  3 active torsions:
REMARK  status: ('A' for Active; 'I' for Inactive)
REMARK    1  A    between atoms: C_6  and  S_7
REMARK    2  A    between atoms: S_7  and  N_10
REMARK    3  A    between atoms: C_13  and  C_16
REMARK                            x       y       z     vdW  Elec       q    Type
REMARK                         _______ _______ _______ _____ _____    ______ ____
ROOT
ATOM      1  C   UNL     1      -2.441   1.334   0.007  0.00  0.00    +0.030 A 
ATOM      2  C   UNL     1      -1.258   2.033   0.017  0.00  0.00    +0.025 A 
ATOM      3  C   UNL     1      -0.017   1.374   0.010  0.00  0.00    +0.037 A 
ATOM      4  C   UNL     1       0.002  -0.004   0.002  0.00  0.00    -0.024 A 
ATOM      5  C   UNL     1      -1.205  -0.703  -0.012  0.00  0.00    +0.034 A 
ATOM      6  C   UNL     1      -2.416  -0.049  -0.010  0.00  0.00    +0.106 A 
ATOM      7  C   UNL     1       1.234  -0.850   0.011  0.00  0.00    +0.037 C 
ATOM      8  C   UNL     1       2.382  -0.318   0.811  0.00  0.00    +0.014 C 
ATOM      9  C   UNL     1       3.136   0.791   0.118  0.00  0.00    +0.096 C 
ATOM     10  C   UNL     1       2.369   2.065   0.115  0.00  0.00    +0.217 C 
ATOM     11  O   UNL     1       3.016   3.085   0.229  0.00  0.00    -0.275 OA
ATOM     12  N   UNL     1       1.079   2.207   0.004  0.00  0.00    -0.285 N 
ATOM     13  H   UNL     1       0.945   3.291  -0.121  0.00  0.00    +0.155 HD
ENDROOT
BRANCH   6  14
ATOM     14  S   UNL     1      -3.921  -0.964  -0.029  0.00  0.00    +0.061 S 
ATOM     15  O   UNL     1      -4.912  -0.105  -0.574  0.00  0.00    -0.153 OA
ATOM     16  O   UNL     1      -3.618  -2.232  -0.594  0.00  0.00    -0.153 OA
BRANCH  14  17
ATOM     17  N   UNL     1      -4.347  -1.238   1.548  0.00  0.00    -0.177 NA
ATOM     18  C   UNL     1      -3.888  -2.445   2.248  0.00  0.00    +0.110 C 
ATOM     19  C   UNL     1      -5.097  -3.170   2.837  0.00  0.00    +0.032 C 
ATOM     20  C   UNL     1      -5.894  -2.200   3.712  0.00  0.00    +0.105 C 
ATOM     21  C   UNL     1      -6.396  -1.034   2.857  0.00  0.00    +0.032 C 
ATOM     22  C   UNL     1      -5.197  -0.282   2.271  0.00  0.00    +0.110 C 
BRANCH  20  23
ATOM     23  C   UNL     1      -7.071  -2.921   4.318  0.00  0.00    +0.359 C 
ATOM     24  O   UNL     1      -8.195  -2.541   4.089  0.00  0.00    -0.246 OA
ATOM     25  O   UNL     1      -6.870  -3.985   5.111  0.00  0.00    -0.246 OA
ENDBRANCH  20  23
ENDBRANCH  14  17
ENDBRANCH   6  14
TORSDOF 3
