REMARK  Name = ZINC15188038
REMARK  5 active torsions:
REMARK  status: ('A' for Active; 'I' for Inactive)
REMARK    1  A    between atoms: C_1  and  C_2
REMARK    2  A    between atoms: N_6  and  C_11
REMARK    3  A    between atoms: C_7  and  C_10
REMARK    4  A    between atoms: C_14  and  N_27
REMARK    5  A    between atoms: C_16  and  C_17
REMARK                            x       y       z     vdW  Elec       q    Type
REMARK                         _______ _______ _______ _____ _____    ______ ____
ROOT
ATOM      1  C   UNL     1       2.736   5.493   0.173  0.00  0.00    +0.037 A 
ATOM      2  C   UNL     1       3.989   6.090   0.105  0.00  0.00    +0.026 A 
ATOM      3  C   UNL     1       5.125   5.308   0.064  0.00  0.00    +0.034 A 
ATOM      4  C   UNL     1       5.030   3.924   0.096  0.00  0.00    +0.127 A 
ATOM      5  C   UNL     1       3.811   3.314   0.169  0.00  0.00    +0.042 A 
ATOM      6  C   UNL     1       2.640   4.087   0.211  0.00  0.00    -0.001 A 
ENDROOT
BRANCH   6   7
ATOM      7  C   UNL     1       1.371   3.459   0.287  0.00  0.00    +0.028 C 
ATOM      8  C   UNL     1       1.059   2.424  -0.576  0.00  0.00    +0.101 C 
ATOM      9  C   UNL     1      -0.163   1.616  -0.400  0.00  0.00    +0.274 C 
ATOM     10  O   UNL     1      -0.936   1.842   0.512  0.00  0.00    -0.268 OA
ATOM     11  N   UNL     1      -0.402   0.623  -1.281  0.00  0.00    -0.154 NA
ATOM     12  C   UNL     1       0.439   0.366  -2.293  0.00  0.00    +0.164 C 
ATOM     13  S   UNL     1       0.052  -0.915  -3.361  0.00  0.00    -0.016 S 
ATOM     14  N   UNL     1       1.565   1.058  -2.514  0.00  0.00    -0.262 N 
ATOM     15  C   UNL     1       1.934   2.080  -1.714  0.00  0.00    +0.255 C 
ATOM     16  O   UNL     1       2.959   2.700  -1.925  0.00  0.00    -0.270 OA
ATOM     17  H   UNL     1       2.212   0.798  -3.364  0.00  0.00    +0.157 HD
ENDBRANCH   6   7
BRANCH   1  22
ATOM     18  C   UNL     1      -1.772   5.443   0.851  0.00  0.00    +0.007 C 
ATOM     19  C   UNL     1      -1.223   6.835   0.528  0.00  0.00    -0.011 C 
ATOM     20  C   UNL     1      -0.552   6.815  -0.848  0.00  0.00    +0.022 C 
ATOM     21  C   UNL     1       0.632   5.845  -0.819  0.00  0.00    +0.105 C 
ATOM     22  N   UNL     1       1.591   6.273   0.208  0.00  0.00    -0.327 N 
ATOM     23  C   UNL     1       0.982   6.254   1.544  0.00  0.00    +0.071 C 
ATOM     24  C   UNL     1      -0.191   7.236   1.585  0.00  0.00    +0.025 C 
ATOM     25  C   UNL     1       2.026   6.663   2.585  0.00  0.00    +0.028 C 
ENDBRANCH   1  22
BRANCH   4  26
ATOM     26  N   UNL     1       6.260   3.103   0.051  0.00  0.00    +0.056 N 
ATOM     27  O   UNL     1       6.183   1.887   0.079  0.00  0.00    -0.126 OA
ATOM     28  O   UNL     1       7.350   3.642  -0.014  0.00  0.00    -0.126 OA
ENDBRANCH   4  26
TORSDOF 3
