REMARK  Name = ZINC01047082
REMARK  5 active torsions:
REMARK  status: ('A' for Active; 'I' for Inactive)
REMARK    1  A    between atoms: C_3  and  C_6
REMARK    2  A    between atoms: C_8  and  N_25
REMARK    3  A    between atoms: N_9  and  C_11
REMARK    4  A    between atoms: C_13  and  C_21
REMARK    5  A    between atoms: C_15  and  C_17
REMARK                            x       y       z     vdW  Elec       q    Type
REMARK                         _______ _______ _______ _____ _____    ______ ____
ROOT
ATOM      1  C   UNL     1      -1.540   4.287   0.038  0.00  0.00    +0.068 A 
ATOM      2  C   UNL     1      -2.749   4.268  -0.646  0.00  0.00    +0.040 A 
ATOM      3  C   UNL     1      -3.569   5.379  -0.627  0.00  0.00    +0.057 A 
ATOM      4  C   UNL     1      -3.182   6.514   0.062  0.00  0.00    +0.025 A 
ATOM      5  C   UNL     1      -1.977   6.538   0.739  0.00  0.00    +0.057 A 
ATOM      6  C   UNL     1      -1.155   5.428   0.729  0.00  0.00    +0.040 A 
ENDROOT
BRANCH   1  10
ATOM      7  C   UNL     1       1.115   1.922   0.002  0.00  0.00    +0.130 A 
ATOM      8  C   UNL     1      -0.013   1.076   0.008  0.00  0.00    +0.076 A 
ATOM      9  C   UNL     1      -1.121   1.861   0.017  0.00  0.00    +0.120 A 
ATOM     10  N   UNL     1      -0.709   3.160   0.025  0.00  0.00    -0.218 N 
ATOM     11  N   UNL     1       0.692   3.171   0.012  0.00  0.00    -0.162 NA
BRANCH   7  14
ATOM     12  C   UNL     1       4.749   1.465  -0.035  0.00  0.00    +0.042 A 
ATOM     13  C   UNL     1       3.614   2.301  -0.025  0.00  0.00    +0.051 A 
ATOM     14  C   UNL     1       2.527   1.485  -0.014  0.00  0.00    +0.155 A 
ATOM     15  O   UNL     1       2.960   0.210  -0.025  0.00  0.00    -0.461 OA
ATOM     16  C   UNL     1       4.303   0.194  -0.038  0.00  0.00    +0.196 A 
ENDBRANCH   7  14
BRANCH   9  17
ATOM     17  N   UNL     1      -2.441   1.419   0.020  0.00  0.00    -0.343 N 
ATOM     18  H   UNL     1      -2.634   0.469   0.016  0.00  0.00    +0.144 HD
ATOM     19  H   UNL     1      -3.168   2.061   0.026  0.00  0.00    +0.144 HD
ENDBRANCH   9  17
ENDBRANCH   1  10
BRANCH   5  20
ATOM     20  C   UNL     1      -1.559   7.777   1.489  0.00  0.00    +0.417 C 
ATOM     21  F   UNL     1      -0.831   8.614   0.637  0.00  0.00    -0.166 F 
ATOM     22  F   UNL     1      -2.697   8.451   1.945  0.00  0.00    -0.166 F 
ATOM     23  F   UNL     1      -0.763   7.415   2.581  0.00  0.00    -0.166 F 
ENDBRANCH   5  20
BRANCH   3  24
ATOM     24  C   UNL     1      -4.883   5.357  -1.364  0.00  0.00    +0.417 C 
ATOM     25  F   UNL     1      -5.528   6.588  -1.204  0.00  0.00    -0.166 F 
ATOM     26  F   UNL     1      -4.652   5.125  -2.724  0.00  0.00    -0.166 F 
ATOM     27  F   UNL     1      -5.690   4.338  -0.847  0.00  0.00    -0.166 F 
ENDBRANCH   3  24
TORSDOF 5
