REMARK  Name = ZINC08133098
REMARK  5 active torsions:
REMARK  status: ('A' for Active; 'I' for Inactive)
REMARK    1  A    between atoms: C_8  and  C_10
REMARK    2  A    between atoms: C_13  and  C_16
REMARK    3  A    between atoms: C_21  and  C_23
REMARK    4  A    between atoms: C_23  and  N_55
REMARK    5  A    between atoms: C_27  and  C_30
REMARK                            x       y       z     vdW  Elec       q    Type
REMARK                         _______ _______ _______ _____ _____    ______ ____
ROOT
ATOM      1  C   UNL     1       6.603   4.889  -1.779  0.00  0.00    +0.104 C 
ATOM      2  N   UNL     1       5.718   3.956  -1.655  0.00  0.00    -0.178 NA
ATOM      3  N   UNL     1       4.440   4.422  -1.355  0.00  0.00    -0.184 N 
ATOM      4  C   UNL     1       4.479   5.889  -1.254  0.00  0.00    +0.173 C 
ATOM      5  C   UNL     1       5.953   6.234  -1.541  0.00  0.00    +0.093 C 
ATOM      6  C   UNL     1       3.347   3.653  -1.181  0.00  0.00    +0.219 C 
ATOM      7  O   UNL     1       2.280   4.167  -0.916  0.00  0.00    -0.276 OA
ENDROOT
BRANCH   1  15
ATOM      8  C   UNL     1      12.334   3.517  -3.101  0.00  0.00    +0.001 A 
ATOM      9  C   UNL     1      12.478   4.896  -3.030  0.00  0.00    +0.004 A 
ATOM     10  C   UNL     1      11.399   5.703  -2.740  0.00  0.00    +0.047 A 
ATOM     11  C   UNL     1      10.151   5.136  -2.515  0.00  0.00    +0.136 A 
ATOM     12  C   UNL     1      10.010   3.738  -2.589  0.00  0.00    +0.021 A 
ATOM     13  C   UNL     1      11.115   2.937  -2.884  0.00  0.00    +0.011 A 
ATOM     14  C   UNL     1       8.600   3.466  -2.309  0.00  0.00    +0.059 A 
ATOM     15  C   UNL     1       8.019   4.677  -2.095  0.00  0.00    +0.152 A 
ATOM     16  O   UNL     1       8.940   5.653  -2.224  0.00  0.00    -0.454 OA
ENDBRANCH   1  15
BRANCH   4  17
ATOM     17  C   UNL     1       4.090   6.336   0.132  0.00  0.00    +0.128 A 
ATOM     18  C   UNL     1       3.347   7.417   0.431  0.00  0.00    +0.046 A 
ATOM     19  C   UNL     1       3.227   7.455   1.839  0.00  0.00    +0.041 A 
ATOM     20  C   UNL     1       3.911   6.399   2.317  0.00  0.00    +0.195 A 
ATOM     21  O   UNL     1       4.432   5.726   1.278  0.00  0.00    -0.466 OA
ENDBRANCH   4  17
BRANCH   6  22
ATOM     22  C   UNL     1       3.450   2.156  -1.314  0.00  0.00    +0.021 C 
BRANCH  22  28
ATOM     23  C   UNL     1       2.186   0.102  -1.102  0.00  0.00    -0.078 C 
ATOM     24  C   UNL     1       0.783  -0.466  -0.870  0.00  0.00    -0.018 C 
ATOM     25  C   UNL     1      -0.118  -0.084  -2.047  0.00  0.00    +0.009 C 
ATOM     26  C   UNL     1      -0.143   1.440  -2.187  0.00  0.00    +0.058 C 
ATOM     27  C   UNL     1       1.286   1.953  -2.381  0.00  0.00    -0.065 C 
ATOM     28  N   UNL     1       2.096   1.574  -1.204  0.00  0.00    +0.386 N 
ATOM     29  H   UNL     1       1.644   1.940  -0.357  0.00  0.00    -0.081 HD
BRANCH  26  30
ATOM     30  C   UNL     1      -0.981   1.823  -3.380  0.00  0.00    +0.212 C 
ATOM     31  O   UNL     1      -0.485   2.447  -4.294  0.00  0.00    -0.276 OA
ATOM     32  N   UNL     1      -2.280   1.470  -3.431  0.00  0.00    -0.329 N 
ATOM     33  H   UNL     1      -2.677   0.971  -2.700  0.00  0.00    +0.145 HD
ATOM     34  H   UNL     1      -2.820   1.716  -4.199  0.00  0.00    +0.145 HD
ENDBRANCH  26  30
ENDBRANCH  22  28
ENDBRANCH   6  22
TORSDOF 5
