REMARK  Name = ZINC15575101
REMARK  3 active torsions:
REMARK  status: ('A' for Active; 'I' for Inactive)
REMARK    1  A    between atoms: C_6  and  N_7
REMARK    2  A    between atoms: C_8  and  C_10
REMARK    3  A    between atoms: C_10  and  C_11
REMARK                            x       y       z     vdW  Elec       q    Type
REMARK                         _______ _______ _______ _____ _____    ______ ____
ROOT
ATOM      1  N   UNL     1       2.424  -3.593   1.620  0.00  0.00    -0.285 N 
ATOM      2  C   UNL     1       1.847  -2.393   1.412  0.00  0.00    +0.222 C 
ATOM      3  O   UNL     1       1.555  -1.689   2.355  0.00  0.00    -0.275 OA
ATOM      4  H   UNL     1       2.588  -4.189   0.873  0.00  0.00    +0.155 HD
ENDROOT
BRANCH   1  10
ATOM      5  C   UNL     1       2.719  -5.318   3.287  0.00  0.00    +0.025 A 
ATOM      6  C   UNL     1       3.075  -5.705   4.563  0.00  0.00    +0.029 A 
ATOM      7  C   UNL     1       3.503  -4.758   5.479  0.00  0.00    +0.067 A 
ATOM      8  C   UNL     1       3.574  -3.412   5.111  0.00  0.00    +0.069 A 
ATOM      9  C   UNL     1       3.221  -3.027   3.828  0.00  0.00    +0.051 A 
ATOM     10  C   UNL     1       2.788  -3.980   2.917  0.00  0.00    +0.035 A 
ATOM     11  N   UNL     1       4.031  -2.713   6.226  0.00  0.00    -0.306 N 
ATOM     12  H   UNL     1       4.180  -1.755   6.273  0.00  0.00    +0.170 HD
ATOM     13  C   UNL     1       4.230  -3.591   7.226  0.00  0.00    +0.325 A 
ATOM     14  O   UNL     1       4.629  -3.306   8.340  0.00  0.00    -0.247 OA
ATOM     15  N   UNL     1       3.921  -4.833   6.808  0.00  0.00    -0.306 N 
ATOM     16  H   UNL     1       3.978  -5.642   7.340  0.00  0.00    +0.170 HD
ENDBRANCH   1  10
BRANCH   2  17
ATOM     17  C   UNL     1       1.565  -1.927   0.007  0.00  0.00    +0.135 C 
BRANCH  17  18
ATOM     18  C   UNL     1       0.922  -0.565   0.049  0.00  0.00    +0.007 A 
ATOM     19  C   UNL     1      -0.389  -0.293   0.021  0.00  0.00    +0.200 A 
ATOM     20  O   UNL     1      -0.589   1.036   0.076  0.00  0.00    -0.463 OA
ATOM     21  C   UNL     1       0.586   1.696   0.143  0.00  0.00    +0.135 A 
ATOM     22  C   UNL     1       1.607   0.731   0.130  0.00  0.00    +0.024 A 
ATOM     23  C   UNL     1       2.941   1.127   0.189  0.00  0.00    +0.015 A 
ATOM     24  C   UNL     1       3.257   2.469   0.261  0.00  0.00    -0.043 A 
ATOM     25  C   UNL     1       2.249   3.423   0.275  0.00  0.00    -0.041 A 
ATOM     26  C   UNL     1       0.923   3.040   0.216  0.00  0.00    +0.050 A 
ATOM     27  C   UNL     1       2.860   4.806   0.358  0.00  0.00    +0.036 C 
ATOM     28  C   UNL     1       4.337   4.622  -0.049  0.00  0.00    +0.009 C 
ATOM     29  C   UNL     1       4.607   3.151   0.333  0.00  0.00    +0.036 C 
ENDBRANCH  17  18
ENDBRANCH   2  17
TORSDOF 3
