REMARK  Name = ZINC15906357
REMARK  7 active torsions:
REMARK  status: ('A' for Active; 'I' for Inactive)
REMARK    1  A    between atoms: C_1  and  C_2
REMARK    2  A    between atoms: C_4  and  C_25
REMARK    3  A    between atoms: C_9  and  C_13
REMARK    4  A    between atoms: C_9  and  C_14
REMARK    5  A    between atoms: N_17  and  C_19
REMARK    6  A    between atoms: C_28  and  O_31
REMARK    7  A    between atoms: O_31  and  C_32
REMARK                            x       y       z     vdW  Elec       q    Type
REMARK                         _______ _______ _______ _____ _____    ______ ____
ROOT
ATOM      1  C   UNL     1      -0.113   1.437  -0.587  0.00  0.00    +0.062 C 
ATOM      2  C   UNL     1      -0.040  -0.033  -0.262  0.00  0.00    +0.027 C 
ATOM      3  C   UNL     1      -1.042  -0.775   0.240  0.00  0.00    +0.022 C 
ATOM      4  C   UNL     1      -2.472  -0.471   0.633  0.00  0.00    +0.089 C 
ATOM      5  C   UNL     1      -3.270  -1.643   1.172  0.00  0.00    +0.026 C 
ATOM      6  C   UNL     1      -2.647  -2.873   1.258  0.00  0.00    +0.025 C 
ATOM      7  C   UNL     1      -3.413  -4.065   1.784  0.00  0.00    +0.060 C 
ATOM      8  C   UNL     1      -4.462  -3.595   2.794  0.00  0.00    -0.023 C 
ATOM      9  C   UNL     1      -5.402  -2.600   2.106  0.00  0.00    +0.086 C 
ATOM     10  C   UNL     1      -4.588  -1.456   1.561  0.00  0.00    +0.162 C 
ATOM     11  O   UNL     1      -5.093  -0.353   1.460  0.00  0.00    -0.292 OA
ATOM     12  C   UNL     1      -5.265  -4.797   3.295  0.00  0.00    +0.011 C 
ATOM     13  C   UNL     1      -3.768  -2.912   3.974  0.00  0.00    +0.011 C 
ATOM     14  N   UNL     1      -1.386  -3.041   0.888  0.00  0.00    -0.345 N 
ATOM     15  C   UNL     1      -0.588  -2.103   0.407  0.00  0.00    +0.126 C 
ATOM     16  N   UNL     1       0.724  -2.128  -0.014  0.00  0.00    -0.206 N 
ATOM     17  N   UNL     1       1.054  -0.833  -0.434  0.00  0.00    -0.262 N 
ATOM     18  H   UNL     1       1.914  -0.551  -0.785  0.00  0.00    +0.170 HD
ATOM     19  H   UNL     1      -1.015  -3.932   0.979  0.00  0.00    +0.167 HD
ENDROOT
BRANCH  16  20
ATOM     20  C   UNL     1       1.568  -3.242  -0.023  0.00  0.00    +0.055 A 
ATOM     21  C   UNL     1       1.119  -4.450  -0.541  0.00  0.00    +0.025 A 
ATOM     22  C   UNL     1       1.956  -5.549  -0.549  0.00  0.00    +0.002 A 
ATOM     23  C   UNL     1       3.239  -5.447  -0.044  0.00  0.00    +0.000 A 
ATOM     24  C   UNL     1       3.689  -4.245   0.473  0.00  0.00    +0.002 A 
ATOM     25  C   UNL     1       2.859  -3.141   0.479  0.00  0.00    +0.025 A 
ENDBRANCH  16  20
BRANCH   4  26
ATOM     26  C   UNL     1      -2.452   0.606   1.687  0.00  0.00    -0.035 A 
ATOM     27  C   UNL     1      -1.790   0.390   2.882  0.00  0.00    +0.008 A 
ATOM     28  C   UNL     1      -1.771   1.375   3.850  0.00  0.00    +0.046 A 
ATOM     29  C   UNL     1      -2.415   2.582   3.623  0.00  0.00    +0.127 A 
ATOM     30  C   UNL     1      -3.078   2.797   2.423  0.00  0.00    +0.046 A 
ATOM     31  C   UNL     1      -3.090   1.811   1.456  0.00  0.00    +0.008 A 
BRANCH  29  32
ATOM     32  O   UNL     1      -2.398   3.553   4.574  0.00  0.00    -0.434 OA
BRANCH  32  33
ATOM     33  C   UNL     1      -3.082   4.770   4.271  0.00  0.00    +0.541 C 
ATOM     34  F   UNL     1      -2.517   5.351   3.131  0.00  0.00    -0.166 F 
ATOM     35  F   UNL     1      -4.434   4.499   4.035  0.00  0.00    -0.166 F 
ENDBRANCH  32  33
ENDBRANCH  29  32
ENDBRANCH   4  26
TORSDOF 4
