REMARK  Name = ZINC35877569
REMARK  11 active torsions:
REMARK  status: ('A' for Active; 'I' for Inactive)
REMARK    1  A    between atoms: C_1  and  C_2
REMARK    2  A    between atoms: C_2  and  O_3
REMARK    3  A    between atoms: O_3  and  C_4
REMARK    4  A    between atoms: C_4  and  C_6
REMARK    5  A    between atoms: C_9  and  N_12
REMARK    6  A    between atoms: C_13  and  C_15
REMARK    7  A    between atoms: C_18  and  C_33
REMARK    8  A    between atoms: C_25  and  C_32
REMARK    9  A    between atoms: C_26  and  C_31
REMARK   10  A    between atoms: C_33  and  C_35
REMARK   11  A    between atoms: C_33  and  O_36
REMARK                            x       y       z     vdW  Elec       q    Type
REMARK                         _______ _______ _______ _____ _____    ______ ____
ROOT
ATOM      1  C   UNL     1      -8.133  -6.193   0.046  0.00  0.00    +0.076 C 
ATOM      2  C   UNL     1      -8.935  -5.810   1.313  0.00  0.00    -0.001 C 
ATOM      3  C   UNL     1      -9.609  -7.147   1.714  0.00  0.00    -0.040 C 
ATOM      4  N   UNL     1      -8.571  -8.163   1.397  0.00  0.00    +0.395 N 
ATOM      5  C   UNL     1      -7.941  -7.711   0.143  0.00  0.00    +0.049 C 
ATOM      6  C   UNL     1      -8.538  -8.409  -1.049  0.00  0.00    -0.027 A 
ATOM      7  C   UNL     1      -9.813  -8.473  -1.566  0.00  0.00    +0.005 A 
ATOM      8  C   UNL     1     -10.061  -9.219  -2.705  0.00  0.00    +0.004 A 
ATOM      9  C   UNL     1      -9.026  -9.898  -3.321  0.00  0.00    -0.046 A 
ATOM     10  C   UNL     1      -7.748  -9.835  -2.807  0.00  0.00    -0.026 A 
ATOM     11  C   UNL     1      -7.489  -9.087  -1.661  0.00  0.00    +0.039 A 
ATOM     12  N   UNL     1      -6.301  -8.870  -0.961  0.00  0.00    -0.286 N 
ATOM     13  C   UNL     1      -6.479  -8.074   0.109  0.00  0.00    +0.211 C 
ATOM     14  O   UNL     1      -5.627  -7.717   0.895  0.00  0.00    -0.277 OA
ATOM     15  C   UNL     1      -6.627 -10.579  -3.487  0.00  0.00    +0.046 C 
ATOM     16  C   UNL     1      -9.297 -10.710  -4.562  0.00  0.00    +0.044 C 
ATOM     17  H   UNL     1      -7.886  -8.204   2.137  0.00  0.00    -0.083 HD
ATOM     18  H   UNL     1      -5.445  -9.250  -1.217  0.00  0.00    +0.155 HD
ATOM     19  H   UNL     1      -8.997  -9.068   1.265  0.00  0.00    -0.083 HD
ENDROOT
BRANCH   1  21
ATOM     20  N   UNL     1      -6.210  -5.172  -1.128  0.00  0.00    -0.285 N 
ATOM     21  C   UNL     1      -6.797  -5.495   0.041  0.00  0.00    +0.220 C 
ATOM     22  O   UNL     1      -6.250  -5.225   1.089  0.00  0.00    -0.275 OA
ATOM     23  H   UNL     1      -6.675  -5.331  -1.964  0.00  0.00    +0.155 HD
BRANCH  20  27
ATOM     24  C   UNL     1      -2.399  -3.492  -1.151  0.00  0.00    +0.059 A 
ATOM     25  C   UNL     1      -3.296  -3.180  -0.125  0.00  0.00    +0.017 A 
ATOM     26  C   UNL     1      -4.554  -3.737  -0.120  0.00  0.00    +0.024 A 
ATOM     27  C   UNL     1      -4.934  -4.610  -1.136  0.00  0.00    +0.033 A 
ATOM     28  C   UNL     1      -4.044  -4.922  -2.158  0.00  0.00    +0.024 A 
ATOM     29  C   UNL     1      -2.786  -4.364  -2.172  0.00  0.00    +0.017 A 
BRANCH  24  30
ATOM     30  C   UNL     1      -1.049  -2.897  -1.159  0.00  0.00    +0.339 C 
ATOM     31  O   UNL     1      -0.273  -3.165  -2.054  0.00  0.00    -0.245 OA
BRANCH  30  32
ATOM     32  O   UNL     1      -0.678  -2.056  -0.173  0.00  0.00    -0.461 OA
BRANCH  32  34
ATOM     33  C   UNL     1       0.882  -0.592   0.950  0.00  0.00    +0.048 C 
ATOM     34  C   UNL     1       0.644  -1.517  -0.245  0.00  0.00    +0.229 C 
ENDBRANCH  32  34
ENDBRANCH  30  32
ENDBRANCH  24  30
ENDBRANCH  20  27
ENDBRANCH   1  21
BRANCH   3  35
ATOM     35  C   UNL     1      -9.941  -7.158   3.208  0.00  0.00    +0.098 C 
ATOM     36  C   UNL     1     -10.454  -8.543   3.607  0.00  0.00    +0.036 C 
BRANCH  35  37
ATOM     37  O   UNL     1      -8.764  -6.851   3.959  0.00  0.00    -0.394 OA
ATOM     38  H   UNL     1      -8.038  -7.475   3.824  0.00  0.00    +0.210 HD
ENDBRANCH  35  37
ENDBRANCH   3  35
TORSDOF 7
