REMARK  Name = ZINC63908289
REMARK  5 active torsions:
REMARK  status: ('A' for Active; 'I' for Inactive)
REMARK    1  A    between atoms: C_4  and  C_7
REMARK    2  A    between atoms: C_7  and  C_9
REMARK    3  A    between atoms: C_7  and  C_25
REMARK    4  A    between atoms: C_9  and  N_10
REMARK    5  A    between atoms: C_14  and  C_21
REMARK                            x       y       z     vdW  Elec       q    Type
REMARK                         _______ _______ _______ _____ _____    ______ ____
ROOT
ATOM      1  C   UNL     1       3.711  -0.707  -0.038  0.00  0.00    +0.064 C 
ENDROOT
BRANCH   1   2
ATOM      2  C   UNL     1       3.790  -1.566  -1.273  0.00  0.00    -0.033 C 
ATOM      3  C   UNL     1       4.716  -1.494  -2.256  0.00  0.00    -0.000 A 
ATOM      4  C   UNL     1       5.883  -0.628  -2.461  0.00  0.00    +0.010 A 
ATOM      5  C   UNL     1       6.640  -0.798  -3.569  0.00  0.00    +0.001 A 
ATOM      6  C   UNL     1       6.338  -1.778  -4.524  0.00  0.00    +0.002 A 
ATOM      7  C   UNL     1       5.284  -2.612  -4.405  0.00  0.00    +0.026 A 
ATOM      8  C   UNL     1       4.420  -2.522  -3.279  0.00  0.00    +0.043 A 
ATOM      9  N   UNL     1       3.352  -3.203  -2.942  0.00  0.00    -0.380 N 
ATOM     10  C   UNL     1       2.853  -2.687  -1.662  0.00  0.00    +0.145 C 
ATOM     11  H   UNL     1       2.959  -3.929  -3.451  0.00  0.00    +0.160 HD
ENDBRANCH   1   2
BRANCH   1  15
ATOM     12  C   UNL     1      -0.017   1.378   0.010  0.00  0.00    +0.000 A 
ATOM     13  C   UNL     1       1.171   2.086   0.002  0.00  0.00    +0.000 A 
ATOM     14  C   UNL     1       2.377   1.411  -0.013  0.00  0.00    +0.004 A 
ATOM     15  C   UNL     1       2.396   0.029  -0.020  0.00  0.00    -0.039 A 
ATOM     16  C   UNL     1       1.208  -0.679  -0.012  0.00  0.00    +0.004 A 
ATOM     17  C   UNL     1       0.002  -0.004   0.002  0.00  0.00    +0.000 A 
ENDBRANCH   1  15
BRANCH   1  18
ATOM     18  C   UNL     1       3.817  -1.592   1.206  0.00  0.00    +0.115 C 
BRANCH  18  19
ATOM     19  N   UNL     1       3.861  -0.748   2.403  0.00  0.00    -0.327 N 
ATOM     20  C   UNL     1       3.958  -1.333   3.665  0.00  0.00    +0.137 C 
ATOM     21  N   UNL     1       4.014  -2.632   3.770  0.00  0.00    -0.161 NA
ATOM     22  N   UNL     1       4.112  -3.258   5.016  0.00  0.00    -0.173 N 
ATOM     23  C   UNL     1       4.189  -4.673   5.405  0.00  0.00    +0.303 C 
ATOM     24  N   UNL     1       4.274  -4.636   6.875  0.00  0.00    -0.237 N 
ATOM     25  N   UNL     1       4.243  -3.284   7.233  0.00  0.00    -0.168 NA
ATOM     26  C   UNL     1       4.151  -2.511   6.184  0.00  0.00    +0.161 C 
ATOM     27  C   UNL     1       4.089  -1.046   6.079  0.00  0.00    +0.050 C 
ATOM     28  C   UNL     1       4.001  -0.484   4.852  0.00  0.00    +0.048 C 
ATOM     29  H   UNL     1       3.822   0.217   2.318  0.00  0.00    +0.148 HD
ATOM     30  H   UNL     1       4.338  -5.396   7.474  0.00  0.00    +0.170 HD
BRANCH  23  31
ATOM     31  C   UNL     1       2.933  -5.422   4.957  0.00  0.00    +0.427 C 
ATOM     32  F   UNL     1       2.812  -5.340   3.565  0.00  0.00    -0.167 F 
ATOM     33  F   UNL     1       3.029  -6.765   5.338  0.00  0.00    -0.167 F 
ATOM     34  F   UNL     1       1.807  -4.847   5.557  0.00  0.00    -0.167 F 
ENDBRANCH  23  31
ENDBRANCH  18  19
ENDBRANCH   1  18
TORSDOF 5
