REMARK  Name = ZINC12775507
REMARK  4 active torsions:
REMARK  status: ('A' for Active; 'I' for Inactive)
REMARK    1  A    between atoms: C_6  and  S_7
REMARK    2  A    between atoms: S_7  and  N_10
REMARK    3  A    between atoms: C_13  and  C_16
REMARK    4  A    between atoms: C_21  and  C_24
REMARK                            x       y       z     vdW  Elec       q    Type
REMARK                         _______ _______ _______ _____ _____    ______ ____
ROOT
ATOM      1  N   UNL     1       4.353  -1.069  -1.644  0.00  0.00    -0.177 NA
ATOM      2  C   UNL     1       3.931  -2.280  -2.360  0.00  0.00    +0.110 C 
ATOM      3  C   UNL     1       3.193  -1.859  -3.640  0.00  0.00    +0.030 C 
ATOM      4  C   UNL     1       4.092  -0.927  -4.457  0.00  0.00    +0.078 C 
ATOM      5  C   UNL     1       4.399   0.331  -3.642  0.00  0.00    +0.030 C 
ATOM      6  C   UNL     1       5.145  -0.062  -2.364  0.00  0.00    +0.110 C 
ENDROOT
BRANCH   4   7
ATOM      7  C   UNL     1       3.388  -0.541  -5.732  0.00  0.00    +0.219 C 
ATOM      8  O   UNL     1       2.618   0.396  -5.739  0.00  0.00    -0.275 OA
ATOM      9  N   UNL     1       3.614  -1.236  -6.864  0.00  0.00    -0.301 N 
ATOM     10  C   UNL     1       4.455  -2.441  -6.847  0.00  0.00    +0.108 C 
ATOM     11  C   UNL     1       3.664  -3.598  -7.475  0.00  0.00    +0.034 C 
ATOM     12  C   UNL     1       3.186  -3.185  -8.869  0.00  0.00    +0.105 C 
ATOM     13  C   UNL     1       2.257  -1.974  -8.754  0.00  0.00    +0.034 C 
ATOM     14  C   UNL     1       3.028  -0.801  -8.139  0.00  0.00    +0.108 C 
BRANCH  12  15
ATOM     15  C   UNL     1       2.440  -4.331  -9.504  0.00  0.00    +0.359 C 
ATOM     16  O   UNL     1       1.285  -4.193  -9.831  0.00  0.00    -0.246 OA
ATOM     17  O   UNL     1       3.060  -5.504  -9.707  0.00  0.00    -0.246 OA
ENDBRANCH  12  15
ENDBRANCH   4   7
BRANCH   1  18
ATOM     18  S   UNL     1       3.948  -0.845  -0.054  0.00  0.00    +0.061 S 
ATOM     19  O   UNL     1       4.913   0.046   0.489  0.00  0.00    -0.153 OA
ATOM     20  O   UNL     1       3.711  -2.136   0.491  0.00  0.00    -0.153 OA
BRANCH  18  26
ATOM     21  C   UNL     1       1.223  -0.712  -0.011  0.00  0.00    +0.032 A 
ATOM     22  C   UNL     1       0.010  -0.048   0.011  0.00  0.00    +0.051 A 
ATOM     23  C   UNL     1      -0.024   1.338   0.020  0.00  0.00    +0.162 A 
ATOM     24  C   UNL     1       1.165   2.058   0.011  0.00  0.00    +0.164 A 
ATOM     25  C   UNL     1       2.378   1.387  -0.013  0.00  0.00    +0.078 A 
ATOM     26  C   UNL     1       2.405   0.005  -0.024  0.00  0.00    +0.109 A 
ATOM     27  O   UNL     1       1.155   3.419   0.028  0.00  0.00    -0.485 OA
ATOM     28  C   UNL     1      -0.077   4.058  -0.326  0.00  0.00    +0.270 C 
ATOM     29  C   UNL     1      -1.216   3.355   0.424  0.00  0.00    +0.270 C 
ATOM     30  O   UNL     1      -1.226   1.977   0.033  0.00  0.00    -0.485 OA
ENDBRANCH  18  26
ENDBRANCH   1  18
TORSDOF 4
