REMARK  Name = ZINC09412099
REMARK  3 active torsions:
REMARK  status: ('A' for Active; 'I' for Inactive)
REMARK    1  A    between atoms: N_13  and  C_17
REMARK    2  A    between atoms: C_17  and  C_18
REMARK    3  A    between atoms: C_23  and  N_26
REMARK                            x       y       z     vdW  Elec       q    Type
REMARK                         _______ _______ _______ _____ _____    ______ ____
ROOT
ATOM      1  C   UNL     1       1.660  -2.410  -1.448  0.00  0.00    +0.234 C 
ATOM      2  O   UNL     1       1.480  -1.635  -2.364  0.00  0.00    -0.274 OA
ATOM      3  N   UNL     1       1.946  -3.702  -1.705  0.00  0.00    -0.300 N 
ATOM      4  C   UNL     1       2.173  -4.651  -0.607  0.00  0.00    +0.110 C 
ATOM      5  C   UNL     1       3.516  -5.346  -0.819  0.00  0.00    +0.044 C 
ATOM      6  C   UNL     1       3.547  -5.978  -2.212  0.00  0.00    +0.095 C 
ATOM      7  C   UNL     1       3.393  -4.885  -3.273  0.00  0.00    +0.044 C 
ATOM      8  C   UNL     1       2.042  -4.186  -3.089  0.00  0.00    +0.110 C 
ENDROOT
BRANCH   6   9
ATOM      9  N   UNL     1       4.823  -6.670  -2.406  0.00  0.00    -0.289 N 
ATOM     10  C   UNL     1       4.981  -8.029  -2.669  0.00  0.00    +0.070 A 
ATOM     11  C   UNL     1       4.089  -9.079  -2.820  0.00  0.00    +0.028 A 
ATOM     12  C   UNL     1       4.561 -10.351  -3.080  0.00  0.00    +0.002 A 
ATOM     13  C   UNL     1       5.922 -10.580  -3.194  0.00  0.00    +0.002 A 
ATOM     14  C   UNL     1       6.818  -9.540  -3.045  0.00  0.00    +0.028 A 
ATOM     15  C   UNL     1       6.354  -8.261  -2.782  0.00  0.00    +0.067 A 
ATOM     16  N   UNL     1       6.986  -7.035  -2.586  0.00  0.00    -0.306 N 
ATOM     17  H   UNL     1       7.944  -6.881  -2.606  0.00  0.00    +0.170 HD
ATOM     18  C   UNL     1       6.042  -6.101  -2.368  0.00  0.00    +0.328 A 
ATOM     19  O   UNL     1       6.258  -4.921  -2.164  0.00  0.00    -0.247 OA
ENDBRANCH   6   9
BRANCH   1  20
ATOM     20  C   UNL     1       1.565  -1.928  -0.024  0.00  0.00    +0.213 C 
BRANCH  20  33
ATOM     21  C   UNL     1       1.462   2.863   3.605  0.00  0.00    +0.001 A 
ATOM     22  C   UNL     1       2.267   3.987   3.550  0.00  0.00    +0.004 A 
ATOM     23  C   UNL     1       2.788   4.403   2.342  0.00  0.00    +0.046 A 
ATOM     24  C   UNL     1       2.506   3.696   1.177  0.00  0.00    +0.126 A 
ATOM     25  C   UNL     1       1.704   2.568   1.236  0.00  0.00    +0.027 A 
ATOM     26  C   UNL     1       1.183   2.157   2.451  0.00  0.00    +0.010 A 
ATOM     27  C   UNL     1       1.386   1.777  -0.002  0.00  0.00    +0.144 C 
ATOM     28  C   UNL     1       1.684   2.593  -1.256  0.00  0.00    +0.081 C 
ATOM     29  C   UNL     1       3.072   3.229  -1.098  0.00  0.00    +0.232 C 
ATOM     30  O   UNL     1       3.031   4.136   0.005  0.00  0.00    -0.492 OA
ATOM     31  C   UNL     1       2.171   0.485  -0.016  0.00  0.00    +0.252 C 
ATOM     32  O   UNL     1       3.376   0.358  -0.028  0.00  0.00    -0.272 OA
ATOM     33  N   UNL     1       1.246  -0.498  -0.012  0.00  0.00    -0.215 N 
ATOM     34  C   UNL     1       0.002  -0.004   0.002  0.00  0.00    +0.310 C 
ATOM     35  O   UNL     1      -0.999  -0.694   0.007  0.00  0.00    -0.252 OA
ATOM     36  N   UNL     1      -0.016   1.343   0.009  0.00  0.00    -0.281 N 
ATOM     37  H   UNL     1      -0.801   1.913   0.016  0.00  0.00    +0.152 HD
ENDBRANCH  20  33
ENDBRANCH   1  20
TORSDOF 3
