REMARK  Name = ZINC39362970
REMARK  7 active torsions:
REMARK  status: ('A' for Active; 'I' for Inactive)
REMARK    1  A    between atoms: C_4  and  C_7
REMARK    2  A    between atoms: C_7  and  C_9
REMARK    3  A    between atoms: C_9  and  S_10
REMARK    4  A    between atoms: S_10  and  C_11
REMARK    5  A    between atoms: C_14  and  C_24
REMARK    6  A    between atoms: N_16  and  C_17
REMARK    7  A    between atoms: C_24  and  C_25
REMARK                            x       y       z     vdW  Elec       q    Type
REMARK                         _______ _______ _______ _____ _____    ______ ____
ROOT
ATOM      1  C   UNL     1       5.301  -4.540  -0.300  0.00  0.00    +0.180 C 
ATOM      2  N   UNL     1       4.178  -5.171  -0.231  0.00  0.00    -0.162 NA
ATOM      3  N   UNL     1       4.370  -6.531   0.043  0.00  0.00    -0.246 N 
ATOM      4  C   UNL     1       5.826  -6.727   0.150  0.00  0.00    +0.187 C 
ATOM      5  N   UNL     1       6.382  -5.384  -0.091  0.00  0.00    -0.258 N 
ATOM      6  H   UNL     1       3.682  -7.208   0.143  0.00  0.00    +0.170 HD
ENDROOT
BRANCH   5   7
ATOM      7  C   UNL     1       7.735  -5.029  -0.103  0.00  0.00    +0.038 A 
ATOM      8  C   UNL     1       8.571  -5.511  -1.103  0.00  0.00    +0.026 A 
ATOM      9  C   UNL     1       9.906  -5.158  -1.113  0.00  0.00    +0.040 A 
ATOM     10  C   UNL     1      10.412  -4.327  -0.128  0.00  0.00    +0.124 A 
ATOM     11  C   UNL     1       9.580  -3.846   0.869  0.00  0.00    +0.040 A 
ATOM     12  C   UNL     1       8.243  -4.191   0.880  0.00  0.00    +0.026 A 
ATOM     13  F   UNL     1      11.719  -3.985  -0.140  0.00  0.00    -0.205 F 
ENDBRANCH   5   7
BRANCH   1  14
ATOM     14  S   UNL     1       5.445  -2.815  -0.629  0.00  0.00    -0.081 S 
BRANCH  14  15
ATOM     15  C   UNL     1       3.728  -2.258  -0.809  0.00  0.00    +0.156 C 
BRANCH  15  16
ATOM     16  C   UNL     1       3.708  -0.779  -1.097  0.00  0.00    +0.173 C 
ATOM     17  O   UNL     1       4.748  -0.161  -1.173  0.00  0.00    -0.291 OA
BRANCH  16  21
ATOM     18  C   UNL     1       0.009   1.225  -1.643  0.00  0.00    +0.000 A 
ATOM     19  C   UNL     1       1.195   1.933  -1.730  0.00  0.00    +0.001 A 
ATOM     20  C   UNL     1       2.401   1.289  -1.553  0.00  0.00    +0.011 A 
ATOM     21  C   UNL     1       2.424  -0.084  -1.286  0.00  0.00    +0.018 A 
ATOM     22  C   UNL     1       1.222  -0.792  -1.199  0.00  0.00    +0.011 A 
ATOM     23  C   UNL     1       0.023  -0.134  -1.379  0.00  0.00    +0.001 A 
ENDBRANCH  16  21
ENDBRANCH  15  16
ENDBRANCH  14  15
ENDBRANCH   1  14
BRANCH   4  24
ATOM     24  C   UNL     1       6.199  -7.228   1.546  0.00  0.00    +0.097 C 
BRANCH  24  25
ATOM     25  C   UNL     1       5.639  -8.613   1.749  0.00  0.00    +0.029 A 
ATOM     26  N   UNL     1       4.348  -8.777   2.174  0.00  0.00    -0.311 N 
ATOM     27  C   UNL     1       3.839 -10.008   2.357  0.00  0.00    +0.327 A 
ATOM     28  O   UNL     1       2.689 -10.131   2.735  0.00  0.00    -0.247 OA
ATOM     29  N   UNL     1       4.583 -11.106   2.128  0.00  0.00    -0.275 N 
ATOM     30  C   UNL     1       5.859 -10.987   1.709  0.00  0.00    +0.254 A 
ATOM     31  O   UNL     1       6.533 -11.980   1.501  0.00  0.00    -0.268 OA
ATOM     32  C   UNL     1       6.406  -9.697   1.507  0.00  0.00    +0.091 A 
ATOM     33  H   UNL     1       4.200 -11.987   2.265  0.00  0.00    +0.173 HD
ATOM     34  H   UNL     1       3.796  -7.998   2.344  0.00  0.00    +0.170 HD
ENDBRANCH  24  25
ENDBRANCH   4  24
TORSDOF 7
