REMARK  Name = ZINC22301080
REMARK  9 active torsions:
REMARK  status: ('A' for Active; 'I' for Inactive)
REMARK    1  A    between atoms: C_1  and  C_2
REMARK    2  A    between atoms: N_13  and  C_23
REMARK    3  A    between atoms: C_14  and  S_16
REMARK    4  A    between atoms: S_16  and  C_17
REMARK    5  A    between atoms: C_17  and  C_19
REMARK    6  A    between atoms: C_17  and  C_20
REMARK    7  A    between atoms: C_23  and  C_24
REMARK    8  A    between atoms: C_24  and  C_25
REMARK    9  A    between atoms: C_24  and  C_26
REMARK                            x       y       z     vdW  Elec       q    Type
REMARK                         _______ _______ _______ _____ _____    ______ ____
ROOT
ATOM      1  C   UNL     1       0.138   7.779  -0.051  0.00  0.00    +0.008 C 
ATOM      2  C   UNL     1       0.465   6.314  -0.351  0.00  0.00    -0.009 C 
ATOM      3  C   UNL     1       1.681   5.880   0.473  0.00  0.00    +0.008 C 
ATOM      4  C   UNL     1       2.164   4.508   0.002  0.00  0.00    +0.037 C 
ATOM      5  C   UNL     1       0.984   3.541   0.010  0.00  0.00    -0.023 A 
ATOM      6  C   UNL     1      -0.284   4.000   0.024  0.00  0.00    -0.004 A 
ATOM      7  S   UNL     1      -1.300   2.548   0.035  0.00  0.00    -0.073 S 
ATOM      8  C   UNL     1      -0.016   1.324   0.009  0.00  0.00    +0.117 A 
ATOM      9  C   UNL     1       1.163   2.087   0.002  0.00  0.00    +0.076 A 
ATOM     10  C   UNL     1       2.386   1.345  -0.013  0.00  0.00    +0.263 A 
ATOM     11  O   UNL     1       3.460   1.923  -0.020  0.00  0.00    -0.267 OA
ATOM     12  N   UNL     1       2.336   0.000  -0.020  0.00  0.00    -0.287 N 
ATOM     13  C   UNL     1       1.143  -0.663  -0.012  0.00  0.00    +0.173 A 
ATOM     14  N   UNL     1       0.002  -0.004   0.002  0.00  0.00    -0.216 NA
ATOM     15  C   UNL     1      -0.730   5.431   0.033  0.00  0.00    +0.046 C 
ENDROOT
BRANCH  13  16
ATOM     16  S   UNL     1       1.129  -2.425  -0.021  0.00  0.00    -0.075 S 
BRANCH  16  17
ATOM     17  C   UNL     1      -0.656  -2.725  -0.007  0.00  0.00    +0.137 C 
ATOM     18  C   UNL     1      -1.248  -2.216   1.309  0.00  0.00    +0.029 C 
BRANCH  17  19
ATOM     19  C   UNL     1      -0.918  -4.204  -0.136  0.00  0.00    +0.224 C 
ATOM     20  O   UNL     1      -0.076  -5.002   0.217  0.00  0.00    -0.275 OA
ATOM     21  N   UNL     1      -2.089  -4.639  -0.644  0.00  0.00    -0.328 N 
ATOM     22  H   UNL     1      -2.280  -5.718  -0.738  0.00  0.00    +0.145 HD
ATOM     23  H   UNL     1      -2.852  -3.914  -0.964  0.00  0.00    +0.145 HD
ENDBRANCH  17  19
ENDBRANCH  16  17
ENDBRANCH  13  16
BRANCH  12  24
ATOM     24  C   UNL     1       3.584  -0.766  -0.036  0.00  0.00    +0.130 C 
BRANCH  24  25
ATOM     25  C   UNL     1       4.005  -1.025  -1.484  0.00  0.00    +0.003 C 
ATOM     26  C   UNL     1       5.370  -1.715  -1.502  0.00  0.00    +0.009 C 
ATOM     27  C   UNL     1       2.970  -1.924  -2.163  0.00  0.00    +0.009 C 
ENDBRANCH  24  25
ENDBRANCH  12  24
TORSDOF 5
