REMARK  Name = ZINC02792290
REMARK  9 active torsions:
REMARK  status: ('A' for Active; 'I' for Inactive)
REMARK    1  A    between atoms: C_1  and  C_2
REMARK    2  A    between atoms: C_2  and  C_3
REMARK    3  A    between atoms: C_2  and  C_4
REMARK    4  A    between atoms: C_4  and  N_5
REMARK    5  A    between atoms: C_6  and  C_11
REMARK    6  A    between atoms: C_17  and  C_26
REMARK    7  A    between atoms: C_20  and  C_22
REMARK    8  A    between atoms: C_29  and  O_32
REMARK    9  A    between atoms: O_32  and  C_33
REMARK                            x       y       z     vdW  Elec       q    Type
REMARK                         _______ _______ _______ _____ _____    ______ ____
ROOT
ATOM      1  C   UNL     1      -1.653  -2.048  -2.584  0.00  0.00    +0.078 A 
ATOM      2  C   UNL     1      -1.599  -0.668  -2.883  0.00  0.00    +0.148 A 
ATOM      3  N   UNL     1      -1.766  -0.519  -4.172  0.00  0.00    -0.177 NA
ATOM      4  N   UNL     1      -1.933  -1.774  -4.755  0.00  0.00    -0.238 N 
ATOM      5  C   UNL     1      -1.856  -2.709  -3.773  0.00  0.00    +0.129 A 
ATOM      6  N   UNL     1      -1.973  -4.073  -4.020  0.00  0.00    -0.322 N 
ATOM      7  C   UNL     1      -1.899  -4.485  -5.436  0.00  0.00    +0.104 C 
ATOM      8  C   UNL     1      -2.735  -3.510  -6.271  0.00  0.00    +0.063 C 
ATOM      9  C   UNL     1      -2.153  -2.098  -6.168  0.00  0.00    +0.215 C 
ATOM     10  H   UNL     1      -2.096  -4.715  -3.304  0.00  0.00    +0.148 HD
ENDROOT
BRANCH   1  12
ATOM     11  N   UNL     1      -0.540  -2.383  -0.316  0.00  0.00    -0.301 N 
ATOM     12  C   UNL     1      -1.511  -2.664  -1.248  0.00  0.00    +0.170 A 
ATOM     13  N   UNL     1      -2.290  -3.584  -0.726  0.00  0.00    -0.128 NA
ATOM     14  N   UNL     1      -1.878  -3.893   0.451  0.00  0.00    -0.121 NA
ATOM     15  C   UNL     1      -0.809  -3.194   0.753  0.00  0.00    +0.203 A 
ATOM     16  S   UNL     1       0.107  -3.281   2.256  0.00  0.00    -0.009 SA
BRANCH  11  17
ATOM     17  C   UNL     1       0.557  -1.420  -0.444  0.00  0.00    +0.129 C 
BRANCH  17  19
ATOM     18  C   UNL     1       2.827  -1.039  -1.416  0.00  0.00    +0.009 C 
ATOM     19  C   UNL     1       1.731  -2.078  -1.173  0.00  0.00    +0.003 C 
ATOM     20  C   UNL     1       2.289  -3.217  -0.317  0.00  0.00    +0.009 C 
ENDBRANCH  17  19
ENDBRANCH  11  17
ENDBRANCH   1  12
BRANCH   7  21
ATOM     21  C   UNL     1      -0.465  -4.453  -5.898  0.00  0.00    -0.027 A 
ATOM     22  C   UNL     1       0.369  -3.429  -5.489  0.00  0.00    +0.009 A 
ATOM     23  C   UNL     1       1.684  -3.397  -5.912  0.00  0.00    +0.046 A 
ATOM     24  C   UNL     1       2.168  -4.394  -6.747  0.00  0.00    +0.120 A 
ATOM     25  C   UNL     1       1.329  -5.421  -7.155  0.00  0.00    +0.046 A 
ATOM     26  C   UNL     1       0.017  -5.451  -6.725  0.00  0.00    +0.009 A 
BRANCH  24  27
ATOM     27  O   UNL     1       3.461  -4.364  -7.164  0.00  0.00    -0.495 OA
ATOM     28  C   UNL     1       3.890  -5.423  -8.022  0.00  0.00    +0.277 C 
ENDBRANCH  24  27
ENDBRANCH   7  21
BRANCH   9  29
ATOM     29  C   UNL     1      -3.123  -1.086  -6.780  0.00  0.00    +0.412 C 
ATOM     30  F   UNL     1      -2.583   0.200  -6.676  0.00  0.00    -0.168 F 
ATOM     31  F   UNL     1      -3.332  -1.396  -8.129  0.00  0.00    -0.168 F 
ATOM     32  F   UNL     1      -4.343  -1.137  -6.097  0.00  0.00    -0.168 F 
ENDBRANCH   9  29
TORSDOF 6
