REMARK  Name = ZINC40010929
REMARK  9 active torsions:
REMARK  status: ('A' for Active; 'I' for Inactive)
REMARK    1  A    between atoms: C_1  and  C_2
REMARK    2  A    between atoms: C_7  and  C_14
REMARK    3  A    between atoms: C_18  and  O_31
REMARK    4  A    between atoms: C_19  and  O_29
REMARK    5  A    between atoms: N_24  and  C_25
REMARK    6  A    between atoms: C_25  and  N_27
REMARK    7  A    between atoms: N_27  and  C_28
REMARK    8  A    between atoms: O_29  and  C_30
REMARK    9  A    between atoms: O_31  and  C_32
REMARK                            x       y       z     vdW  Elec       q    Type
REMARK                         _______ _______ _______ _____ _____    ______ ____
ROOT
ATOM      1  C   UNL     1       1.315  -5.752   1.294  0.00  0.00    +0.121 C 
ATOM      2  C   UNL     1       1.433  -6.381   2.660  0.00  0.00    -0.019 A 
ATOM      3  C   UNL     1       1.781  -5.557   3.722  0.00  0.00    +0.055 A 
ATOM      4  C   UNL     1       1.896  -6.070   5.001  0.00  0.00    +0.162 A 
ATOM      5  C   UNL     1       1.659  -7.424   5.222  0.00  0.00    +0.162 A 
ATOM      6  C   UNL     1       1.318  -8.241   4.160  0.00  0.00    +0.053 A 
ATOM      7  C   UNL     1       1.209  -7.723   2.875  0.00  0.00    -0.037 A 
ATOM      8  C   UNL     1       0.860  -8.680   1.766  0.00  0.00    +0.054 C 
ATOM      9  C   UNL     1       0.314  -7.931   0.552  0.00  0.00    +0.112 C 
ATOM     10  N   UNL     1       1.215  -6.802   0.274  0.00  0.00    -0.304 N 
ENDROOT
BRANCH   1  17
ATOM     11  C   UNL     1      -5.353  -6.170  -2.106  0.00  0.00    +0.044 C 
ATOM     12  C   UNL     1      -4.220  -6.044  -1.121  0.00  0.00    -0.049 A 
ATOM     13  C   UNL     1      -4.313  -6.721   0.096  0.00  0.00    +0.004 A 
ATOM     14  C   UNL     1      -3.325  -6.647   1.024  0.00  0.00    +0.010 A 
ATOM     15  C   UNL     1      -2.141  -5.837   0.731  0.00  0.00    -0.007 A 
ATOM     16  C   UNL     1      -1.124  -5.734   1.632  0.00  0.00    -0.003 C 
ATOM     17  C   UNL     1       0.063  -4.874   1.245  0.00  0.00    +0.123 C 
ATOM     18  C   UNL     1       0.022  -4.201  -0.109  0.00  0.00    +0.226 C 
ATOM     19  O   UNL     1       0.948  -3.500  -0.471  0.00  0.00    -0.275 OA
ATOM     20  N   UNL     1      -1.024  -4.379  -0.898  0.00  0.00    -0.284 N 
ATOM     21  C   UNL     1      -2.070  -5.134  -0.561  0.00  0.00    +0.041 A 
ATOM     22  C   UNL     1      -3.147  -5.281  -1.455  0.00  0.00    +0.027 A 
ATOM     23  H   UNL     1      -1.031  -3.938  -1.762  0.00  0.00    +0.155 HD
ENDBRANCH   1  17
BRANCH  10  24
ATOM     24  C   UNL     1       1.920  -6.735  -0.872  0.00  0.00    +0.133 C 
ATOM     25  S   UNL     1       1.678  -7.907  -2.096  0.00  0.00    -0.019 S 
BRANCH  24  26
ATOM     26  N   UNL     1       2.816  -5.745  -1.055  0.00  0.00    -0.329 N 
ATOM     27  C   UNL     1       3.500  -5.604  -2.344  0.00  0.00    +0.127 C 
ATOM     28  H   UNL     1       3.009  -5.125  -0.334  0.00  0.00    +0.147 HD
ENDBRANCH  24  26
ENDBRANCH  10  24
BRANCH   5  29
ATOM     29  O   UNL     1       1.764  -7.941   6.475  0.00  0.00    -0.491 OA
ATOM     30  C   UNL     1       1.507  -9.338   6.625  0.00  0.00    +0.277 C 
ENDBRANCH   5  29
BRANCH   4  31
ATOM     31  O   UNL     1       2.238  -5.257   6.037  0.00  0.00    -0.491 OA
ATOM     32  C   UNL     1       2.465  -3.880   5.732  0.00  0.00    +0.277 C 
ENDBRANCH   4  31
TORSDOF 5
