REMARK  Name = ZINC43096474
REMARK  7 active torsions:
REMARK  status: ('A' for Active; 'I' for Inactive)
REMARK    1  A    between atoms: C_1  and  C_2
REMARK    2  A    between atoms: C_2  and  C_4
REMARK    3  A    between atoms: C_2  and  N_23
REMARK    4  A    between atoms: C_4  and  C_6
REMARK    5  A    between atoms: C_4  and  S_13
REMARK    6  A    between atoms: S_13  and  C_14
REMARK    7  A    between atoms: C_20  and  N_22
REMARK                            x       y       z     vdW  Elec       q    Type
REMARK                         _______ _______ _______ _____ _____    ______ ____
ROOT
ATOM      1  C   UNL     1       0.678  -0.430   1.256  0.00  0.00    +0.070 C 
ENDROOT
BRANCH   1   2
ATOM      2  C   UNL     1      -0.172   0.197   2.330  0.00  0.00    -0.022 A 
ATOM      3  C   UNL     1      -1.236  -0.504   2.867  0.00  0.00    +0.006 A 
ATOM      4  C   UNL     1      -2.015   0.071   3.853  0.00  0.00    +0.000 A 
ATOM      5  C   UNL     1      -1.731   1.347   4.304  0.00  0.00    +0.001 A 
ATOM      6  C   UNL     1      -0.667   2.048   3.768  0.00  0.00    +0.015 A 
ATOM      7  C   UNL     1       0.117   1.471   2.785  0.00  0.00    +0.022 A 
ATOM      8 BR   UNL     1       1.577   2.427   2.056  0.00  0.00    -0.050 Br
ENDBRANCH   1   2
BRANCH   1  10
ATOM      9  C   UNL     1       0.389   1.521  -0.277  0.00  0.00    -0.013 C 
ATOM     10  C   UNL     1       0.173   0.015  -0.118  0.00  0.00    -0.060 C 
BRANCH  10  11
ATOM     11  N   UNL     1       0.913  -0.699  -1.167  0.00  0.00    +0.381 N 
ATOM     12  H   UNL     1       1.904  -0.558  -1.035  0.00  0.00    -0.090 HD
ATOM     13  H   UNL     1       0.704  -1.685  -1.115  0.00  0.00    -0.090 HD
ATOM     14  H   UNL     1       0.641  -0.345  -2.072  0.00  0.00    -0.090 HD
ENDBRANCH  10  11
ENDBRANCH   1  10
BRANCH   1  15
ATOM     15  S   UNL     1       0.576  -2.237   1.381  0.00  0.00    -0.081 S 
BRANCH  15  16
ATOM     16  C   UNL     1       1.407  -2.607   2.890  0.00  0.00    +0.171 A 
ATOM     17  N   UNL     1       1.427  -3.892   3.343  0.00  0.00    -0.302 N 
ATOM     18  H   UNL     1       0.986  -4.591   2.836  0.00  0.00    +0.171 HD
ATOM     19  C   UNL     1       2.059  -4.193   4.497  0.00  0.00    +0.254 A 
ATOM     20  O   UNL     1       2.082  -5.342   4.910  0.00  0.00    -0.268 OA
ATOM     21  C   UNL     1       2.688  -3.169   5.210  0.00  0.00    +0.113 A 
ATOM     22  C   UNL     1       2.639  -1.877   4.705  0.00  0.00    +0.124 A 
ATOM     23  N   UNL     1       2.002  -1.637   3.554  0.00  0.00    -0.209 NA
BRANCH  22  24
ATOM     24  N   UNL     1       3.250  -0.843   5.387  0.00  0.00    -0.343 N 
ATOM     25  H   UNL     1       3.715  -1.019   6.220  0.00  0.00    +0.144 HD
ATOM     26  H   UNL     1       3.215   0.059   5.032  0.00  0.00    +0.144 HD
ENDBRANCH  22  24
ENDBRANCH  15  16
ENDBRANCH   1  15
TORSDOF 6
