REMARK  Name = ZINC36352720
REMARK  2 active torsions:
REMARK  status: ('A' for Active; 'I' for Inactive)
REMARK    1  A    between atoms: C_3  and  C_8
REMARK    2  A    between atoms: C_11  and  O_24
REMARK                            x       y       z     vdW  Elec       q    Type
REMARK                         _______ _______ _______ _____ _____    ______ ____
ROOT
ATOM      1  C   UNL     1       3.672   2.186  -0.021  0.00  0.00    +0.068 C 
ATOM      2  C   UNL     1       4.513   1.809   1.209  0.00  0.00    +0.109 C 
ATOM      3  C   UNL     1       5.957   2.155   0.987  0.00  0.00    +0.190 C 
ATOM      4  N   UNL     1       6.552   2.125  -0.158  0.00  0.00    -0.197 NA
ATOM      5  C   UNL     1       5.837   1.800  -1.307  0.00  0.00    +0.169 A 
ATOM      6  C   UNL     1       4.464   1.833  -1.232  0.00  0.00    +0.045 A 
ATOM      7  S   UNL     1       3.968   1.372  -2.865  0.00  0.00    -0.054 S 
ATOM      8  C   UNL     1       5.615   1.194  -3.543  0.00  0.00    +0.163 A 
ATOM      9  N   UNL     1       6.368   1.480  -2.492  0.00  0.00    -0.206 NA
ATOM     10  N   UNL     1       6.001   0.843  -4.827  0.00  0.00    -0.305 N 
ATOM     11  C   UNL     1       5.000   0.560  -5.867  0.00  0.00    +0.135 C 
ATOM     12  C   UNL     1       5.349   1.385  -7.111  0.00  0.00    +0.179 C 
ATOM     13  O   UNL     1       6.715   1.151  -7.463  0.00  0.00    -0.377 OA
ATOM     14  C   UNL     1       7.654   1.560  -6.467  0.00  0.00    +0.179 C 
ATOM     15  C   UNL     1       7.423   0.750  -5.191  0.00  0.00    +0.135 C 
ENDROOT
BRANCH   1  18
ATOM     16  C   UNL     1      -0.017   1.377   0.010  0.00  0.00    +0.003 A 
ATOM     17  C   UNL     1       1.171   2.086   0.002  0.00  0.00    +0.004 A 
ATOM     18  C   UNL     1       2.378   1.413  -0.013  0.00  0.00    -0.036 A 
ATOM     19  C   UNL     1       2.399   0.030  -0.021  0.00  0.00    +0.042 A 
ATOM     20  C   UNL     1       1.211  -0.679  -0.013  0.00  0.00    +0.124 A 
ATOM     21  C   UNL     1       0.002  -0.004   0.002  0.00  0.00    +0.038 A 
ATOM     22  F   UNL     1       1.230  -2.030  -0.022  0.00  0.00    -0.205 F 
ENDBRANCH   1  18
BRANCH   3  23
ATOM     23  O   UNL     1       6.686   2.525   2.062  0.00  0.00    -0.495 OA
ATOM     24  H   UNL     1       7.607   2.736   1.859  0.00  0.00    +0.293 HD
ENDBRANCH   3  23
TORSDOF 2
