REMARK  Name = ZINC01385273
REMARK  2 active torsions:
REMARK  status: ('A' for Active; 'I' for Inactive)
REMARK    1  A    between atoms: C_6  and  C_7
REMARK    2  A    between atoms: N_9  and  C_10
REMARK                            x       y       z     vdW  Elec       q    Type
REMARK                         _______ _______ _______ _____ _____    ______ ____
ROOT
ATOM      1  C   UNL     1      -2.486  -2.755   0.074  0.00  0.00    +0.120 A 
ATOM      2  C   UNL     1      -2.558  -4.115   0.157  0.00  0.00    +0.045 A 
ATOM      3  C   UNL     1      -3.882  -4.735   0.232  0.00  0.00    +0.057 A 
ATOM      4  C   UNL     1      -5.008  -3.942   0.216  0.00  0.00    +0.120 A 
ATOM      5  O   UNL     1      -4.882  -2.609   0.118  0.00  0.00    -0.425 OA
ATOM      6  C   UNL     1      -3.687  -2.006   0.067  0.00  0.00    +0.359 A 
ATOM      7  O   UNL     1      -3.633  -0.791   0.009  0.00  0.00    -0.243 OA
ATOM      8  C   UNL     1      -6.389  -4.533   0.314  0.00  0.00    +0.075 C 
ATOM      9  C   UNL     1      -6.402  -5.990  -0.140  0.00  0.00    +0.016 C 
ATOM     10  C   UNL     1      -5.355  -6.779   0.659  0.00  0.00    +0.080 C 
ATOM     11  C   UNL     1      -3.998  -6.198   0.318  0.00  0.00    +0.166 C 
ATOM     12  O   UNL     1      -3.040  -6.916   0.124  0.00  0.00    -0.292 OA
ENDROOT
BRANCH   1  15
ATOM     13  C   UNL     1      -0.955  -1.319  -1.049  0.00  0.00    +0.248 C 
ATOM     14  O   UNL     1      -1.734  -1.235  -1.979  0.00  0.00    -0.270 OA
ATOM     15  N   UNL     1      -1.244  -2.111   0.003  0.00  0.00    -0.276 N 
ATOM     16  H   UNL     1      -0.593  -2.234   0.711  0.00  0.00    +0.155 HD
BRANCH  13  22
ATOM     17  C   UNL     1       0.611   0.268  -2.160  0.00  0.00    +0.014 A 
ATOM     18  C   UNL     1       1.791   0.980  -2.175  0.00  0.00    +0.021 A 
ATOM     19  C   UNL     1       2.676   0.883  -1.114  0.00  0.00    +0.041 A 
ATOM     20  C   UNL     1       2.382   0.070  -0.032  0.00  0.00    +0.021 A 
ATOM     21  C   UNL     1       1.204  -0.647  -0.005  0.00  0.00    +0.014 A 
ATOM     22  C   UNL     1       0.308  -0.553  -1.071  0.00  0.00    +0.037 A 
ATOM     23 CL   UNL     1       4.161   1.782  -1.141  0.00  0.00    -0.084 Cl
ENDBRANCH  13  22
ENDBRANCH   1  15
TORSDOF 2
