REMARK  Name = ZINC63541396
REMARK  5 active torsions:
REMARK  status: ('A' for Active; 'I' for Inactive)
REMARK    1  A    between atoms: C_7  and  C_10
REMARK    2  A    between atoms: C_10  and  C_11
REMARK    3  A    between atoms: C_11  and  N_12
REMARK    4  A    between atoms: C_13  and  C_15
REMARK    5  A    between atoms: C_15  and  N_16
REMARK                            x       y       z     vdW  Elec       q    Type
REMARK                         _______ _______ _______ _____ _____    ______ ____
ROOT
ATOM      1  N   UNL     1      -0.458  -4.798  -1.460  0.00  0.00    -0.314 N 
ATOM      2  C   UNL     1      -0.811  -5.380  -2.623  0.00  0.00    +0.233 C 
ATOM      3  O   UNL     1      -0.371  -4.957  -3.671  0.00  0.00    -0.274 OA
ATOM      4  H   UNL     1      -0.810  -5.136  -0.622  0.00  0.00    +0.149 HD
ENDROOT
BRANCH   1   5
ATOM      5  C   UNL     1       0.457  -3.653  -1.462  0.00  0.00    +0.108 C 
BRANCH   5   6
ATOM      6  C   UNL     1       0.691  -3.186  -0.024  0.00  0.00    +0.052 C 
BRANCH   6  13
ATOM      7  C   UNL     1      -0.016   1.348   0.009  0.00  0.00    +0.001 A 
ATOM      8  C   UNL     1       1.166   2.101   0.002  0.00  0.00    +0.002 A 
ATOM      9  C   UNL     1       2.391   1.535  -0.013  0.00  0.00    +0.026 A 
ATOM     10  C   UNL     1       2.529   0.120  -0.022  0.00  0.00    +0.043 A 
ATOM     11  N   UNL     1       3.587  -0.654  -0.037  0.00  0.00    -0.380 N 
ATOM     12  C   UNL     1       3.143  -2.053  -0.041  0.00  0.00    +0.144 C 
ATOM     13  C   UNL     1       1.631  -2.008  -0.025  0.00  0.00    -0.040 C 
ATOM     14  C   UNL     1       1.295  -0.698  -0.014  0.00  0.00    -0.001 A 
ATOM     15  C   UNL     1       0.002  -0.004   0.002  0.00  0.00    +0.010 A 
ATOM     16  H   UNL     1       4.509  -0.353  -0.045  0.00  0.00    +0.160 HD
ENDBRANCH   6  13
ENDBRANCH   5   6
ENDBRANCH   1   5
BRANCH   2  17
ATOM     17  C   UNL     1      -1.752  -6.557  -2.622  0.00  0.00    +0.221 C 
BRANCH  17  18
ATOM     18  N   UNL     1      -1.976  -7.005  -3.998  0.00  0.00    -0.296 N 
ATOM     19  C   UNL     1      -3.021  -6.459  -4.743  0.00  0.00    +0.069 A 
ATOM     20  C   UNL     1      -3.842  -5.494  -4.171  0.00  0.00    +0.028 A 
ATOM     21  C   UNL     1      -4.879  -4.948  -4.901  0.00  0.00    +0.002 A 
ATOM     22  C   UNL     1      -5.106  -5.358  -6.203  0.00  0.00    +0.002 A 
ATOM     23  C   UNL     1      -4.297  -6.316  -6.780  0.00  0.00    +0.028 A 
ATOM     24  C   UNL     1      -3.251  -6.871  -6.054  0.00  0.00    +0.070 A 
ATOM     25  N   UNL     1      -2.433  -7.842  -6.643  0.00  0.00    -0.310 N 
ATOM     26  C   UNL     1      -2.435  -8.410  -7.874  0.00  0.00    +0.092 A 
ATOM     27  C   UNL     1      -1.422  -9.307  -7.946  0.00  0.00    +0.020 A 
ATOM     28  C   UNL     1      -0.757  -9.305  -6.716  0.00  0.00    +0.033 A 
ATOM     29  C   UNL     1      -1.397  -8.387  -5.913  0.00  0.00    +0.112 A 
ATOM     30  C   UNL     1      -1.167  -7.938  -4.538  0.00  0.00    +0.276 A 
ATOM     31  O   UNL     1      -0.253  -8.408  -3.886  0.00  0.00    -0.265 OA
ENDBRANCH  17  18
ENDBRANCH   2  17
TORSDOF 5
