REMARK  Name = ZINC37645696
REMARK  6 active torsions:
REMARK  status: ('A' for Active; 'I' for Inactive)
REMARK    1  A    between atoms: C_1  and  N_2
REMARK    2  A    between atoms: C_5  and  C_8
REMARK    3  A    between atoms: C_8  and  N_9
REMARK    4  A    between atoms: N_9  and  S_10
REMARK    5  A    between atoms: S_10  and  C_13
REMARK    6  A    between atoms: C_14  and  N_21
REMARK                            x       y       z     vdW  Elec       q    Type
REMARK                         _______ _______ _______ _____ _____    ______ ____
ROOT
ATOM      1  S   UNL     1       1.766  -6.308   2.623  0.00  0.00    +0.061 S 
ATOM      2  O   UNL     1       2.416  -7.497   2.195  0.00  0.00    -0.153 OA
ATOM      3  O   UNL     1       1.819  -5.852   3.968  0.00  0.00    -0.153 OA
ENDROOT
BRANCH   1   4
ATOM      4  C   UNL     1       0.060  -6.493   2.221  0.00  0.00    +0.140 A 
ATOM      5  C   UNL     1      -0.905  -5.817   2.958  0.00  0.00    +0.053 A 
ATOM      6  C   UNL     1      -2.248  -5.965   2.638  0.00  0.00    +0.040 A 
ATOM      7  C   UNL     1      -2.621  -6.784   1.588  0.00  0.00    +0.021 A 
ATOM      8  C   UNL     1      -1.658  -7.455   0.857  0.00  0.00    +0.032 A 
ATOM      9  C   UNL     1      -0.318  -7.306   1.170  0.00  0.00    +0.047 A 
ATOM     10 BR   UNL     1       0.995  -8.219   0.162  0.00  0.00    -0.048 Br
ATOM     11 BR   UNL     1      -4.450  -6.986   1.152  0.00  0.00    -0.050 Br
BRANCH   5  12
ATOM     12  N   UNL     1      -0.525  -4.991   4.018  0.00  0.00    -0.356 N 
ATOM     13  H   UNL     1       0.362  -4.597   4.032  0.00  0.00    +0.142 HD
ATOM     14  H   UNL     1      -1.147  -4.811   4.739  0.00  0.00    +0.142 HD
ENDBRANCH   5  12
ENDBRANCH   1   4
BRANCH   1  15
ATOM     15  N   UNL     1       2.360  -5.080   1.684  0.00  0.00    -0.190 NA
ATOM     16  H   UNL     1       3.036  -5.265   1.014  0.00  0.00    +0.148 HD
BRANCH  15  17
ATOM     17  C   UNL     1       1.863  -3.713   1.865  0.00  0.00    +0.107 C 
BRANCH  17  22
ATOM     18  C   UNL     1       2.376   0.703   0.014  0.00  0.00    -0.096 C 
ATOM     19  N   UNL     1       2.014  -0.720   0.063  0.00  0.00    +0.378 N 
ATOM     20  C   UNL     1       2.830  -1.490  -0.910  0.00  0.00    -0.079 C 
ATOM     21  C   UNL     1       2.763  -2.938  -0.363  0.00  0.00    -0.016 C 
ATOM     22  C   UNL     1       2.807  -2.731   1.169  0.00  0.00    -0.014 C 
ATOM     23  C   UNL     1       2.335  -1.282   1.393  0.00  0.00    -0.075 C 
ATOM     24  H   UNL     1       1.032  -0.837  -0.136  0.00  0.00    -0.082 HD
ENDBRANCH  17  22
ENDBRANCH  15  17
ENDBRANCH   1  15
TORSDOF 5
