REMARK  Name = ZINC06938361
REMARK  8 active torsions:
REMARK  status: ('A' for Active; 'I' for Inactive)
REMARK    1  A    between atoms: C_1  and  C_2
REMARK    2  A    between atoms: C_4  and  C_19
REMARK    3  A    between atoms: C_9  and  C_13
REMARK    4  A    between atoms: C_9  and  C_14
REMARK    5  A    between atoms: C_21  and  O_28
REMARK    6  A    between atoms: C_22  and  O_26
REMARK    7  A    between atoms: O_26  and  C_27
REMARK    8  A    between atoms: O_28  and  C_29
REMARK                            x       y       z     vdW  Elec       q    Type
REMARK                         _______ _______ _______ _____ _____    ______ ____
ROOT
ATOM      1  C   UNL     1      -0.018   1.503   0.010  0.00  0.00    +0.067 C 
ATOM      2  C   UNL     1       0.002  -0.004   0.002  0.00  0.00    +0.056 C 
ATOM      3  C   UNL     1      -1.082  -0.809   0.003  0.00  0.00    +0.050 C 
ATOM      4  C   UNL     1      -2.573  -0.545   0.011  0.00  0.00    +0.091 C 
ATOM      5  C   UNL     1      -3.459  -1.777   0.011  0.00  0.00    +0.028 C 
ATOM      6  C   UNL     1      -2.849  -3.020  -0.001  0.00  0.00    +0.053 C 
ATOM      7  C   UNL     1      -3.698  -4.271  -0.008  0.00  0.00    +0.062 C 
ATOM      8  C   UNL     1      -5.015  -3.998   0.722  0.00  0.00    -0.023 C 
ATOM      9  C   UNL     1      -5.737  -2.839   0.028  0.00  0.00    +0.086 C 
ATOM     10  C   UNL     1      -4.835  -1.633   0.022  0.00  0.00    +0.162 C 
ATOM     11  O   UNL     1      -5.323  -0.518   0.028  0.00  0.00    -0.292 OA
ATOM     12  C   UNL     1      -4.726  -3.624   2.177  0.00  0.00    +0.011 C 
ATOM     13  C   UNL     1      -5.894  -5.250   0.677  0.00  0.00    +0.011 C 
ATOM     14  N   UNL     1      -1.534  -3.145  -0.008  0.00  0.00    -0.215 NA
ATOM     15  C   UNL     1      -0.657  -2.145  -0.007  0.00  0.00    +0.253 C 
ATOM     16  O   UNL     1       0.689  -2.131  -0.013  0.00  0.00    -0.360 OA
ATOM     17  N   UNL     1       1.103  -0.776  -0.013  0.00  0.00    -0.223 N 
ATOM     18  H   UNL     1       2.020  -0.460  -0.021  0.00  0.00    +0.207 HD
ENDROOT
BRANCH   4  19
ATOM     19  C   UNL     1      -2.913   0.277  -1.204  0.00  0.00    -0.030 A 
ATOM     20  C   UNL     1      -3.484   1.528  -1.054  0.00  0.00    +0.054 A 
ATOM     21  C   UNL     1      -3.798   2.285  -2.171  0.00  0.00    +0.163 A 
ATOM     22  C   UNL     1      -3.538   1.785  -3.443  0.00  0.00    +0.180 A 
ATOM     23  C   UNL     1      -2.966   0.531  -3.587  0.00  0.00    +0.086 A 
ATOM     24  C   UNL     1      -2.650  -0.218  -2.468  0.00  0.00    +0.028 A 
ATOM     25 CL   UNL     1      -2.640  -0.097  -5.173  0.00  0.00    -0.080 Cl
BRANCH  22  26
ATOM     26  O   UNL     1      -3.846   2.525  -4.542  0.00  0.00    -0.490 OA
ATOM     27  C   UNL     1      -2.833   3.404  -5.036  0.00  0.00    +0.277 C 
ENDBRANCH  22  26
BRANCH  21  28
ATOM     28  O   UNL     1      -4.360   3.515  -2.023  0.00  0.00    -0.491 OA
ATOM     29  C   UNL     1      -4.599   3.963  -0.688  0.00  0.00    +0.277 C 
ENDBRANCH  21  28
ENDBRANCH   4  19
TORSDOF 3
