REMARK  Name = ZINC20607431
REMARK  4 active torsions:
REMARK  status: ('A' for Active; 'I' for Inactive)
REMARK    1  A    between atoms: C_1  and  C_2
REMARK    2  A    between atoms: C_5  and  C_8
REMARK    3  A    between atoms: N_23  and  C_25
REMARK    4  A    between atoms: C_25  and  C_26
REMARK                            x       y       z     vdW  Elec       q    Type
REMARK                         _______ _______ _______ _____ _____    ______ ____
ROOT
ATOM      1  C   UNL     1      -0.045   5.894  -0.020  0.00  0.00    +0.164 C 
ATOM      2  N   UNL     1      -1.336   6.348   0.548  0.00  0.00    -0.284 N 
ATOM      3  C   UNL     1      -2.401   6.344  -0.483  0.00  0.00    +0.173 C 
ATOM      4  C   UNL     1      -1.881   7.123  -1.724  0.00  0.00    +0.103 C 
ATOM      5  S   UNL     1      -0.154   6.471  -1.766  0.00  0.00    -0.131 S 
ATOM      6  C   UNL     1      -3.526   7.113   0.172  0.00  0.00    +0.248 C 
ATOM      7  O   UNL     1      -4.560   7.483  -0.343  0.00  0.00    -0.273 OA
ATOM      8  N   UNL     1      -3.137   7.300   1.450  0.00  0.00    -0.201 N 
ATOM      9  C   UNL     1      -1.917   6.793   1.672  0.00  0.00    +0.149 C 
ATOM     10  S   UNL     1      -1.181   6.720   3.216  0.00  0.00    -0.018 S 
ATOM     11  C   UNL     1      -3.913   7.947   2.425  0.00  0.00    +0.174 A 
ATOM     12  C   UNL     1      -3.899   9.322   2.711  0.00  0.00    +0.101 A 
ATOM     13  C   UNL     1      -4.786   9.547   3.707  0.00  0.00    +0.130 A 
ATOM     14  N   UNL     1      -5.335   8.361   4.048  0.00  0.00    -0.264 N 
ATOM     15  N   UNL     1      -4.773   7.372   3.232  0.00  0.00    -0.153 NA
ATOM     16 CL   UNL     1      -2.921  10.521   1.922  0.00  0.00    -0.078 Cl
ENDROOT
BRANCH   1  21
ATOM     17  C   UNL     1       0.397   0.137   0.223  0.00  0.00    +0.044 C 
ATOM     18  C   UNL     1       0.282   1.639   0.159  0.00  0.00    -0.050 A 
ATOM     19  C   UNL     1      -0.965   2.236   0.146  0.00  0.00    +0.004 A 
ATOM     20  C   UNL     1      -1.070   3.614   0.092  0.00  0.00    +0.006 A 
ATOM     21  C   UNL     1       0.070   4.393   0.042  0.00  0.00    -0.017 A 
ATOM     22  C   UNL     1       1.317   3.795   0.050  0.00  0.00    +0.006 A 
ATOM     23  C   UNL     1       1.422   2.418   0.108  0.00  0.00    +0.004 A 
ENDBRANCH   1  21
BRANCH  14  24
ATOM     24  C   UNL     1      -6.343   8.147   5.090  0.00  0.00    +0.178 C 
BRANCH  24  25
ATOM     25  C   UNL     1      -7.535   7.442   4.497  0.00  0.00    -0.026 A 
ATOM     26  C   UNL     1      -8.580   8.177   3.969  0.00  0.00    +0.008 A 
ATOM     27  C   UNL     1      -9.672   7.531   3.421  0.00  0.00    +0.038 A 
ATOM     28  C   UNL     1      -9.725   6.147   3.411  0.00  0.00    +0.123 A 
ATOM     29  C   UNL     1      -8.680   5.412   3.945  0.00  0.00    +0.038 A 
ATOM     30  C   UNL     1      -7.586   6.060   4.488  0.00  0.00    +0.008 A 
ATOM     31  F   UNL     1     -10.794   5.515   2.880  0.00  0.00    -0.205 F 
ENDBRANCH  24  25
ENDBRANCH  14  24
TORSDOF 3
