REMARK  Name = ZINC07393077
REMARK  9 active torsions:
REMARK  status: ('A' for Active; 'I' for Inactive)
REMARK    1  A    between atoms: C_1  and  C_2
REMARK    2  A    between atoms: C_5  and  C_31
REMARK    3  A    between atoms: C_6  and  N_8
REMARK    4  A    between atoms: C_22  and  S_23
REMARK    5  A    between atoms: S_23  and  C_24
REMARK    6  A    between atoms: C_24  and  C_26
REMARK    7  A    between atoms: C_24  and  C_27
REMARK    8  A    between atoms: C_27  and  O_29
REMARK    9  A    between atoms: O_29  and  C_30
REMARK                            x       y       z     vdW  Elec       q    Type
REMARK                         _______ _______ _______ _____ _____    ______ ____
ROOT
ATOM      1  N   UNL     1       1.137   1.921   0.002  0.00  0.00    -0.254 N 
ATOM      2  C   UNL     1      -0.015   1.216   0.009  0.00  0.00    +0.283 A 
ATOM      3  O   UNL     1       0.002  -0.004   0.002  0.00  0.00    -0.265 OA
ATOM      4  C   UNL     1      -1.237   1.919   0.018  0.00  0.00    +0.132 A 
ATOM      5  C   UNL     1      -1.202   3.312   0.030  0.00  0.00    +0.104 A 
ATOM      6  C   UNL     1      -2.601   3.764   0.044  0.00  0.00    +0.026 A 
ATOM      7  C   UNL     1      -3.203   5.023   0.043  0.00  0.00    +0.012 A 
ATOM      8  C   UNL     1      -4.566   5.125   0.051  0.00  0.00    +0.001 A 
ATOM      9  C   UNL     1      -5.357   3.985   0.049  0.00  0.00    +0.002 A 
ATOM     10  C   UNL     1      -4.783   2.733   0.039  0.00  0.00    +0.026 A 
ATOM     11  C   UNL     1      -3.396   2.606   0.032  0.00  0.00    +0.049 A 
ATOM     12  N   UNL     1      -2.561   1.509   0.023  0.00  0.00    -0.349 N 
ATOM     13  H   UNL     1      -2.857   0.585   0.020  0.00  0.00    +0.166 HD
ATOM     14  N   UNL     1      -0.022   3.953   0.022  0.00  0.00    -0.221 NA
ATOM     15  C   UNL     1       1.111   3.287   0.009  0.00  0.00    +0.178 A 
ENDROOT
BRANCH   1  21
ATOM     16  C   UNL     1       4.827  -0.102  -2.544  0.00  0.00    +0.044 C 
ATOM     17  C   UNL     1       4.176   0.255  -1.233  0.00  0.00    -0.048 A 
ATOM     18  C   UNL     1       4.792  -0.082  -0.041  0.00  0.00    +0.004 A 
ATOM     19  C   UNL     1       4.198   0.244   1.164  0.00  0.00    +0.005 A 
ATOM     20  C   UNL     1       2.987   0.908   1.181  0.00  0.00    -0.026 A 
ATOM     21  C   UNL     1       2.366   1.248  -0.013  0.00  0.00    +0.055 A 
ATOM     22  C   UNL     1       2.962   0.914  -1.222  0.00  0.00    +0.030 A 
ATOM     23  C   UNL     1       2.340   1.262   2.495  0.00  0.00    +0.046 C 
ENDBRANCH   1  21
BRANCH  15  24
ATOM     24  S   UNL     1       2.631   4.176  -0.001  0.00  0.00    -0.073 S 
BRANCH  24  25
ATOM     25  C   UNL     1       2.003   5.873   0.013  0.00  0.00    +0.160 C 
ATOM     26  C   UNL     1       1.242   6.146  -1.286  0.00  0.00    +0.031 C 
BRANCH  25  27
ATOM     27  C   UNL     1       3.157   6.835   0.131  0.00  0.00    +0.320 C 
ATOM     28  O   UNL     1       4.258   6.508  -0.244  0.00  0.00    -0.250 OA
BRANCH  27  29
ATOM     29  O   UNL     1       2.962   8.057   0.653  0.00  0.00    -0.467 OA
ATOM     30  C   UNL     1       4.119   8.931   0.736  0.00  0.00    +0.280 C 
ENDBRANCH  27  29
ENDBRANCH  25  27
ENDBRANCH  24  25
ENDBRANCH  15  24
TORSDOF 5
