REMARK  Name = ZINC60429202
REMARK  6 active torsions:
REMARK  status: ('A' for Active; 'I' for Inactive)
REMARK    1  A    between atoms: C_1  and  C_2
REMARK    2  A    between atoms: C_6  and  C_27
REMARK    3  A    between atoms: C_7  and  N_8
REMARK    4  A    between atoms: C_9  and  C_13
REMARK    5  A    between atoms: C_13  and  S_14
REMARK    6  A    between atoms: S_14  and  C_15
REMARK                            x       y       z     vdW  Elec       q    Type
REMARK                         _______ _______ _______ _____ _____    ______ ____
ROOT
ATOM      1  C   UNL     1       0.226  -2.204   3.970  0.00  0.00    +0.155 C 
ENDROOT
BRANCH   1   3
ATOM      2  N   UNL     1      -0.592  -0.209   2.606  0.00  0.00    -0.196 N 
ATOM      3  C   UNL     1      -0.017  -0.740   3.707  0.00  0.00    +0.167 A 
ATOM      4  N   UNL     1       0.288   0.252   4.502  0.00  0.00    -0.112 NA
ATOM      5  N   UNL     1      -0.054   1.373   3.979  0.00  0.00    -0.023 NA
ATOM      6  N   UNL     1      -0.591   1.180   2.822  0.00  0.00    -0.039 NA
BRANCH   2  13
ATOM      7  C   UNL     1       1.283  -1.498   0.895  0.00  0.00    +0.046 C 
ATOM      8  C   UNL     1      -0.199  -1.538   0.625  0.00  0.00    -0.025 A 
ATOM      9  C   UNL     1      -0.683  -2.219  -0.475  0.00  0.00    +0.005 A 
ATOM     10  C   UNL     1      -2.043  -2.257  -0.724  0.00  0.00    +0.001 A 
ATOM     11  C   UNL     1      -2.922  -1.613   0.127  0.00  0.00    +0.005 A 
ATOM     12  C   UNL     1      -2.444  -0.931   1.229  0.00  0.00    -0.025 A 
ATOM     13  C   UNL     1      -1.080  -0.896   1.485  0.00  0.00    +0.075 A 
ATOM     14  C   UNL     1      -3.403  -0.230   2.156  0.00  0.00    +0.046 C 
ENDBRANCH   2  13
ENDBRANCH   1   3
BRANCH   1  15
ATOM     15  S   UNL     1       2.006  -2.543   3.898  0.00  0.00    -0.080 S 
BRANCH  15  16
ATOM     16  C   UNL     1       2.124  -4.271   4.222  0.00  0.00    +0.168 A 
ATOM     17  N   UNL     1       3.290  -4.983   4.274  0.00  0.00    -0.333 N 
ATOM     18  H   UNL     1       4.185  -4.632   4.142  0.00  0.00    +0.168 HD
ATOM     19  C   UNL     1       2.955  -6.299   4.552  0.00  0.00    +0.070 A 
ATOM     20  C   UNL     1       3.692  -7.462   4.723  0.00  0.00    +0.069 A 
ATOM     21  C   UNL     1       3.046  -8.651   4.999  0.00  0.00    +0.160 A 
ATOM     22  C   UNL     1       1.660  -8.689   5.107  0.00  0.00    +0.161 A 
ATOM     23  C   UNL     1       0.915  -7.542   4.940  0.00  0.00    +0.071 A 
ATOM     24  C   UNL     1       1.556  -6.332   4.660  0.00  0.00    +0.093 A 
ATOM     25  N   UNL     1       1.108  -5.065   4.454  0.00  0.00    -0.222 NA
ATOM     26  F   UNL     1       1.040  -9.859   5.377  0.00  0.00    -0.202 F 
ATOM     27  F   UNL     1       3.765  -9.783   5.165  0.00  0.00    -0.202 F 
ENDBRANCH  15  16
ENDBRANCH   1  15
TORSDOF 4
