REMARK  Name = ZINC39922859
REMARK  4 active torsions:
REMARK  status: ('A' for Active; 'I' for Inactive)
REMARK    1  A    between atoms: C_10  and  C_11
REMARK    2  A    between atoms: C_13  and  C_17
REMARK    3  A    between atoms: N_19  and  N_20
REMARK    4  A    between atoms: C_21  and  C_22
REMARK                            x       y       z     vdW  Elec       q    Type
REMARK                         _______ _______ _______ _____ _____    ______ ____
ROOT
ATOM      1  C   UNL     1       6.991   2.412  -1.369  0.00  0.00    +0.263 C 
ATOM      2  O   UNL     1       7.513   1.760  -2.248  0.00  0.00    -0.271 OA
ATOM      3  N   UNL     1       6.813   3.739  -1.530  0.00  0.00    -0.205 N 
ATOM      4  H   UNL     1       6.395   4.260  -0.827  0.00  0.00    +0.177 HD
ENDROOT
BRANCH   1   7
ATOM      5  C   UNL     1       4.948   0.137  -0.044  0.00  0.00    +0.092 C 
ATOM      6  C   UNL     1       5.045   1.480  -0.130  0.00  0.00    +0.041 C 
ATOM      7  C   UNL     1       6.540   1.740  -0.098  0.00  0.00    +0.240 C 
ATOM      8  N   UNL     1       7.114   0.388   0.010  0.00  0.00    -0.170 NA
ATOM      9  N   UNL     1       6.185  -0.422   0.039  0.00  0.00    -0.153 NA
BRANCH   5  19
ATOM     10  C   UNL     1       2.737  -3.236   3.098  0.00  0.00    +0.001 A 
ATOM     11  C   UNL     1       3.941  -2.534   3.110  0.00  0.00    +0.001 A 
ATOM     12  C   UNL     1       4.263  -1.679   2.100  0.00  0.00    +0.009 A 
ATOM     13  C   UNL     1       3.374  -1.500   1.031  0.00  0.00    -0.009 A 
ATOM     14  C   UNL     1       2.150  -2.212   1.017  0.00  0.00    -0.017 A 
ATOM     15  C   UNL     1       1.851  -3.087   2.076  0.00  0.00    +0.008 A 
ATOM     16  C   UNL     1       1.258  -2.035  -0.054  0.00  0.00    +0.008 A 
ATOM     17  C   UNL     1       1.572  -1.182  -1.070  0.00  0.00    +0.001 A 
ATOM     18  C   UNL     1       2.768  -0.475  -1.071  0.00  0.00    +0.011 A 
ATOM     19  C   UNL     1       3.675  -0.620  -0.036  0.00  0.00    +0.010 A 
ENDBRANCH   5  19
ENDBRANCH   1   7
BRANCH   3  20
ATOM     20  N   UNL     1       7.231   4.364  -2.711  0.00  0.00    -0.188 NA
ATOM     21  C   UNL     1       7.059   5.652  -2.867  0.00  0.00    +0.136 C 
BRANCH  21  22
ATOM     22  C   UNL     1       7.478   6.278  -4.050  0.00  0.00    +0.000 C 
ATOM     23  C   UNL     1       7.374   7.630  -4.370  0.00  0.00    +0.004 A 
ATOM     24  C   UNL     1       6.853   8.739  -3.668  0.00  0.00    +0.010 A 
ATOM     25  C   UNL     1       6.884   9.970  -4.238  0.00  0.00    +0.001 A 
ATOM     26  C   UNL     1       7.421  10.175  -5.512  0.00  0.00    +0.002 A 
ATOM     27  C   UNL     1       7.938   9.158  -6.242  0.00  0.00    +0.026 A 
ATOM     28  C   UNL     1       7.942   7.840  -5.713  0.00  0.00    +0.043 A 
ATOM     29  N   UNL     1       8.376   6.702  -6.212  0.00  0.00    -0.380 N 
ATOM     30  C   UNL     1       8.143   5.627  -5.242  0.00  0.00    +0.150 C 
ATOM     31  H   UNL     1       8.789   6.592  -7.083  0.00  0.00    +0.160 HD
ENDBRANCH  21  22
ENDBRANCH   3  20
TORSDOF 4
