REMARK  Name = ZINC49068400
REMARK  4 active torsions:
REMARK  status: ('A' for Active; 'I' for Inactive)
REMARK    1  A    between atoms: C_1  and  C_2
REMARK    2  A    between atoms: C_5  and  C_7
REMARK    3  A    between atoms: C_16  and  S_18
REMARK    4  A    between atoms: S_18  and  C_19
REMARK                            x       y       z     vdW  Elec       q    Type
REMARK                         _______ _______ _______ _____ _____    ______ ____
ROOT
ATOM      1  C   UNL     1       1.040  -4.033  -0.024  0.00  0.00    +0.010 A 
ATOM      2  C   UNL     1       0.587  -4.953   0.862  0.00  0.00    +0.057 A 
ATOM      3  S   UNL     1       1.511  -6.419   0.447  0.00  0.00    -0.076 S 
ATOM      4  C   UNL     1       2.476  -5.773  -0.894  0.00  0.00    +0.117 A 
ATOM      5  C   UNL     1       2.056  -4.435  -0.994  0.00  0.00    +0.080 A 
ATOM      6  C   UNL     1       2.681  -3.660  -2.018  0.00  0.00    +0.261 A 
ATOM      7  O   UNL     1       2.381  -2.489  -2.175  0.00  0.00    -0.267 OA
ATOM      8  N   UNL     1       3.603  -4.239  -2.808  0.00  0.00    -0.301 N 
ATOM      9  H   UNL     1       4.029  -3.716  -3.505  0.00  0.00    +0.171 HD
ATOM     10  C   UNL     1       3.951  -5.549  -2.647  0.00  0.00    +0.170 A 
ATOM     11  N   UNL     1       3.397  -6.284  -1.703  0.00  0.00    -0.216 NA
ENDROOT
BRANCH   1  16
ATOM     12  C   UNL     1      -0.018   1.503   0.010  0.00  0.00    +0.051 C 
ATOM     13  C   UNL     1       0.002  -0.004   0.002  0.00  0.00    -0.013 A 
ATOM     14  C   UNL     1      -1.042  -0.871   0.002  0.00  0.00    +0.011 A 
ATOM     15  C   UNL     1      -0.789  -2.227  -0.007  0.00  0.00    +0.016 A 
ATOM     16  C   UNL     1       0.512  -2.653  -0.015  0.00  0.00    +0.021 A 
ATOM     17  S   UNL     1       1.406  -1.107  -0.018  0.00  0.00    -0.093 S 
ENDBRANCH   1  16
BRANCH  10  18
ATOM     18  S   UNL     1       5.164  -6.264  -3.706  0.00  0.00    -0.091 S 
ATOM     19  C   UNL     1       5.294  -7.979  -3.130  0.00  0.00    +0.093 C 
ENDBRANCH  10  18
TORSDOF 2
