REMARK  Name = ZINC05770421
REMARK  5 active torsions:
REMARK  status: ('A' for Active; 'I' for Inactive)
REMARK    1  A    between atoms: C_4  and  N_25
REMARK    2  A    between atoms: C_5  and  C_7
REMARK    3  A    between atoms: N_11  and  N_15
REMARK    4  A    between atoms: C_16  and  C_18
REMARK    5  A    between atoms: C_21  and  O_24
REMARK                            x       y       z     vdW  Elec       q    Type
REMARK                         _______ _______ _______ _____ _____    ______ ____
ROOT
ATOM      1  C   UNL     1       8.895   7.414   2.138  0.00  0.00    +0.030 C 
ATOM      2  C   UNL     1       8.369   6.179   1.942  0.00  0.00    +0.079 C 
ATOM      3  C   UNL     1       7.001   5.684   2.206  0.00  0.00    +0.275 C 
ATOM      4  O   UNL     1       6.138   6.407   2.669  0.00  0.00    -0.267 OA
ATOM      5  N   UNL     1       6.764   4.417   1.914  0.00  0.00    -0.169 N 
ATOM      6  C   UNL     1       7.725   3.619   1.405  0.00  0.00    +0.138 C 
ATOM      7  S   UNL     1       7.615   1.966   0.972  0.00  0.00    -0.026 S 
ATOM      8  S   UNL     1       9.139   4.703   1.290  0.00  0.00    -0.059 S 
ENDROOT
BRANCH   1  13
ATOM      9  C   UNL     1      12.600   6.861   1.961  0.00  0.00    +0.001 A 
ATOM     10  C   UNL     1      13.030   8.086   1.482  0.00  0.00    +0.002 A 
ATOM     11  C   UNL     1      12.118   9.092   1.215  0.00  0.00    +0.033 A 
ATOM     12  C   UNL     1      10.772   8.880   1.421  0.00  0.00    +0.133 A 
ATOM     13  C   UNL     1      10.329   7.647   1.911  0.00  0.00    +0.006 A 
ATOM     14  C   UNL     1      11.257   6.634   2.177  0.00  0.00    +0.010 A 
BRANCH  12  15
ATOM     15  N   UNL     1       9.798   9.956   1.129  0.00  0.00    +0.057 N 
ATOM     16  O   UNL     1      10.191  11.065   0.815  0.00  0.00    -0.126 OA
ATOM     17  O   UNL     1       8.603   9.732   1.204  0.00  0.00    -0.126 OA
ENDBRANCH  12  15
ENDBRANCH   1  13
BRANCH   5  18
ATOM     18  N   UNL     1       5.487   3.889   2.143  0.00  0.00    -0.222 N 
ATOM     19  C   UNL     1       4.654   3.665   1.106  0.00  0.00    +0.261 C 
ATOM     20  O   UNL     1       5.012   3.922  -0.027  0.00  0.00    -0.269 OA
ATOM     21  H   UNL     1       5.201   3.684   3.047  0.00  0.00    +0.174 HD
BRANCH  19  22
ATOM     22  C   UNL     1       3.308   3.110   1.348  0.00  0.00    +0.038 A 
ATOM     23  C   UNL     1       2.444   2.877   0.275  0.00  0.00    +0.016 A 
ATOM     24  C   UNL     1       1.189   2.359   0.504  0.00  0.00    +0.046 A 
ATOM     25  C   UNL     1       0.782   2.067   1.800  0.00  0.00    +0.117 A 
ATOM     26  C   UNL     1       1.637   2.302   2.871  0.00  0.00    +0.046 A 
ATOM     27  C   UNL     1       2.895   2.815   2.649  0.00  0.00    +0.016 A 
BRANCH  25  28
ATOM     28  O   UNL     1      -0.456   1.556   2.022  0.00  0.00    -0.507 OA
ATOM     29  H   UNL     1      -0.492   0.590   2.003  0.00  0.00    +0.292 HD
ENDBRANCH  25  28
ENDBRANCH  19  22
ENDBRANCH   5  18
TORSDOF 5
