REMARK  Name = ZINC12549030
REMARK  7 active torsions:
REMARK  status: ('A' for Active; 'I' for Inactive)
REMARK    1  A    between atoms: C_7  and  N_30
REMARK    2  A    between atoms: C_9  and  C_11
REMARK    3  A    between atoms: C_11  and  S_12
REMARK    4  A    between atoms: S_12  and  C_13
REMARK    5  A    between atoms: N_18  and  C_19
REMARK    6  A    between atoms: C_22  and  O_25
REMARK    7  A    between atoms: O_25  and  C_26
REMARK                            x       y       z     vdW  Elec       q    Type
REMARK                         _______ _______ _______ _____ _____    ______ ____
ROOT
ATOM      1  C   UNL     1      -3.713  -1.394  -1.492  0.00  0.00    +0.160 A 
ATOM      2  N   UNL     1      -4.230  -1.927  -0.401  0.00  0.00    -0.133 NA
ATOM      3  N   UNL     1      -5.313  -2.770  -0.498  0.00  0.00    -0.125 NA
ATOM      4  C   UNL     1      -5.829  -3.042  -1.681  0.00  0.00    +0.187 A 
ATOM      5  S   UNL     1      -4.776  -2.079  -2.755  0.00  0.00    -0.024 S 
ATOM      6  N   UNL     1      -6.908  -3.857  -2.005  0.00  0.00    -0.292 N 
ATOM      7  H   UNL     1      -7.121  -4.032  -2.935  0.00  0.00    +0.154 HD
ENDROOT
BRANCH   6   8
ATOM      8  C   UNL     1      -7.686  -4.425  -0.989  0.00  0.00    +0.033 A 
ATOM      9  C   UNL     1      -8.380  -5.605  -1.223  0.00  0.00    +0.027 A 
ATOM     10  C   UNL     1      -9.143  -6.167  -0.219  0.00  0.00    +0.048 A 
ATOM     11  C   UNL     1      -9.225  -5.548   1.020  0.00  0.00    +0.130 A 
ATOM     12  C   UNL     1      -8.536  -4.367   1.253  0.00  0.00    +0.048 A 
ATOM     13  C   UNL     1      -7.768  -3.806   0.251  0.00  0.00    +0.027 A 
BRANCH  11  14
ATOM     14  O   UNL     1      -9.981  -6.100   2.006  0.00  0.00    -0.406 OA
BRANCH  14  15
ATOM     15  C   UNL     1     -10.663  -7.317   1.698  0.00  0.00    +0.575 C 
ATOM     16  F   UNL     1      -9.730  -8.298   1.345  0.00  0.00    -0.133 F 
ATOM     17  F   UNL     1     -11.387  -7.742   2.816  0.00  0.00    -0.133 F 
ATOM     18  F   UNL     1     -11.539  -7.102   0.629  0.00  0.00    -0.133 F 
ENDBRANCH  14  15
ENDBRANCH  11  14
ENDBRANCH   6   8
BRANCH   1  19
ATOM     19  S   UNL     1      -2.346  -0.295  -1.659  0.00  0.00    -0.089 S 
BRANCH  19  20
ATOM     20  C   UNL     1      -1.777  -0.041   0.045  0.00  0.00    +0.152 C 
BRANCH  20  29
ATOM     21  C   UNL     1       3.867   2.890  -0.060  0.00  0.00    +0.001 A 
ATOM     22  C   UNL     1       4.051   1.514  -0.167  0.00  0.00    +0.002 A 
ATOM     23  C   UNL     1       2.988   0.661  -0.168  0.00  0.00    +0.028 A 
ATOM     24  C   UNL     1       1.689   1.174  -0.060  0.00  0.00    +0.076 A 
ATOM     25  C   UNL     1       1.504   2.574   0.050  0.00  0.00    +0.040 A 
ATOM     26  C   UNL     1       2.616   3.423   0.047  0.00  0.00    +0.013 A 
ATOM     27  C   UNL     1       0.180   3.068   0.158  0.00  0.00    +0.127 A 
ATOM     28  N   UNL     1      -0.817   2.193   0.150  0.00  0.00    -0.216 NA
ATOM     29  C   UNL     1      -0.595   0.892   0.046  0.00  0.00    +0.142 A 
ATOM     30  N   UNL     1       0.608   0.379  -0.057  0.00  0.00    -0.231 NA
BRANCH  27  31
ATOM     31  N   UNL     1      -0.065   4.420   0.266  0.00  0.00    -0.343 N 
ATOM     32  H   UNL     1      -0.976   4.743   0.339  0.00  0.00    +0.144 HD
ATOM     33  H   UNL     1       0.675   5.048   0.270  0.00  0.00    +0.144 HD
ENDBRANCH  27  31
ENDBRANCH  20  29
ENDBRANCH  19  20
ENDBRANCH   1  19
TORSDOF 7
