REMARK  Name = ZINC12028840
REMARK  8 active torsions:
REMARK  status: ('A' for Active; 'I' for Inactive)
REMARK    1  A    between atoms: C_1  and  C_2
REMARK    2  A    between atoms: C_5  and  C_11
REMARK    3  A    between atoms: C_11  and  C_12
REMARK    4  A    between atoms: N_14  and  C_15
REMARK    5  A    between atoms: C_15  and  C_16
REMARK    6  A    between atoms: C_21  and  C_26
REMARK    7  A    between atoms: C_31  and  C_32
REMARK    8  A    between atoms: C_32  and  C_34
REMARK                            x       y       z     vdW  Elec       q    Type
REMARK                         _______ _______ _______ _____ _____    ______ ____
ROOT
ATOM      1  C   UNL     1      -1.607  -0.493  -0.212  0.00  0.00    +0.195 C 
ATOM      2  C   UNL     1      -1.661  -2.037  -0.304  0.00  0.00    +0.085 C 
ATOM      3  C   UNL     1      -2.747  -2.372   0.701  0.00  0.00    -0.002 A 
ATOM      4  C   UNL     1      -3.484  -3.512   0.914  0.00  0.00    +0.016 A 
ATOM      5  C   UNL     1      -4.443  -3.541   1.928  0.00  0.00    -0.017 A 
ATOM      6  C   UNL     1      -4.644  -2.406   2.716  0.00  0.00    +0.012 A 
ATOM      7  C   UNL     1      -3.899  -1.270   2.497  0.00  0.00    +0.046 A 
ATOM      8  C   UNL     1      -2.938  -1.240   1.487  0.00  0.00    +0.124 A 
ATOM      9  O   UNL     1      -2.098  -0.235   1.114  0.00  0.00    -0.487 OA
ENDROOT
BRANCH   5  10
ATOM     10  C   UNL     1      -5.242  -4.764   2.165  0.00  0.00    -0.007 A 
ATOM     11  C   UNL     1      -6.632  -4.719   2.092  0.00  0.00    +0.009 A 
ATOM     12  C   UNL     1      -7.373  -5.862   2.313  0.00  0.00    +0.001 A 
ATOM     13  C   UNL     1      -6.745  -7.061   2.610  0.00  0.00    +0.001 A 
ATOM     14  C   UNL     1      -5.371  -7.130   2.687  0.00  0.00    +0.012 A 
ATOM     15  C   UNL     1      -4.601  -5.984   2.460  0.00  0.00    +0.025 A 
BRANCH  15  16
ATOM     16  C   UNL     1      -3.136  -6.051   2.535  0.00  0.00    +0.161 C 
ATOM     17  O   UNL     1      -2.478  -5.035   2.453  0.00  0.00    -0.292 OA
ATOM     18  C   UNL     1      -2.450  -7.380   2.713  0.00  0.00    +0.091 C 
ENDBRANCH  15  16
ENDBRANCH   5  10
BRANCH   1  19
ATOM     19  C   UNL     1      -0.170   0.009  -0.364  0.00  0.00    +0.149 C 
BRANCH  19  22
ATOM     20  C   UNL     1       1.016   2.137  -0.379  0.00  0.00    +0.215 C 
ATOM     21  O   UNL     1       2.050   1.527  -0.551  0.00  0.00    -0.276 OA
ATOM     22  N   UNL     1      -0.150   1.471  -0.272  0.00  0.00    -0.312 N 
ATOM     23  H   UNL     1      -0.978   1.959  -0.139  0.00  0.00    +0.149 HD
BRANCH  20  24
ATOM     24  C   UNL     1       1.036   3.641  -0.285  0.00  0.00    +0.118 C 
BRANCH  24  28
ATOM     25  C   UNL     1       4.890   5.556   0.537  0.00  0.00    +0.028 C 
ATOM     26  C   UNL     1       3.935   6.155  -0.497  0.00  0.00    +0.071 C 
ATOM     27  C   UNL     1       2.511   5.660  -0.226  0.00  0.00    +0.044 C 
ATOM     28  C   UNL     1       2.473   4.143  -0.438  0.00  0.00    +0.082 C 
ATOM     29  N   UNL     1       2.959   3.833  -1.783  0.00  0.00    -0.323 N 
ATOM     30  C   UNL     1       3.852   4.621  -2.401  0.00  0.00    +0.131 C 
ATOM     31  S   UNL     1       4.386   4.187  -3.968  0.00  0.00    -0.019 S 
ATOM     32  N   UNL     1       4.343   5.736  -1.839  0.00  0.00    -0.324 N 
ATOM     33  H   UNL     1       2.629   3.042  -2.237  0.00  0.00    +0.148 HD
ATOM     34  H   UNL     1       4.980   6.276  -2.332  0.00  0.00    +0.148 HD
ENDBRANCH  24  28
ENDBRANCH  20  24
ENDBRANCH  19  22
ENDBRANCH   1  19
TORSDOF 6
