REMARK  Name = ZINC17085089
REMARK  7 active torsions:
REMARK  status: ('A' for Active; 'I' for Inactive)
REMARK    1  A    between atoms: C_2  and  C_3
REMARK    2  A    between atoms: C_3  and  N_4
REMARK    3  A    between atoms: C_7  and  C_19
REMARK    4  A    between atoms: N_11  and  C_12
REMARK    5  A    between atoms: C_19  and  C_20
REMARK    6  A    between atoms: N_22  and  C_23
REMARK    7  A    between atoms: C_26  and  C_29
REMARK                            x       y       z     vdW  Elec       q    Type
REMARK                         _______ _______ _______ _____ _____    ______ ____
ROOT
ATOM      1  N   UNL     1      -2.185   4.030  -0.813  0.00  0.00    -0.246 N 
ATOM      2  C   UNL     1      -1.627   4.095  -2.010  0.00  0.00    +0.235 C 
ATOM      3  O   UNL     1      -0.474   3.771  -2.201  0.00  0.00    -0.274 OA
ATOM      4  C   UNL     1      -2.522   4.596  -3.131  0.00  0.00    +0.149 C 
ATOM      5  S   UNL     1      -4.074   4.905  -2.201  0.00  0.00    -0.077 S 
ATOM      6  C   UNL     1      -3.494   4.402  -0.588  0.00  0.00    +0.164 C 
ATOM      7  N   UNL     1      -4.157   4.388   0.544  0.00  0.00    -0.226 NA
ENDROOT
BRANCH   7   8
ATOM      8  C   UNL     1      -5.464   4.797   0.577  0.00  0.00    +0.067 A 
ATOM      9  C   UNL     1      -5.849   5.967  -0.081  0.00  0.00    +0.029 A 
ATOM     10  C   UNL     1      -7.168   6.371  -0.048  0.00  0.00    +0.017 A 
ATOM     11  C   UNL     1      -8.106   5.625   0.644  0.00  0.00    +0.018 A 
ATOM     12  C   UNL     1      -7.729   4.467   1.304  0.00  0.00    +0.017 A 
ATOM     13  C   UNL     1      -6.415   4.050   1.274  0.00  0.00    +0.029 A 
ATOM     14 BR   UNL     1      -9.910   6.190   0.690  0.00  0.00    -0.050 Br
ENDBRANCH   7   8
BRANCH   1  15
ATOM     15  C   UNL     1      -1.383   3.551   0.316  0.00  0.00    +0.142 C 
BRANCH  15  17
ATOM     16  C   UNL     1      -0.468   1.291   0.438  0.00  0.00    +0.005 C 
ATOM     17  C   UNL     1      -1.530   2.056   0.439  0.00  0.00    -0.015 C 
ENDBRANCH  15  17
ENDBRANCH   1  15
BRANCH   4  18
ATOM     18  C   UNL     1      -1.972   5.888  -3.739  0.00  0.00    +0.120 C 
BRANCH  18  19
ATOM     19  C   UNL     1      -2.919   6.387  -4.800  0.00  0.00    +0.219 C 
ATOM     20  O   UNL     1      -3.934   5.769  -5.046  0.00  0.00    -0.275 OA
ATOM     21  N   UNL     1      -2.639   7.519  -5.475  0.00  0.00    -0.285 N 
ATOM     22  H   UNL     1      -1.869   8.053  -5.227  0.00  0.00    +0.155 HD
BRANCH  21  23
ATOM     23  C   UNL     1      -3.456   7.921  -6.531  0.00  0.00    +0.033 A 
ATOM     24  C   UNL     1      -4.064   6.967  -7.341  0.00  0.00    +0.024 A 
ATOM     25  C   UNL     1      -4.876   7.361  -8.380  0.00  0.00    +0.017 A 
ATOM     26  C   UNL     1      -5.080   8.722  -8.629  0.00  0.00    +0.063 A 
ATOM     27  C   UNL     1      -4.463   9.678  -7.816  0.00  0.00    +0.017 A 
ATOM     28  C   UNL     1      -3.658   9.276  -6.775  0.00  0.00    +0.024 A 
BRANCH  26  29
ATOM     29  C   UNL     1      -5.944   9.148  -9.745  0.00  0.00    +0.387 C 
ATOM     30  O   UNL     1      -6.121  10.331  -9.959  0.00  0.00    -0.241 OA
ATOM     31  O   UNL     1      -6.538   8.225 -10.527  0.00  0.00    -0.241 OA
ENDBRANCH  26  29
ENDBRANCH  21  23
ENDBRANCH  18  19
ENDBRANCH   4  18
TORSDOF 7
