REMARK  Name = ZINC45097198
REMARK  5 active torsions:
REMARK  status: ('A' for Active; 'I' for Inactive)
REMARK    1  A    between atoms: C_1  and  C_2
REMARK    2  A    between atoms: C_4  and  C_7
REMARK    3  A    between atoms: C_7  and  N_13
REMARK    4  A    between atoms: N_13  and  S_14
REMARK    5  A    between atoms: S_14  and  C_17
REMARK                            x       y       z     vdW  Elec       q    Type
REMARK                         _______ _______ _______ _____ _____    ______ ____
ROOT
ATOM      1  N   UNL     1      -2.949  -3.536  -1.351  0.00  0.00    -0.176 NA
ATOM      2  H   UNL     1      -3.891  -3.514  -1.579  0.00  0.00    +0.149 HD
ENDROOT
BRANCH   1   3
ATOM      3  C   UNL     1      -2.536  -3.596   0.054  0.00  0.00    +0.102 C 
ATOM      4  C   UNL     1      -3.764  -3.434   0.953  0.00  0.00    +0.032 C 
ATOM      5  C   UNL     1      -4.758  -4.561   0.665  0.00  0.00    +0.002 C 
ATOM      6  C   UNL     1      -4.095  -5.911   0.945  0.00  0.00    +0.000 C 
ATOM      7  C   UNL     1      -2.868  -6.072   0.045  0.00  0.00    +0.002 C 
ATOM      8  C   UNL     1      -1.873  -4.946   0.333  0.00  0.00    +0.032 C 
BRANCH   3  12
ATOM      9  C   UNL     1      -0.571   1.002   0.354  0.00  0.00    +0.112 C 
ATOM     10  C   UNL     1      -0.719  -0.494   0.461  0.00  0.00    +0.224 A 
ATOM     11  N   UNL     1      -1.764  -1.186   0.103  0.00  0.00    -0.194 NA
ATOM     12  C   UNL     1      -1.556  -2.487   0.337  0.00  0.00    +0.193 A 
ATOM     13  N   UNL     1      -0.369  -2.638   0.851  0.00  0.00    -0.059 NA
ATOM     14  O   UNL     1       0.202  -1.341   0.936  0.00  0.00    -0.338 OA
ENDBRANCH   3  12
ENDBRANCH   1   3
BRANCH   1  15
ATOM     15  S   UNL     1      -1.806  -3.506  -2.549  0.00  0.00    +0.062 S 
ATOM     16  O   UNL     1      -2.510  -3.423  -3.780  0.00  0.00    -0.153 OA
ATOM     17  O   UNL     1      -0.835  -2.544  -2.160  0.00  0.00    -0.153 OA
BRANCH  15  18
ATOM     18  C   UNL     1      -0.997  -5.071  -2.536  0.00  0.00    +0.142 A 
ATOM     19  C   UNL     1       0.302  -5.175  -2.072  0.00  0.00    +0.069 A 
ATOM     20  C   UNL     1       0.937  -6.404  -2.062  0.00  0.00    +0.022 A 
ATOM     21  C   UNL     1       0.274  -7.529  -2.517  0.00  0.00    +0.003 A 
ATOM     22  C   UNL     1      -1.024  -7.426  -2.981  0.00  0.00    +0.022 A 
ATOM     23  C   UNL     1      -1.662  -6.198  -2.986  0.00  0.00    +0.069 A 
ATOM     24 CL   UNL     1      -3.295  -6.070  -3.562  0.00  0.00    -0.081 Cl
ATOM     25 CL   UNL     1       1.135  -3.763  -1.501  0.00  0.00    -0.081 Cl
ENDBRANCH  15  18
ENDBRANCH   1  15
TORSDOF 4
