REMARK  Name = ZINC50429472
REMARK  6 active torsions:
REMARK  status: ('A' for Active; 'I' for Inactive)
REMARK    1  A    between atoms: C_1  and  C_2
REMARK    2  A    between atoms: C_5  and  C_19
REMARK    3  A    between atoms: C_7  and  N_8
REMARK    4  A    between atoms: N_8  and  C_9
REMARK    5  A    between atoms: C_9  and  C_10
REMARK    6  A    between atoms: C_15  and  O_16
REMARK                            x       y       z     vdW  Elec       q    Type
REMARK                         _______ _______ _______ _____ _____    ______ ____
ROOT
ATOM      1  N   UNL     1       0.025  -0.009   2.416  0.00  0.00    -0.339 N 
ATOM      2  H   UNL     1       0.011   0.961   2.419  0.00  0.00    +0.146 HD
ENDROOT
BRANCH   1   9
ATOM      3  C   UNL     1      -0.018   1.503   0.010  0.00  0.00    +0.045 C 
ATOM      4  C   UNL     1       0.002  -0.004   0.002  0.00  0.00    -0.030 A 
ATOM      5  C   UNL     1       0.006  -0.686  -1.200  0.00  0.00    +0.006 A 
ATOM      6  C   UNL     1       0.024  -2.066  -1.216  0.00  0.00    +0.019 A 
ATOM      7  C   UNL     1       0.040  -2.778  -0.015  0.00  0.00    +0.054 A 
ATOM      8  C   UNL     1       0.037  -2.090   1.198  0.00  0.00    +0.042 A 
ATOM      9  C   UNL     1       0.023  -0.703   1.203  0.00  0.00    +0.032 A 
BRANCH   7  10
ATOM     10  C   UNL     1       0.059  -4.210  -0.029  0.00  0.00    +0.099 C 
ATOM     11  N   UNL     1       0.074  -5.346  -0.040  0.00  0.00    -0.191 NA
ENDBRANCH   7  10
ENDBRANCH   1   9
BRANCH   1  12
ATOM     12  C   UNL     1       0.046  -0.745   3.682  0.00  0.00    +0.140 C 
BRANCH  12  13
ATOM     13  C   UNL     1       0.043   0.230   4.830  0.00  0.00    +0.014 A 
ATOM     14  C   UNL     1       1.225   0.540   5.477  0.00  0.00    +0.028 A 
ATOM     15  C   UNL     1       1.223   1.435   6.532  0.00  0.00    +0.043 A 
ATOM     16  C   UNL     1       0.039   2.022   6.942  0.00  0.00    +0.043 A 
ATOM     17  C   UNL     1      -1.145   1.715   6.298  0.00  0.00    +0.084 A 
ATOM     18  C   UNL     1      -1.143   0.821   5.235  0.00  0.00    +0.140 A 
ATOM     19 CL   UNL     1      -2.630   2.450   6.813  0.00  0.00    -0.080 Cl
ATOM     20 CL   UNL     1       2.709   1.821   7.343  0.00  0.00    -0.083 Cl
BRANCH  18  21
ATOM     21  O   UNL     1      -2.306   0.522   4.596  0.00  0.00    -0.505 OA
ATOM     22  H   UNL     1      -2.781  -0.230   4.976  0.00  0.00    +0.292 HD
ENDBRANCH  18  21
ENDBRANCH  12  13
ENDBRANCH   1  12
TORSDOF 5
