REMARK  Name = ZINC35419919
REMARK  12 active torsions:
REMARK  status: ('A' for Active; 'I' for Inactive)
REMARK    1  A    between atoms: C_1  and  C_2
REMARK    2  A    between atoms: C_2  and  O_4
REMARK    3  A    between atoms: O_4  and  C_5
REMARK    4  A    between atoms: C_8  and  C_16
REMARK    5  A    between atoms: C_9  and  N_13
REMARK    6  A    between atoms: C_10  and  O_11
REMARK    7  A    between atoms: O_11  and  C_12
REMARK    8  A    between atoms: N_17  and  N_18
REMARK    9  A    between atoms: C_19  and  C_21
REMARK   10  A    between atoms: C_21  and  N_28
REMARK   11  A    between atoms: C_22  and  C_23
REMARK   12  A    between atoms: C_29  and  C_31
REMARK                            x       y       z     vdW  Elec       q    Type
REMARK                         _______ _______ _______ _____ _____    ______ ____
ROOT
ATOM      1  N   UNL     1      -1.370  -8.374   0.218  0.00  0.00    -0.202 N 
ATOM      2  C   UNL     1      -2.403  -9.234   0.119  0.00  0.00    +0.277 C 
ATOM      3  O   UNL     1      -3.514  -8.820  -0.153  0.00  0.00    -0.267 OA
ATOM      4  H   UNL     1      -0.472  -8.710   0.365  0.00  0.00    +0.178 HD
ENDROOT
BRANCH   1   6
ATOM      5  C   UNL     1      -0.607  -6.155   0.304  0.00  0.00    +0.140 C 
ATOM      6  N   UNL     1      -1.593  -6.995   0.109  0.00  0.00    -0.187 NA
BRANCH   5  10
ATOM      7  C   UNL     1      -1.330  -1.980   0.279  0.00  0.00    +0.175 A 
ATOM      8  C   UNL     1      -0.044  -2.465   0.494  0.00  0.00    +0.051 A 
ATOM      9  C   UNL     1       0.194  -3.809   0.503  0.00  0.00    +0.015 A 
ATOM     10  C   UNL     1      -0.862  -4.712   0.295  0.00  0.00    +0.029 A 
ATOM     11  C   UNL     1      -2.161  -4.228   0.077  0.00  0.00    +0.180 A 
ATOM     12  C   UNL     1      -2.391  -2.868   0.075  0.00  0.00    +0.193 A 
BRANCH  11  13
ATOM     13  N   UNL     1      -3.279  -5.172  -0.143  0.00  0.00    +0.061 N 
ATOM     14  O   UNL     1      -3.975  -5.620   0.881  0.00  0.00    -0.126 OA
ATOM     15  O   UNL     1      -3.578  -5.565  -1.364  0.00  0.00    -0.126 OA
ENDBRANCH  11  13
BRANCH  12  16
ATOM     16  O   UNL     1      -3.648  -2.391  -0.129  0.00  0.00    -0.489 OA
ATOM     17  C   UNL     1      -4.032  -2.134  -1.482  0.00  0.00    +0.277 C 
ENDBRANCH  12  16
BRANCH   7  18
ATOM     18  O   UNL     1      -1.557  -0.642   0.272  0.00  0.00    -0.422 OA
BRANCH  18  20
ATOM     19  C   UNL     1      -2.135   1.429   1.486  0.00  0.00    +0.136 C 
ATOM     20  C   UNL     1      -1.980  -0.068   1.410  0.00  0.00    +0.309 C 
ATOM     21  O   UNL     1      -2.236  -0.752   2.372  0.00  0.00    -0.251 OA
ENDBRANCH  18  20
ENDBRANCH   7  18
ENDBRANCH   5  10
ENDBRANCH   1   6
BRANCH   2  22
ATOM     22  C   UNL     1      -2.186 -10.680   0.341  0.00  0.00    +0.099 C 
ATOM     23  C   UNL     1      -2.264 -11.213   1.647  0.00  0.00    +0.043 C 
BRANCH  23  24
ATOM     24  C   UNL     1      -2.627 -10.401   2.705  0.00  0.00    +0.014 A 
ATOM     25  C   UNL     1      -2.669 -10.712   4.147  0.00  0.00    +0.015 A 
ATOM     26  C   UNL     1      -3.070  -9.695   4.921  0.00  0.00    +0.008 A 
ATOM     27  C   UNL     1      -3.403  -8.474   4.334  0.00  0.00    +0.046 A 
ATOM     28  S   UNL     1      -3.162  -8.700   2.687  0.00  0.00    -0.097 S 
ENDBRANCH  23  24
BRANCH  22  29
ATOM     29  N   UNL     1      -1.912 -11.495  -0.710  0.00  0.00    -0.277 N 
ATOM     30  C   UNL     1      -1.724 -10.971  -1.938  0.00  0.00    +0.248 C 
ATOM     31  O   UNL     1      -1.710  -9.765  -2.088  0.00  0.00    -0.270 OA
ATOM     32  H   UNL     1      -1.851 -12.454  -0.578  0.00  0.00    +0.155 HD
BRANCH  30  33
ATOM     33  C   UNL     1      -1.536 -11.863  -3.101  0.00  0.00    +0.037 A 
ATOM     34  C   UNL     1      -1.558 -13.249  -2.932  0.00  0.00    +0.013 A 
ATOM     35  C   UNL     1      -1.382 -14.076  -4.022  0.00  0.00    +0.001 A 
ATOM     36  C   UNL     1      -1.185 -13.534  -5.280  0.00  0.00    +0.000 A 
ATOM     37  C   UNL     1      -1.162 -12.162  -5.455  0.00  0.00    +0.001 A 
ATOM     38  C   UNL     1      -1.342 -11.323  -4.374  0.00  0.00    +0.013 A 
ENDBRANCH  30  33
ENDBRANCH  22  29
ENDBRANCH   2  22
TORSDOF 10
