REMARK  Name = ZINC09602503
REMARK  5 active torsions:
REMARK  status: ('A' for Active; 'I' for Inactive)
REMARK    1  A    between atoms: C_1  and  C_2
REMARK    2  A    between atoms: C_2  and  C_24
REMARK    3  A    between atoms: N_5  and  C_9
REMARK    4  A    between atoms: C_9  and  C_10
REMARK    5  A    between atoms: N_12  and  C_13
REMARK                            x       y       z     vdW  Elec       q    Type
REMARK                         _______ _______ _______ _____ _____    ______ ____
ROOT
ATOM      1  C   UNL     1      -2.068   1.870   1.279  0.00  0.00    +0.047 C 
ATOM      2  C   UNL     1      -1.235   2.107   0.018  0.00  0.00    +0.135 C 
ATOM      3  C   UNL     1      -0.014   1.208   0.009  0.00  0.00    +0.251 C 
ATOM      4  O   UNL     1       0.002  -0.004   0.002  0.00  0.00    -0.272 OA
ATOM      5  N   UNL     1       1.048   2.037   0.003  0.00  0.00    -0.215 N 
ATOM      6  C   UNL     1       0.673   3.321   0.013  0.00  0.00    +0.310 C 
ATOM      7  O   UNL     1       1.453   4.253   0.010  0.00  0.00    -0.252 OA
ATOM      8  N   UNL     1      -0.664   3.465   0.026  0.00  0.00    -0.281 N 
ATOM      9  H   UNL     1      -1.157   4.301   0.034  0.00  0.00    +0.152 HD
ENDROOT
BRANCH   2  10
ATOM     10  C   UNL     1      -2.067   1.885  -1.218  0.00  0.00    -0.015 A 
ATOM     11  C   UNL     1      -2.070   0.632  -1.827  0.00  0.00    +0.007 A 
ATOM     12  C   UNL     1      -2.815   0.397  -2.942  0.00  0.00    +0.009 A 
ATOM     13  C   UNL     1      -3.583   1.434  -3.497  0.00  0.00    -0.018 A 
ATOM     14  C   UNL     1      -4.360   1.231  -4.650  0.00  0.00    +0.008 A 
ATOM     15  C   UNL     1      -5.092   2.259  -5.159  0.00  0.00    +0.001 A 
ATOM     16  C   UNL     1      -5.084   3.515  -4.553  0.00  0.00    +0.001 A 
ATOM     17  C   UNL     1      -4.345   3.748  -3.435  0.00  0.00    +0.008 A 
ATOM     18  C   UNL     1      -3.575   2.711  -2.881  0.00  0.00    -0.018 A 
ATOM     19  C   UNL     1      -2.799   2.914  -1.727  0.00  0.00    +0.014 A 
ENDBRANCH   2  10
BRANCH   5  20
ATOM     20  C   UNL     1       2.443   1.587  -0.011  0.00  0.00    +0.213 C 
BRANCH  20  21
ATOM     21  C   UNL     1       2.908   1.439  -1.437  0.00  0.00    +0.231 C 
ATOM     22  O   UNL     1       2.150   1.685  -2.351  0.00  0.00    -0.274 OA
ATOM     23  N   UNL     1       4.167   1.033  -1.696  0.00  0.00    -0.307 N 
ATOM     24  H   UNL     1       4.773   0.836  -0.965  0.00  0.00    +0.149 HD
BRANCH  23  25
ATOM     25  C   UNL     1       4.620   0.889  -3.082  0.00  0.00    +0.103 C 
ATOM     26  C   UNL     1       5.764  -0.121  -3.135  0.00  0.00    +0.027 C 
ATOM     27  C   UNL     1       6.365  -0.096  -4.546  0.00  0.00    +0.007 C 
ATOM     28  C   UNL     1       7.099   1.230  -4.734  0.00  0.00    +0.035 C 
ATOM     29  C   UNL     1       6.208   2.386  -4.361  0.00  0.00    -0.042 A 
ATOM     30  C   UNL     1       5.071   2.230  -3.599  0.00  0.00    -0.024 A 
ATOM     31  C   UNL     1       4.297   3.338  -3.284  0.00  0.00    +0.006 A 
ATOM     32  C   UNL     1       4.655   4.594  -3.731  0.00  0.00    +0.000 A 
ATOM     33  C   UNL     1       5.793   4.750  -4.499  0.00  0.00    +0.000 A 
ATOM     34  C   UNL     1       6.565   3.650  -4.811  0.00  0.00    +0.004 A 
ENDBRANCH  23  25
ENDBRANCH  20  21
ENDBRANCH   5  20
TORSDOF 4
