REMARK  Name = ZINC01374278
REMARK  11 active torsions:
REMARK  status: ('A' for Active; 'I' for Inactive)
REMARK    1  A    between atoms: C_1  and  C_2
REMARK    2  A    between atoms: C_2  and  C_3
REMARK    3  A    between atoms: C_3  and  C_5
REMARK    4  A    between atoms: C_3  and  N_18
REMARK    5  A    between atoms: N_9  and  C_10
REMARK    6  A    between atoms: C_10  and  C_11
REMARK    7  A    between atoms: N_18  and  C_19
REMARK    8  A    between atoms: N_18  and  C_29
REMARK    9  A    between atoms: C_19  and  C_20
REMARK   10  A    between atoms: C_29  and  C_30
REMARK   11  A    between atoms: C_35  and  C_42
REMARK                            x       y       z     vdW  Elec       q    Type
REMARK                         _______ _______ _______ _____ _____    ______ ____
ROOT
ATOM      1  N   UNL     1       2.366   1.075  -1.197  0.00  0.00    -0.284 NA
ENDROOT
BRANCH   1   2
ATOM      2  C   UNL     1       1.745  -0.231  -0.938  0.00  0.00    +0.127 C 
BRANCH   2   3
ATOM      3  C   UNL     1       1.828  -0.544   0.534  0.00  0.00    +0.169 A 
ATOM      4  N   UNL     1       1.772   0.316   1.521  0.00  0.00    -0.112 NA
ATOM      5  N   UNL     1       1.879  -0.340   2.626  0.00  0.00    -0.023 NA
ATOM      6  N   UNL     1       2.000  -1.595   2.368  0.00  0.00    -0.044 NA
ATOM      7  N   UNL     1       1.968  -1.762   1.089  0.00  0.00    -0.223 N 
BRANCH   7   8
ATOM      8  C   UNL     1       2.070  -3.038   0.376  0.00  0.00    +0.182 C 
BRANCH   8   9
ATOM      9  C   UNL     1       3.517  -3.335   0.081  0.00  0.00    -0.026 A 
ATOM     10  C   UNL     1       4.088  -2.889  -1.097  0.00  0.00    +0.008 A 
ATOM     11  C   UNL     1       5.416  -3.161  -1.368  0.00  0.00    +0.038 A 
ATOM     12  C   UNL     1       6.174  -3.880  -0.460  0.00  0.00    +0.123 A 
ATOM     13  C   UNL     1       5.601  -4.326   0.720  0.00  0.00    +0.038 A 
ATOM     14  C   UNL     1       4.275  -4.048   0.991  0.00  0.00    +0.008 A 
ATOM     15  F   UNL     1       7.472  -4.146  -0.724  0.00  0.00    -0.205 F 
ENDBRANCH   8   9
ENDBRANCH   7   8
ENDBRANCH   2   3
BRANCH   2  17
ATOM     16  C   UNL     1       0.195  -0.065  -2.891  0.00  0.00    +0.006 C 
ATOM     17  C   UNL     1       0.277  -0.191  -1.368  0.00  0.00    +0.023 C 
ENDBRANCH   2  17
ENDBRANCH   1   2
BRANCH   1  18
ATOM     18  C   UNL     1       3.725   1.130  -0.641  0.00  0.00    +0.120 C 
BRANCH  18  19
ATOM     19  C   UNL     1       4.472   2.286  -1.254  0.00  0.00    -0.030 A 
ATOM     20  C   UNL     1       5.083   2.138  -2.486  0.00  0.00    +0.009 A 
ATOM     21  C   UNL     1       5.769   3.196  -3.053  0.00  0.00    +0.050 A 
ATOM     22  C   UNL     1       5.846   4.408  -2.387  0.00  0.00    +0.166 A 
ATOM     23  C   UNL     1       5.230   4.558  -1.147  0.00  0.00    +0.167 A 
ATOM     24  C   UNL     1       4.540   3.495  -0.587  0.00  0.00    +0.054 A 
ATOM     25  O   UNL     1       5.448   5.830  -0.702  0.00  0.00    -0.453 OA
ATOM     26  C   UNL     1       6.545   6.330  -1.490  0.00  0.00    +0.466 C 
ATOM     27  O   UNL     1       6.449   5.587  -2.720  0.00  0.00    -0.453 OA
ENDBRANCH  18  19
ENDBRANCH   1  18
BRANCH   1  28
ATOM     28  C   UNL     1       1.538   2.167  -0.669  0.00  0.00    +0.126 C 
BRANCH  28  29
ATOM     29  C   UNL     1       0.606   2.657  -1.747  0.00  0.00    +0.031 A 
ATOM     30  C   UNL     1      -0.735   2.632  -1.545  0.00  0.00    +0.020 A 
ATOM     31  C   UNL     1      -1.612   3.115  -2.612  0.00  0.00    -0.001 A 
ATOM     32  C   UNL     1      -3.003   3.114  -2.461  0.00  0.00    +0.010 A 
ATOM     33  C   UNL     1      -3.794   3.573  -3.476  0.00  0.00    +0.004 A 
ATOM     34  C   UNL     1      -3.231   4.039  -4.656  0.00  0.00    -0.048 A 
ATOM     35  C   UNL     1      -1.863   4.048  -4.827  0.00  0.00    +0.029 A 
ATOM     36  C   UNL     1      -1.037   3.587  -3.807  0.00  0.00    +0.049 A 
ATOM     37  N   UNL     1       0.334   3.587  -3.950  0.00  0.00    -0.322 N 
ATOM     38  H   UNL     1       0.729   3.912  -4.774  0.00  0.00    +0.169 HD
ATOM     39  C   UNL     1       1.132   3.145  -2.962  0.00  0.00    +0.254 A 
ATOM     40  O   UNL     1       2.341   3.164  -3.122  0.00  0.00    -0.268 OA
ATOM     41  C   UNL     1      -4.124   4.539  -5.762  0.00  0.00    +0.044 C 
ENDBRANCH  28  29
ENDBRANCH   1  28
TORSDOF 9
