REMARK  Name = ZINC08820663
REMARK  8 active torsions:
REMARK  status: ('A' for Active; 'I' for Inactive)
REMARK    1  A    between atoms: C_1  and  C_2
REMARK    2  A    between atoms: C_2  and  C_10
REMARK    3  A    between atoms: C_3  and  C_4
REMARK    4  A    between atoms: N_14  and  C_18
REMARK    5  A    between atoms: C_18  and  C_19
REMARK    6  A    between atoms: N_21  and  N_22
REMARK    7  A    between atoms: C_23  and  C_25
REMARK    8  A    between atoms: C_30  and  N_31
REMARK                            x       y       z     vdW  Elec       q    Type
REMARK                         _______ _______ _______ _____ _____    ______ ____
ROOT
ATOM      1  C   UNL     1       1.793   1.976   0.166  0.00  0.00    +0.212 C 
ENDROOT
BRANCH   1   6
ATOM      2  C   UNL     1       0.770   5.969   2.935  0.00  0.00    +0.023 C 
ATOM      3  C   UNL     1       0.922   5.234   1.795  0.00  0.00    +0.077 C 
ATOM      4  C   UNL     1       1.329   3.826   1.632  0.00  0.00    +0.259 C 
ATOM      5  O   UNL     1       1.592   3.122   2.590  0.00  0.00    -0.269 OA
ATOM      6  N   UNL     1       1.395   3.367   0.394  0.00  0.00    -0.246 N 
ATOM      7  C   UNL     1       1.108   4.152  -0.665  0.00  0.00    +0.121 C 
ATOM      8  S   UNL     1       1.140   3.749  -2.328  0.00  0.00    -0.027 S 
ATOM      9  S   UNL     1       0.683   5.714   0.090  0.00  0.00    -0.061 S 
BRANCH   2  11
ATOM     10  C   UNL     1      -0.300   7.799   1.561  0.00  0.00    +0.044 C 
ATOM     11  C   UNL     1       0.233   7.270   2.868  0.00  0.00    -0.049 C 
ATOM     12  C   UNL     1       0.195   8.045   3.978  0.00  0.00    +0.011 C 
BRANCH  12  13
ATOM     13  C   UNL     1      -0.201   9.457   3.875  0.00  0.00    -0.025 A 
ATOM     14  C   UNL     1       0.181  10.216   2.762  0.00  0.00    +0.008 A 
ATOM     15  C   UNL     1      -0.199  11.538   2.671  0.00  0.00    +0.001 A 
ATOM     16  C   UNL     1      -0.946  12.118   3.681  0.00  0.00    +0.000 A 
ATOM     17  C   UNL     1      -1.323  11.377   4.788  0.00  0.00    +0.001 A 
ATOM     18  C   UNL     1      -0.957  10.052   4.891  0.00  0.00    +0.008 A 
ENDBRANCH  12  13
ENDBRANCH   2  11
ENDBRANCH   1   6
BRANCH   1  19
ATOM     19  C   UNL     1       0.569   1.097   0.166  0.00  0.00    +0.247 C 
ATOM     20  O   UNL     1      -0.528   1.585   0.334  0.00  0.00    -0.273 OA
ATOM     21  N   UNL     1       0.694  -0.232  -0.027  0.00  0.00    -0.233 N 
ATOM     22  H   UNL     1       1.571  -0.622  -0.165  0.00  0.00    +0.173 HD
BRANCH  21  23
ATOM     23  N   UNL     1      -0.444  -1.049  -0.027  0.00  0.00    -0.230 N 
ATOM     24  C   UNL     1      -0.320  -2.377  -0.220  0.00  0.00    +0.262 C 
ATOM     25  O   UNL     1       0.780  -2.866  -0.393  0.00  0.00    -0.269 OA
ATOM     26  H   UNL     1      -1.321  -0.659   0.111  0.00  0.00    +0.173 HD
BRANCH  24  27
ATOM     27  C   UNL     1      -1.520  -3.240  -0.220  0.00  0.00    +0.068 A 
ATOM     28  C   UNL     1      -2.349  -3.288   0.902  0.00  0.00    +0.015 A 
ATOM     29  C   UNL     1      -3.468  -4.094   0.895  0.00  0.00    +0.001 A 
ATOM     30  C   UNL     1      -3.769  -4.855  -0.221  0.00  0.00    +0.002 A 
ATOM     31  C   UNL     1      -2.952  -4.812  -1.336  0.00  0.00    +0.033 A 
ATOM     32  C   UNL     1      -1.832  -4.006  -1.344  0.00  0.00    +0.138 A 
BRANCH  32  33
ATOM     33  N   UNL     1      -0.962  -3.957  -2.540  0.00  0.00    +0.057 N 
ATOM     34  O   UNL     1      -1.266  -4.581  -3.541  0.00  0.00    -0.126 OA
ATOM     35  O   UNL     1       0.059  -3.292  -2.524  0.00  0.00    -0.126 OA
ENDBRANCH  32  33
ENDBRANCH  24  27
ENDBRANCH  21  23
ENDBRANCH   1  19
TORSDOF 7
