REMARK  Name = ZINC02968726
REMARK  9 active torsions:
REMARK  status: ('A' for Active; 'I' for Inactive)
REMARK    1  A    between atoms: C_4  and  C_7
REMARK    2  A    between atoms: C_7  and  C_8
REMARK    3  A    between atoms: C_8  and  N_9
REMARK    4  A    between atoms: C_10  and  C_12
REMARK    5  A    between atoms: C_12  and  C_13
REMARK    6  A    between atoms: C_27  and  S_28
REMARK    7  A    between atoms: S_28  and  C_29
REMARK    8  A    between atoms: C_29  and  C_30
REMARK    9  A    between atoms: C_33  and  N_36
REMARK                            x       y       z     vdW  Elec       q    Type
REMARK                         _______ _______ _______ _____ _____    ______ ____
ROOT
ATOM      1  C   UNL     1      -8.720   6.071   4.605  0.00  0.00    +0.202 C 
ATOM      2  C   UNL     1      -7.552   5.420   3.895  0.00  0.00    +0.252 C 
ATOM      3  O   UNL     1      -6.592   4.881   4.403  0.00  0.00    -0.272 OA
ATOM      4  N   UNL     1      -7.806   5.565   2.574  0.00  0.00    -0.200 N 
ATOM      5  C   UNL     1      -9.002   6.235   2.386  0.00  0.00    +0.139 C 
ATOM      6  N   UNL     1      -9.576   6.554   3.512  0.00  0.00    -0.255 NA
ATOM      7  C   UNL     1      -9.430   6.479   0.991  0.00  0.00    +0.041 A 
ATOM      8  C   UNL     1     -10.616   7.144   0.701  0.00  0.00    +0.013 A 
ATOM      9  C   UNL     1     -10.976   7.350  -0.615  0.00  0.00    +0.001 A 
ATOM     10  C   UNL     1     -10.164   6.899  -1.646  0.00  0.00    +0.002 A 
ATOM     11  C   UNL     1      -8.985   6.237  -1.377  0.00  0.00    +0.028 A 
ATOM     12  C   UNL     1      -8.601   6.018  -0.052  0.00  0.00    +0.077 A 
ATOM     13  N   UNL     1      -7.444   5.376   0.249  0.00  0.00    -0.225 NA
ATOM     14  C   UNL     1      -7.071   5.157   1.480  0.00  0.00    +0.169 C 
ENDROOT
BRANCH   1  15
ATOM     15  C   UNL     1      -9.469   5.049   5.462  0.00  0.00    +0.132 C 
BRANCH  15  17
ATOM     16  N   UNL     1     -11.410   5.021   6.994  0.00  0.00    -0.315 N 
ATOM     17  C   UNL     1     -10.607   5.730   6.177  0.00  0.00    +0.216 C 
ATOM     18  O   UNL     1     -10.800   6.917   6.016  0.00  0.00    -0.276 OA
ATOM     19  H   UNL     1     -11.235   3.945   7.140  0.00  0.00    +0.149 HD
BRANCH  16  20
ATOM     20  C   UNL     1     -12.517   5.684   7.689  0.00  0.00    +0.109 C 
BRANCH  20  21
ATOM     21  C   UNL     1     -13.266   4.661   8.546  0.00  0.00    +0.054 C 
BRANCH  21  25
ATOM     22  C   UNL     1     -16.493   6.592  10.572  0.00  0.00    +0.000 A 
ATOM     23  C   UNL     1     -16.695   6.037   9.322  0.00  0.00    +0.000 A 
ATOM     24  C   UNL     1     -15.650   5.412   8.666  0.00  0.00    +0.004 A 
ATOM     25  C   UNL     1     -14.404   5.342   9.261  0.00  0.00    -0.046 A 
ATOM     26  C   UNL     1     -14.204   5.893  10.513  0.00  0.00    +0.004 A 
ATOM     27  C   UNL     1     -15.247   6.521  11.167  0.00  0.00    +0.000 A 
ENDBRANCH  21  25
ENDBRANCH  20  21
ENDBRANCH  16  20
ENDBRANCH  15  17
ENDBRANCH   1  15
BRANCH  14  28
ATOM     28  S   UNL     1      -5.553   4.307   1.759  0.00  0.00    -0.085 S 
BRANCH  28  29
ATOM     29  C   UNL     1      -5.034   4.022   0.048  0.00  0.00    +0.112 C 
BRANCH  29  30
ATOM     30  C   UNL     1      -3.719   3.286   0.038  0.00  0.00    -0.037 A 
ATOM     31  C   UNL     1      -3.700   1.904   0.030  0.00  0.00    +0.007 A 
ATOM     32  C   UNL     1      -2.494   1.229   0.021  0.00  0.00    +0.033 A 
ATOM     33  C   UNL     1      -1.306   1.936   0.019  0.00  0.00    +0.126 A 
ATOM     34  C   UNL     1      -1.325   3.319   0.032  0.00  0.00    +0.033 A 
ATOM     35  C   UNL     1      -2.531   3.993   0.037  0.00  0.00    +0.007 A 
BRANCH  33  36
ATOM     36  N   UNL     1      -0.014   1.214   0.009  0.00  0.00    +0.056 N 
ATOM     37  O   UNL     1       0.002  -0.004   0.002  0.00  0.00    -0.126 OA
ATOM     38  O   UNL     1       1.032   1.837   0.002  0.00  0.00    -0.126 OA
ENDBRANCH  33  36
ENDBRANCH  29  30
ENDBRANCH  28  29
ENDBRANCH  14  28
TORSDOF 9
