REMARK  Name = ZINC16475122
REMARK  14 active torsions:
REMARK  status: ('A' for Active; 'I' for Inactive)
REMARK    1  A    between atoms: C_1  and  C_2
REMARK    2  A    between atoms: C_5  and  C_32
REMARK    3  A    between atoms: N_8  and  C_10
REMARK    4  A    between atoms: C_10  and  C_11
REMARK    5  A    between atoms: N_13  and  C_14
REMARK    6  A    between atoms: N_13  and  C_18
REMARK    7  A    between atoms: C_14  and  C_15
REMARK    8  A    between atoms: C_15  and  C_16
REMARK    9  A    between atoms: C_15  and  C_17
REMARK   10  A    between atoms: C_19  and  N_31
REMARK   11  A    between atoms: N_20  and  C_27
REMARK   12  A    between atoms: C_27  and  C_28
REMARK   13  A    between atoms: C_28  and  C_29
REMARK   14  A    between atoms: C_28  and  C_30
REMARK                            x       y       z     vdW  Elec       q    Type
REMARK                         _______ _______ _______ _____ _____    ______ ____
ROOT
ATOM      1  C   UNL     1       2.866  -2.001   2.782  0.00  0.00    +0.203 C 
ATOM      2  O   UNL     1       2.983  -1.020   2.079  0.00  0.00    -0.277 OA
ATOM      3  N   UNL     1       3.889  -2.392   3.571  0.00  0.00    -0.266 N 
ENDROOT
BRANCH   3   4
ATOM      4  C   UNL     1       5.126  -1.717   3.507  0.00  0.00    +0.140 A 
ATOM      5  C   UNL     1       5.851  -1.689   2.333  0.00  0.00    +0.127 A 
ATOM      6  N   UNL     1       7.053  -1.023   2.302  0.00  0.00    -0.280 N 
ATOM      7  C   UNL     1       7.518  -0.405   3.403  0.00  0.00    +0.331 A 
ATOM      8  O   UNL     1       8.584   0.179   3.356  0.00  0.00    -0.246 OA
ATOM      9  N   UNL     1       6.825  -0.421   4.556  0.00  0.00    -0.273 N 
ATOM     10  H   UNL     1       7.182   0.032   5.336  0.00  0.00    +0.173 HD
ATOM     11  C   UNL     1       5.640  -1.056   4.638  0.00  0.00    +0.277 A 
ATOM     12  O   UNL     1       5.018  -1.060   5.687  0.00  0.00    -0.266 OA
BRANCH   5  13
ATOM     13  N   UNL     1       5.376  -2.321   1.208  0.00  0.00    -0.343 N 
ATOM     14  H   UNL     1       4.480  -2.692   1.202  0.00  0.00    +0.144 HD
ATOM     15  H   UNL     1       5.938  -2.395   0.421  0.00  0.00    +0.144 HD
ENDBRANCH   5  13
BRANCH   6  16
ATOM     16  C   UNL     1       7.834  -0.985   1.063  0.00  0.00    +0.131 C 
BRANCH  16  17
ATOM     17  C   UNL     1       7.425   0.237   0.239  0.00  0.00    +0.003 C 
ATOM     18  C   UNL     1       8.324   0.346  -0.994  0.00  0.00    +0.009 C 
ATOM     19  C   UNL     1       5.968   0.090  -0.204  0.00  0.00    +0.009 C 
ENDBRANCH  16  17
ENDBRANCH   6  16
ENDBRANCH   3   4
BRANCH   1  20
ATOM     20  C   UNL     1       1.578  -2.784   2.776  0.00  0.00    +0.019 C 
BRANCH  20  26
ATOM     21  C   UNL     1      -1.013   1.260   1.828  0.00  0.00    +0.005 C 
ATOM     22  C   UNL     1      -0.645  -0.135   1.319  0.00  0.00    -0.031 C 
ATOM     23  C   UNL     1      -1.918  -0.969   1.150  0.00  0.00    +0.003 C 
ATOM     24  C   UNL     1      -1.533  -2.386   0.715  0.00  0.00    -0.031 C 
ATOM     25  C   UNL     1      -0.577  -2.989   1.747  0.00  0.00    -0.075 C 
ATOM     26  N   UNL     1       0.630  -2.160   1.842  0.00  0.00    +0.386 N 
ATOM     27  C   UNL     1       0.279  -0.820   2.327  0.00  0.00    -0.075 C 
ATOM     28  C   UNL     1      -2.792  -3.250   0.618  0.00  0.00    +0.005 C 
ATOM     29  H   UNL     1       1.058  -2.085   0.932  0.00  0.00    -0.081 HD
ENDBRANCH  20  26
ENDBRANCH   1  20
BRANCH   3  30
ATOM     30  C   UNL     1       3.714  -3.517   4.493  0.00  0.00    +0.117 C 
BRANCH  30  31
ATOM     31  C   UNL     1       3.999  -4.828   3.758  0.00  0.00    +0.001 C 
ATOM     32  C   UNL     1       5.473  -4.875   3.352  0.00  0.00    +0.009 C 
ATOM     33  C   UNL     1       3.686  -6.008   4.680  0.00  0.00    +0.009 C 
ENDBRANCH  30  31
ENDBRANCH   3  30
TORSDOF 8
