REMARK  Name = ZINC22190608
REMARK  7 active torsions:
REMARK  status: ('A' for Active; 'I' for Inactive)
REMARK    1  A    between atoms: C_1  and  C_2
REMARK    2  A    between atoms: C_5  and  C_9
REMARK    3  A    between atoms: C_9  and  C_10
REMARK    4  A    between atoms: C_10  and  C_11
REMARK    5  A    between atoms: N_13  and  N_14
REMARK    6  A    between atoms: C_15  and  C_17
REMARK    7  A    between atoms: N_21  and  C_22
REMARK                            x       y       z     vdW  Elec       q    Type
REMARK                         _______ _______ _______ _____ _____    ______ ____
ROOT
ATOM      1  C   UNL     1      -1.393   0.716  -1.268  0.00  0.00    +0.229 C 
ATOM      2  O   UNL     1      -2.350   1.451  -1.142  0.00  0.00    -0.274 OA
ATOM      3  N   UNL     1      -0.830   0.545  -2.480  0.00  0.00    -0.234 N 
ATOM      4  H   UNL     1       0.038  -0.121  -2.594  0.00  0.00    +0.173 HD
ENDROOT
BRANCH   3   5
ATOM      5  N   UNL     1      -1.350   1.216  -3.595  0.00  0.00    -0.229 N 
ATOM      6  C   UNL     1      -0.786   1.045  -4.807  0.00  0.00    +0.277 C 
ATOM      7  O   UNL     1       0.234   0.391  -4.917  0.00  0.00    -0.267 OA
ATOM      8  H   UNL     1      -2.218   1.882  -3.481  0.00  0.00    +0.173 HD
BRANCH   6   9
ATOM      9  C   UNL     1      -1.403   1.647  -5.994  0.00  0.00    +0.107 A 
ATOM     10  C   UNL     1      -2.501   2.482  -6.007  0.00  0.00    +0.047 A 
ATOM     11  C   UNL     1      -2.743   2.821  -7.343  0.00  0.00    +0.036 A 
ATOM     12  C   UNL     1      -1.815   2.194  -8.105  0.00  0.00    +0.101 A 
ATOM     13  N   UNL     1      -0.995   1.477  -7.298  0.00  0.00    -0.345 N 
ATOM     14  C   UNL     1       0.137   0.659  -7.739  0.00  0.00    +0.149 C 
ATOM     15 BR   UNL     1      -4.124   3.949  -7.972  0.00  0.00    -0.049 Br
ENDBRANCH   6   9
ENDBRANCH   3   5
BRANCH   1  16
ATOM     16  C   UNL     1      -0.834  -0.005  -0.069  0.00  0.00    +0.102 C 
BRANCH  16  17
ATOM     17  C   UNL     1      -1.650   0.361   1.173  0.00  0.00    +0.044 C 
BRANCH  17  22
ATOM     18  C   UNL     1       0.491  -2.408   5.772  0.00  0.00    +0.045 C 
ATOM     19  C   UNL     1      -0.067  -1.686   4.573  0.00  0.00    -0.032 A 
ATOM     20  C   UNL     1      -1.058  -2.275   3.811  0.00  0.00    +0.005 A 
ATOM     21  C   UNL     1      -1.574  -1.611   2.714  0.00  0.00    +0.004 A 
ATOM     22  C   UNL     1      -1.091  -0.361   2.372  0.00  0.00    -0.046 A 
ATOM     23  C   UNL     1      -0.100   0.229   3.133  0.00  0.00    +0.024 A 
ATOM     24  C   UNL     1       0.413  -0.433   4.235  0.00  0.00    +0.044 A 
ATOM     25 CL   UNL     1       1.658   0.308   5.191  0.00  0.00    -0.083 Cl
ENDBRANCH  17  22
ENDBRANCH  16  17
ENDBRANCH   1  16
TORSDOF 5
