REMARK  Name = ZINC02301255
REMARK  5 active torsions:
REMARK  status: ('A' for Active; 'I' for Inactive)
REMARK    1  A    between atoms: C_4  and  O_28
REMARK    2  A    between atoms: C_5  and  C_7
REMARK    3  A    between atoms: N_9  and  N_10
REMARK    4  A    between atoms: N_10  and  C_11
REMARK    5  A    between atoms: N_18  and  C_21
REMARK                            x       y       z     vdW  Elec       q    Type
REMARK                         _______ _______ _______ _____ _____    ______ ____
ROOT
ATOM      1  C   UNL     1       4.226   1.953  -1.509  0.00  0.00    +0.106 C 
ATOM      2  C   UNL     1       5.078   1.259  -0.671  0.00  0.00    +0.114 C 
ATOM      3  C   UNL     1       5.961   1.958   0.280  0.00  0.00    +0.256 C 
ATOM      4  O   UNL     1       5.963   3.173   0.353  0.00  0.00    -0.270 OA
ATOM      5  N   UNL     1       6.762   1.215   1.071  0.00  0.00    -0.263 N 
ATOM      6  C   UNL     1       6.773  -0.123   0.997  0.00  0.00    +0.150 C 
ATOM      7  S   UNL     1       7.829  -0.983   2.035  0.00  0.00    -0.018 S 
ATOM      8  N   UNL     1       6.003  -0.824   0.153  0.00  0.00    -0.217 N 
ATOM      9  C   UNL     1       5.148  -0.213  -0.693  0.00  0.00    +0.263 C 
ATOM     10  O   UNL     1       4.454  -0.860  -1.455  0.00  0.00    -0.269 OA
ATOM     11  H   UNL     1       7.346   1.660   1.706  0.00  0.00    +0.157 HD
ENDROOT
BRANCH   8  12
ATOM     12  C   UNL     1       6.087  -2.223   0.150  0.00  0.00    +0.043 A 
ATOM     13  C   UNL     1       6.887  -2.869  -0.783  0.00  0.00    +0.025 A 
ATOM     14  C   UNL     1       6.972  -4.247  -0.781  0.00  0.00    +0.022 A 
ATOM     15  C   UNL     1       6.253  -4.985   0.143  0.00  0.00    +0.041 A 
ATOM     16  C   UNL     1       5.451  -4.343   1.070  0.00  0.00    +0.022 A 
ATOM     17  C   UNL     1       5.367  -2.965   1.076  0.00  0.00    +0.025 A 
ATOM     18 CL   UNL     1       6.357  -6.718   0.138  0.00  0.00    -0.084 Cl
ENDBRANCH   8  12
BRANCH   1  19
ATOM     19  N   UNL     1       3.527   1.295  -2.456  0.00  0.00    -0.271 N 
ATOM     20  H   UNL     1       3.687   0.351  -2.608  0.00  0.00    +0.169 HD
BRANCH  19  23
ATOM     21  C   UNL     1       1.871   1.317  -4.166  0.00  0.00    +0.264 C 
ATOM     22  O   UNL     1       2.072   0.134  -4.357  0.00  0.00    -0.269 OA
ATOM     23  N   UNL     1       2.570   1.975  -3.220  0.00  0.00    -0.233 N 
ATOM     24  H   UNL     1       2.410   2.920  -3.068  0.00  0.00    +0.173 HD
BRANCH  21  29
ATOM     25  C   UNL     1      -0.305   4.060  -5.517  0.00  0.00    +0.001 A 
ATOM     26  C   UNL     1      -1.020   3.385  -6.494  0.00  0.00    +0.004 A 
ATOM     27  C   UNL     1      -0.799   2.041  -6.718  0.00  0.00    +0.046 A 
ATOM     28  C   UNL     1       0.143   1.357  -5.964  0.00  0.00    +0.129 A 
ATOM     29  C   UNL     1       0.868   2.035  -4.975  0.00  0.00    +0.079 A 
ATOM     30  C   UNL     1       0.630   3.394  -4.755  0.00  0.00    +0.017 A 
BRANCH  28  31
ATOM     31  O   UNL     1       0.362   0.036  -6.183  0.00  0.00    -0.506 OA
ATOM     32  H   UNL     1      -0.197  -0.549  -5.652  0.00  0.00    +0.292 HD
ENDBRANCH  28  31
ENDBRANCH  21  29
ENDBRANCH  19  23
ENDBRANCH   1  19
TORSDOF 5
