REMARK  Name = ZINC35791899
REMARK  11 active torsions:
REMARK  status: ('A' for Active; 'I' for Inactive)
REMARK    1  A    between atoms: C_1  and  O_2
REMARK    2  A    between atoms: O_2  and  C_3
REMARK    3  A    between atoms: C_6  and  C_13
REMARK    4  A    between atoms: C_7  and  O_11
REMARK    5  A    between atoms: C_8  and  O_9
REMARK    6  A    between atoms: O_9  and  C_10
REMARK    7  A    between atoms: O_11  and  C_12
REMARK    8  A    between atoms: N_23  and  C_24
REMARK    9  A    between atoms: C_24  and  C_25
REMARK   10  A    between atoms: C_27  and  O_32
REMARK   11  A    between atoms: C_30  and  O_31
REMARK                            x       y       z     vdW  Elec       q    Type
REMARK                         _______ _______ _______ _____ _____    ______ ____
ROOT
ATOM      1  C   UNL     1       2.640  -2.589  -4.371  0.00  0.00    +0.014 C 
ATOM      2  C   UNL     1       1.558  -3.084  -5.300  0.00  0.00    +0.010 A 
ATOM      3  C   UNL     1       0.376  -3.615  -4.933  0.00  0.00    +0.021 A 
ATOM      4  C   UNL     1      -0.320  -3.953  -6.111  0.00  0.00    +0.019 A 
ATOM      5  C   UNL     1       0.464  -3.611  -7.154  0.00  0.00    +0.086 A 
ATOM      6  N   UNL     1       1.613  -3.068  -6.664  0.00  0.00    -0.352 N 
ATOM      7  C   UNL     1       2.731  -2.537  -7.452  0.00  0.00    +0.119 C 
ATOM      8  C   UNL     1       4.045  -3.067  -6.871  0.00  0.00    +0.003 C 
ATOM      9  C   UNL     1       4.537  -2.130  -5.775  0.00  0.00    -0.075 C 
ATOM     10  N   UNL     1       3.415  -1.538  -5.044  0.00  0.00    +0.391 N 
ATOM     11  H   UNL     1       2.818  -1.045  -5.691  0.00  0.00    -0.080 HD
ENDROOT
BRANCH   1  15
ATOM     12  C   UNL     1       0.857  -0.997  -0.822  0.00  0.00    +0.165 A 
ATOM     13  C   UNL     1       0.632  -0.391  -2.049  0.00  0.00    +0.050 A 
ATOM     14  C   UNL     1       1.210  -0.907  -3.193  0.00  0.00    +0.010 A 
ATOM     15  C   UNL     1       2.013  -2.030  -3.120  0.00  0.00    -0.010 A 
ATOM     16  C   UNL     1       2.243  -2.642  -1.897  0.00  0.00    +0.167 A 
ATOM     17  C   UNL     1       1.669  -2.122  -0.743  0.00  0.00    +0.204 A 
BRANCH  12  19
ATOM     18  C   UNL     1      -0.536   0.670   0.147  0.00  0.00    +0.277 C 
ATOM     19  O   UNL     1       0.287  -0.488   0.303  0.00  0.00    -0.491 OA
ENDBRANCH  12  19
BRANCH  17  20
ATOM     20  O   UNL     1       1.896  -2.716   0.460  0.00  0.00    -0.488 OA
ATOM     21  C   UNL     1       0.988  -3.746   0.856  0.00  0.00    +0.277 C 
ENDBRANCH  17  20
BRANCH  16  22
ATOM     22  O   UNL     1       3.033  -3.747  -1.827  0.00  0.00    -0.491 OA
ATOM     23  C   UNL     1       4.429  -3.533  -1.613  0.00  0.00    +0.277 C 
ENDBRANCH  16  22
ENDBRANCH   1  15
BRANCH  10  24
ATOM     24  C   UNL     1       3.929  -0.594  -4.043  0.00  0.00    -0.038 C 
BRANCH  24  25
ATOM     25  C   UNL     1       4.657   0.528  -4.737  0.00  0.00    -0.019 A 
ATOM     26  C   UNL     1       6.036   0.514  -4.813  0.00  0.00    +0.050 A 
ATOM     27  C   UNL     1       6.706   1.546  -5.452  0.00  0.00    +0.117 A 
ATOM     28  C   UNL     1       5.991   2.594  -6.015  0.00  0.00    +0.049 A 
ATOM     29  C   UNL     1       4.612   2.608  -5.938  0.00  0.00    +0.049 A 
ATOM     30  C   UNL     1       3.942   1.573  -5.303  0.00  0.00    +0.118 A 
BRANCH  30  31
ATOM     31  O   UNL     1       2.584   1.584  -5.233  0.00  0.00    -0.507 OA
ATOM     32  H   UNL     1       2.234   2.031  -4.449  0.00  0.00    +0.292 HD
ENDBRANCH  30  31
BRANCH  27  33
ATOM     33  O   UNL     1       8.063   1.532  -5.527  0.00  0.00    -0.507 OA
ATOM     34  H   UNL     1       8.409   1.086  -6.313  0.00  0.00    +0.292 HD
ENDBRANCH  27  33
ENDBRANCH  24  25
ENDBRANCH  10  24
TORSDOF 8
