REMARK  Name = ZINC18189940
REMARK  10 active torsions:
REMARK  status: ('A' for Active; 'I' for Inactive)
REMARK    1  A    between atoms: C_1  and  C_2
REMARK    2  A    between atoms: C_2  and  C_3
REMARK    3  A    between atoms: C_3  and  C_4
REMARK    4  A    between atoms: C_4  and  N_5
REMARK    5  A    between atoms: C_6  and  N_36
REMARK    6  A    between atoms: C_7  and  N_14
REMARK    7  A    between atoms: N_14  and  C_15
REMARK    8  A    between atoms: C_15  and  C_16
REMARK    9  A    between atoms: C_22  and  C_24
REMARK   10  A    between atoms: C_24  and  N_25
REMARK                            x       y       z     vdW  Elec       q    Type
REMARK                         _______ _______ _______ _____ _____    ______ ____
ROOT
ATOM      1  N   UNL     1       2.393   3.809   0.049  0.00  0.00    -0.259 N 
ATOM      2  C   UNL     1       2.100   5.127   0.035  0.00  0.00    +0.238 C 
ATOM      3  O   UNL     1       0.987   5.497  -0.276  0.00  0.00    -0.273 OA
ENDROOT
BRANCH   1   6
ATOM      4  N   UNL     1      -0.023   1.087   0.552  0.00  0.00    -0.280 N 
ATOM      5  C   UNL     1       0.969   2.004   0.815  0.00  0.00    +0.127 A 
ATOM      6  C   UNL     1       1.379   2.858  -0.189  0.00  0.00    +0.140 A 
ATOM      7  C   UNL     1       0.767   2.764  -1.453  0.00  0.00    +0.277 A 
ATOM      8  O   UNL     1       1.110   3.507  -2.357  0.00  0.00    -0.266 OA
ATOM      9  N   UNL     1      -0.199   1.848  -1.657  0.00  0.00    -0.273 N 
ATOM     10  H   UNL     1      -0.631   1.777  -2.556  0.00  0.00    +0.173 HD
ATOM     11  C   UNL     1      -0.590   1.027  -0.666  0.00  0.00    +0.331 A 
ATOM     12  O   UNL     1      -1.468   0.213  -0.876  0.00  0.00    -0.246 OA
BRANCH   5  13
ATOM     13  N   UNL     1       1.544   2.068   2.061  0.00  0.00    -0.343 N 
ATOM     14  H   UNL     1       2.177   2.774   2.267  0.00  0.00    +0.144 HD
ATOM     15  H   UNL     1       1.318   1.408   2.735  0.00  0.00    +0.144 HD
ENDBRANCH   5  13
BRANCH   4  16
ATOM     16  C   UNL     1      -0.468   0.174   1.608  0.00  0.00    +0.128 C 
BRANCH  16  17
ATOM     17  C   UNL     1      -1.619   0.816   2.385  0.00  0.00    +0.021 C 
BRANCH  17  19
ATOM     18  C   UNL     1      -3.235   0.505   4.265  0.00  0.00    +0.004 C 
ATOM     19  C   UNL     1      -2.084  -0.137   3.488  0.00  0.00    -0.002 C 
ENDBRANCH  17  19
ENDBRANCH  16  17
ENDBRANCH   4  16
ENDBRANCH   1   6
BRANCH   1  20
ATOM     20  C   UNL     1       3.765   3.367   0.311  0.00  0.00    +0.149 C 
BRANCH  20  21
ATOM     21  C   UNL     1       4.500   3.210  -0.995  0.00  0.00    -0.030 A 
ATOM     22  C   UNL     1       4.396   2.031  -1.709  0.00  0.00    +0.005 A 
ATOM     23  C   UNL     1       5.067   1.889  -2.910  0.00  0.00    +0.000 A 
ATOM     24  C   UNL     1       5.850   2.921  -3.391  0.00  0.00    +0.000 A 
ATOM     25  C   UNL     1       5.958   4.098  -2.674  0.00  0.00    +0.000 A 
ATOM     26  C   UNL     1       5.283   4.243  -1.476  0.00  0.00    +0.005 A 
ENDBRANCH  20  21
ENDBRANCH   1  20
BRANCH   2  27
ATOM     27  C   UNL     1       3.155   6.137   0.405  0.00  0.00    +0.213 C 
BRANCH  27  28
ATOM     28  N   UNL     1       2.556   7.474   0.448  0.00  0.00    -0.225 N 
ATOM     29  C   UNL     1       2.491   8.313  -0.601  0.00  0.00    +0.254 C 
ATOM     30  O   UNL     1       2.912   8.086  -1.717  0.00  0.00    -0.270 OA
ATOM     31  C   UNL     1       1.819   9.556  -0.169  0.00  0.00    +0.049 A 
ATOM     32  C   UNL     1       1.478  10.742  -0.800  0.00  0.00    +0.014 A 
ATOM     33  C   UNL     1       0.838  11.742  -0.084  0.00  0.00    +0.001 A 
ATOM     34  C   UNL     1       0.538  11.564   1.253  0.00  0.00    +0.001 A 
ATOM     35  C   UNL     1       0.873  10.384   1.898  0.00  0.00    +0.014 A 
ATOM     36  C   UNL     1       1.513   9.375   1.195  0.00  0.00    +0.049 A 
ATOM     37  C   UNL     1       2.005   8.026   1.544  0.00  0.00    +0.254 C 
ATOM     38  O   UNL     1       1.925   7.503   2.638  0.00  0.00    -0.270 OA
ENDBRANCH  27  28
ENDBRANCH   2  27
TORSDOF 9
