REMARK  Name = ZINC15069373
REMARK  15 active torsions:
REMARK  status: ('A' for Active; 'I' for Inactive)
REMARK    1  A    between atoms: C_1  and  N_60
REMARK    2  A    between atoms: C_2  and  C_3
REMARK    3  A    between atoms: C_2  and  N_60
REMARK    4  A    between atoms: C_3  and  C_5
REMARK    5  A    between atoms: C_3  and  O_19
REMARK    6  A    between atoms: C_5  and  O_6
REMARK    7  A    between atoms: O_6  and  C_7
REMARK    8  A    between atoms: C_11  and  C_13
REMARK    9  A    between atoms: C_13  and  N_62
REMARK   10  A    between atoms: C_14  and  C_15
REMARK   11  A    between atoms: C_14  and  N_62
REMARK   12  A    between atoms: C_15  and  C_16
REMARK   13  A    between atoms: C_16  and  S_17
REMARK   14  A    between atoms: S_17  and  C_18
REMARK   15  A    between atoms: C_20  and  N_60
REMARK                            x       y       z     vdW  Elec       q    Type
REMARK                         _______ _______ _______ _____ _____    ______ ____
ROOT
ATOM      1  O   UNL     1      -0.069   5.201   0.029  0.00  0.00    -0.489 OA
ENDROOT
BRANCH   1   2
ATOM      2  C   UNL     1      -0.050   3.842   0.023  0.00  0.00    +0.121 A 
ATOM      3  C   UNL     1       1.160   3.163   0.007  0.00  0.00    +0.045 A 
ATOM      4  C   UNL     1       1.176   1.782   0.000  0.00  0.00    +0.004 A 
ATOM      5  C   UNL     1      -0.013   1.076   0.008  0.00  0.00    +0.002 A 
ATOM      6  C   UNL     1      -1.220   1.750   0.017  0.00  0.00    -0.061 A 
ATOM      7  C   UNL     1      -1.241   3.131   0.031  0.00  0.00    +0.047 A 
BRANCH   6   8
ATOM      8  C   UNL     1      -2.513   0.977   0.019  0.00  0.00    -0.047 C 
BRANCH   8   9
ATOM      9  N   UNL     1      -2.922   0.721   1.413  0.00  0.00    +0.382 N 
ATOM     10  H   UNL     1      -3.050   1.616   1.898  0.00  0.00    -0.085 HD
ATOM     11  H   UNL     1      -2.190   0.177   1.886  0.00  0.00    -0.085 HD
BRANCH   9  12
ATOM     12  C   UNL     1      -4.188  -0.036   1.445  0.00  0.00    -0.081 C 
BRANCH  12  13
ATOM     13  C   UNL     1      -4.586  -0.286   2.901  0.00  0.00    -0.008 C 
BRANCH  13  14
ATOM     14  C   UNL     1      -5.898  -1.071   2.943  0.00  0.00    +0.067 C 
BRANCH  14  15
ATOM     15  S   UNL     1      -6.370  -1.368   4.669  0.00  0.00    -0.164 S 
ATOM     16  C   UNL     1      -7.924  -2.295   4.546  0.00  0.00    +0.084 C 
ENDBRANCH  14  15
ENDBRANCH  13  14
ENDBRANCH  12  13
ENDBRANCH   9  12
ENDBRANCH   8   9
ENDBRANCH   6   8
ENDBRANCH   1   2
BRANCH   1  17
ATOM     17  C   UNL     1       1.196   5.867   0.020  0.00  0.00    +0.258 C 
BRANCH  17  18
ATOM     18  C   UNL     1       0.975   7.381   0.029  0.00  0.00    +0.135 C 
BRANCH  18  19
ATOM     19  O   UNL     1       0.330   7.776  -1.184  0.00  0.00    -0.390 OA
ATOM     20  H   UNL     1       0.833   7.566  -1.982  0.00  0.00    +0.210 HD
ENDBRANCH  18  19
BRANCH  18  21
ATOM     21  C   UNL     1       2.324   8.092   0.145  0.00  0.00    -0.044 C 
BRANCH  21  23
ATOM     22  C   UNL     1       1.432   9.859   1.540  0.00  0.00    -0.096 C 
ATOM     23  N   UNL     1       2.088   9.548   0.253  0.00  0.00    +0.381 N 
ATOM     24  H   UNL     1       1.474   9.844  -0.515  0.00  0.00    -0.082 HD
BRANCH  23  25
ATOM     25  C   UNL     1       3.370  10.276   0.150  0.00  0.00    -0.069 C 
ATOM     26  C   UNL     1       4.286   9.918   1.321  0.00  0.00    -0.015 C 
ATOM     27  C   UNL     1       5.603  10.686   1.192  0.00  0.00    -0.002 C 
ATOM     28  C   UNL     1       5.321  12.189   1.207  0.00  0.00    -0.000 C 
ATOM     29  C   UNL     1       4.404  12.548   0.035  0.00  0.00    -0.002 C 
ATOM     30  C   UNL     1       3.087  11.780   0.165  0.00  0.00    -0.015 C 
ENDBRANCH  23  25
ENDBRANCH  21  23
ENDBRANCH  18  21
ENDBRANCH  17  18
ENDBRANCH   1  17
TORSDOF 13
