REMARK  Name = ZINC67530693
REMARK  10 active torsions:
REMARK  status: ('A' for Active; 'I' for Inactive)
REMARK    1  A    between atoms: C_1  and  C_2
REMARK    2  A    between atoms: C_5  and  C_8
REMARK    3  A    between atoms: C_8  and  C_10
REMARK    4  A    between atoms: C_8  and  N_26
REMARK    5  A    between atoms: C_10  and  N_11
REMARK    6  A    between atoms: N_14  and  C_15
REMARK    7  A    between atoms: C_15  and  C_16
REMARK    8  A    between atoms: C_16  and  C_17
REMARK    9  A    between atoms: N_26  and  C_27
REMARK   10  A    between atoms: N_26  and  C_28
REMARK                            x       y       z     vdW  Elec       q    Type
REMARK                         _______ _______ _______ _____ _____    ______ ____
ROOT
ATOM      1  N   UNL     1      -1.115  -6.359   0.374  0.00  0.00    -0.301 N 
ATOM      2  C   UNL     1      -2.197  -7.131   0.595  0.00  0.00    +0.300 C 
ATOM      3  O   UNL     1      -3.280  -6.617   0.801  0.00  0.00    -0.253 OA
ATOM      4  N   UNL     1      -2.079  -8.474   0.588  0.00  0.00    -0.299 N 
ATOM      5  H   UNL     1      -0.252  -6.769   0.210  0.00  0.00    +0.150 HD
ATOM      6  H   UNL     1      -1.216  -8.884   0.423  0.00  0.00    +0.150 HD
ENDROOT
BRANCH   1   7
ATOM      7  C   UNL     1      -1.244  -4.899   0.382  0.00  0.00    +0.095 C 
BRANCH   7   8
ATOM      8  C   UNL     1       0.090  -4.268  -0.022  0.00  0.00    -0.021 C 
BRANCH   8  13
ATOM      9  C   UNL     1       1.299  -5.664  -5.497  0.00  0.00    +0.044 C 
ATOM     10  C   UNL     1       0.984  -5.300  -4.070  0.00  0.00    -0.050 A 
ATOM     11  C   UNL     1       1.585  -5.987  -3.032  0.00  0.00    +0.003 A 
ATOM     12  C   UNL     1       1.296  -5.653  -1.722  0.00  0.00    +0.002 A 
ATOM     13  C   UNL     1       0.406  -4.631  -1.450  0.00  0.00    -0.059 A 
ATOM     14  C   UNL     1      -0.195  -3.943  -2.487  0.00  0.00    +0.002 A 
ATOM     15  C   UNL     1       0.097  -4.274  -3.797  0.00  0.00    +0.003 A 
ENDBRANCH   8  13
BRANCH   8  16
ATOM     16  N   UNL     1      -0.002  -2.807   0.103  0.00  0.00    +0.382 N 
ATOM     17  C   UNL     1      -0.292  -2.452   1.498  0.00  0.00    -0.096 C 
ATOM     18  C   UNL     1       1.273  -2.200  -0.302  0.00  0.00    -0.096 C 
ATOM     19  H   UNL     1      -0.742  -2.465  -0.492  0.00  0.00    -0.082 HD
ENDBRANCH   8  16
ENDBRANCH   7   8
ENDBRANCH   1   7
BRANCH   4  20
ATOM     20  C   UNL     1      -3.255  -9.314   0.827  0.00  0.00    +0.112 C 
BRANCH  20  21
ATOM     21  C   UNL     1      -2.850 -10.788   0.765  0.00  0.00    +0.073 C 
BRANCH  21  22
ATOM     22  C   UNL     1      -4.060 -11.652   1.012  0.00  0.00    +0.035 A 
ATOM     23  C   UNL     1      -4.544 -12.011   2.219  0.00  0.00    +0.108 A 
ATOM     24  N   UNL     1      -5.640 -12.788   1.986  0.00  0.00    -0.336 N 
ATOM     25  C   UNL     1      -5.792 -12.881   0.643  0.00  0.00    +0.087 A 
ATOM     26  N   UNL     1      -4.847 -12.195   0.069  0.00  0.00    -0.347 N 
ATOM     27  C   UNL     1      -6.896 -13.662  -0.029  0.00  0.00    +0.072 C 
ATOM     28  C   UNL     1      -7.516 -14.607   1.008  0.00  0.00    +0.009 C 
ATOM     29  C   UNL     1      -7.827 -13.820   2.285  0.00  0.00    +0.022 C 
ATOM     30  C   UNL     1      -6.517 -13.421   2.973  0.00  0.00    +0.123 C 
ATOM     31  H   UNL     1      -4.729 -12.092  -0.888  0.00  0.00    +0.167 HD
ENDBRANCH  21  22
ENDBRANCH  20  21
ENDBRANCH   4  20
TORSDOF 7
