REMARK  Name = ZINC13301687
REMARK  4 active torsions:
REMARK  status: ('A' for Active; 'I' for Inactive)
REMARK    1  A    between atoms: C_1  and  C_2
REMARK    2  A    between atoms: C_5  and  N_8
REMARK    3  A    between atoms: C_17  and  C_18
REMARK    4  A    between atoms: C_17  and  O_25
REMARK                            x       y       z     vdW  Elec       q    Type
REMARK                         _______ _______ _______ _____ _____    ______ ____
ROOT
ATOM      1  N   UNL     1       3.248   2.311   1.325  0.00  0.00    -0.314 N 
ATOM      2  C   UNL     1       2.046   1.521   1.215  0.00  0.00    +0.023 C 
ATOM      3  C   UNL     1       1.922   0.128   1.696  0.00  0.00    +0.003 C 
ATOM      4  C   UNL     1       0.536  -0.062   2.352  0.00  0.00    -0.000 C 
ATOM      5  C   UNL     1      -0.397  -0.730   1.287  0.00  0.00    -0.002 C 
ATOM      6  C   UNL     1       0.061  -0.100  -0.030  0.00  0.00    -0.018 C 
ATOM      7  C   UNL     1      -0.004   1.414   0.012  0.00  0.00    -0.076 C 
ATOM      8  C   UNL     1       1.504   3.400   0.033  0.00  0.00    -0.015 C 
ATOM      9  C   UNL     1       2.946   3.572   0.586  0.00  0.00    +0.143 C 
ATOM     10  N   UNL     1       1.398   1.928   0.031  0.00  0.00    +0.395 N 
ATOM     11  H   UNL     1       1.890   1.553  -0.789  0.00  0.00    -0.079 HD
ENDROOT
BRANCH   1  16
ATOM     12  C   UNL     1       4.489   3.384   6.753  0.00  0.00    +0.044 C 
ATOM     13  C   UNL     1       4.159   3.098   5.311  0.00  0.00    -0.050 A 
ATOM     14  C   UNL     1       5.176   2.853   4.406  0.00  0.00    +0.005 A 
ATOM     15  C   UNL     1       4.877   2.591   3.083  0.00  0.00    +0.023 A 
ATOM     16  C   UNL     1       3.554   2.575   2.662  0.00  0.00    +0.031 A 
ATOM     17  C   UNL     1       2.535   2.826   3.572  0.00  0.00    +0.023 A 
ATOM     18  C   UNL     1       2.840   3.082   4.894  0.00  0.00    +0.005 A 
ENDBRANCH   1  16
BRANCH   9  19
ATOM     19  C   UNL     1       3.006   4.751   1.523  0.00  0.00    +0.000 A 
ATOM     20  C   UNL     1       4.170   5.490   1.629  0.00  0.00    +0.009 A 
ATOM     21  C   UNL     1       4.224   6.575   2.484  0.00  0.00    +0.020 A 
ATOM     22  C   UNL     1       3.118   6.915   3.241  0.00  0.00    +0.041 A 
ATOM     23  C   UNL     1       1.955   6.171   3.139  0.00  0.00    +0.020 A 
ATOM     24  C   UNL     1       1.900   5.090   2.279  0.00  0.00    +0.009 A 
ATOM     25 CL   UNL     1       3.187   8.273   4.320  0.00  0.00    -0.084 Cl
ENDBRANCH   9  19
BRANCH   9  26
ATOM     26  O   UNL     1       3.870   3.747  -0.490  0.00  0.00    -0.369 OA
ATOM     27  H   UNL     1       3.723   4.551  -1.007  0.00  0.00    +0.212 HD
ENDBRANCH   9  26
TORSDOF 3
