REMARK  Name = ZINC37775551
REMARK  6 active torsions:
REMARK  status: ('A' for Active; 'I' for Inactive)
REMARK    1  A    between atoms: C_1  and  C_2
REMARK    2  A    between atoms: C_2  and  C_4
REMARK    3  A    between atoms: C_2  and  N_13
REMARK    4  A    between atoms: C_8  and  N_10
REMARK    5  A    between atoms: N_13  and  C_14
REMARK    6  A    between atoms: C_14  and  C_15
REMARK                            x       y       z     vdW  Elec       q    Type
REMARK                         _______ _______ _______ _____ _____    ______ ____
ROOT
ATOM      1  N   UNL     1       0.713  -0.491   1.192  0.00  0.00    +0.386 N 
ATOM      2  H   UNL     1       0.798  -1.495   1.145  0.00  0.00    -0.085 HD
ATOM      3  H   UNL     1       1.632  -0.076   1.228  0.00  0.00    -0.085 HD
ENDROOT
BRANCH   1   5
ATOM      4  C   UNL     1      -0.019   1.526   0.010  0.00  0.00    -0.009 C 
ATOM      5  C   UNL     1       0.002  -0.004   0.002  0.00  0.00    -0.044 C 
BRANCH   5   6
ATOM      6  C   UNL     1       0.707  -0.490  -1.238  0.00  0.00    -0.059 A 
ATOM      7  C   UNL     1       2.089  -0.511  -1.284  0.00  0.00    +0.002 A 
ATOM      8  C   UNL     1       2.736  -0.957  -2.421  0.00  0.00    +0.002 A 
ATOM      9  C   UNL     1       2.002  -1.382  -3.512  0.00  0.00    +0.033 A 
ATOM     10  C   UNL     1       0.620  -1.362  -3.466  0.00  0.00    +0.126 A 
ATOM     11  C   UNL     1      -0.027  -0.920  -2.327  0.00  0.00    +0.034 A 
BRANCH  10  12
ATOM     12  N   UNL     1      -0.166  -1.817  -4.635  0.00  0.00    +0.056 N 
ATOM     13  O   UNL     1       0.400  -2.207  -5.630  0.00  0.00    -0.126 OA
ATOM     14  O   UNL     1      -1.374  -1.800  -4.594  0.00  0.00    -0.126 OA
ENDBRANCH  10  12
ENDBRANCH   5   6
ENDBRANCH   1   5
BRANCH   1  15
ATOM     15  C   UNL     1      -0.040  -0.119   2.398  0.00  0.00    -0.044 C 
BRANCH  15  16
ATOM     16  C   UNL     1       0.689  -0.618   3.619  0.00  0.00    -0.045 A 
ATOM     17  C   UNL     1       0.282  -1.785   4.238  0.00  0.00    +0.003 A 
ATOM     18  C   UNL     1       0.950  -2.244   5.357  0.00  0.00    +0.002 A 
ATOM     19  C   UNL     1       2.026  -1.536   5.860  0.00  0.00    +0.021 A 
ATOM     20  C   UNL     1       2.434  -0.368   5.242  0.00  0.00    +0.059 A 
ATOM     21  C   UNL     1       1.769   0.088   4.117  0.00  0.00    +0.061 A 
ATOM     22 CL   UNL     1       2.285   1.550   3.335  0.00  0.00    -0.082 Cl
ATOM     23 CL   UNL     1       3.785   0.522   5.873  0.00  0.00    -0.082 Cl
ENDBRANCH  15  16
ENDBRANCH   1  15
TORSDOF 5
