REMARK  Name = ZINC01088533
REMARK  7 active torsions:
REMARK  status: ('A' for Active; 'I' for Inactive)
REMARK    1  A    between atoms: C_1  and  C_2
REMARK    2  A    between atoms: C_9  and  C_29
REMARK    3  A    between atoms: C_10  and  S_12
REMARK    4  A    between atoms: S_12  and  C_13
REMARK    5  A    between atoms: C_13  and  C_14
REMARK    6  A    between atoms: N_16  and  C_17
REMARK    7  A    between atoms: C_18  and  C_26
REMARK                            x       y       z     vdW  Elec       q    Type
REMARK                         _______ _______ _______ _____ _____    ______ ____
ROOT
ATOM      1  C   UNL     1      -0.742   1.585  -1.213  0.00  0.00    +0.228 C 
ATOM      2  O   UNL     1      -1.736   2.268  -1.088  0.00  0.00    -0.275 OA
ATOM      3  N   UNL     1      -0.288   1.272  -2.443  0.00  0.00    -0.279 N 
ATOM      4  H   UNL     1       0.507   0.726  -2.543  0.00  0.00    +0.155 HD
ENDROOT
BRANCH   3   5
ATOM      5  C   UNL     1      -0.959   1.732  -3.566  0.00  0.00    +0.084 A 
ATOM      6  C   UNL     1      -0.647   1.523  -4.902  0.00  0.00    +0.068 A 
ATOM      7  C   UNL     1      -1.523   2.118  -5.897  0.00  0.00    -0.023 A 
ATOM      8  C   UNL     1      -2.558   2.829  -5.401  0.00  0.00    -0.004 A 
ATOM      9  S   UNL     1      -2.386   2.712  -3.643  0.00  0.00    -0.077 S 
ATOM     10  C   UNL     1      -3.612   3.554  -6.180  0.00  0.00    +0.043 C 
ATOM     11  C   UNL     1      -3.135   3.685  -7.634  0.00  0.00    +0.005 C 
ATOM     12  C   UNL     1      -2.628   2.321  -8.111  0.00  0.00    +0.005 C 
ATOM     13  C   UNL     1      -1.318   1.975  -7.401  0.00  0.00    +0.037 C 
BRANCH   6  14
ATOM     14  C   UNL     1       0.521   0.728  -5.295  0.00  0.00    +0.244 C 
ATOM     15  O   UNL     1       0.412  -0.473  -5.461  0.00  0.00    -0.270 OA
ATOM     16  N   UNL     1       1.715   1.327  -5.473  0.00  0.00    -0.325 N 
ATOM     17  H   UNL     1       1.802   2.284  -5.340  0.00  0.00    +0.145 HD
ATOM     18  H   UNL     1       2.487   0.801  -5.732  0.00  0.00    +0.145 HD
ENDBRANCH   6  14
ENDBRANCH   3   5
BRANCH   1  19
ATOM     19  C   UNL     1      -0.013   1.086   0.008  0.00  0.00    +0.171 C 
BRANCH  19  20
ATOM     20  S   UNL     1      -0.860   1.669   1.497  0.00  0.00    -0.096 S 
BRANCH  20  30
ATOM     21  C   UNL     1       4.612  -2.088   6.197  0.00  0.00    +0.044 C 
ATOM     22  C   UNL     1       3.695  -1.457   5.181  0.00  0.00    -0.050 A 
ATOM     23  C   UNL     1       3.949  -1.633   3.822  0.00  0.00    +0.005 A 
ATOM     24  C   UNL     1       3.140  -1.077   2.879  0.00  0.00    +0.028 A 
ATOM     25  C   UNL     1       2.029  -0.313   3.275  0.00  0.00    +0.072 A 
ATOM     26  C   UNL     1       1.773  -0.135   4.657  0.00  0.00    +0.001 A 
ATOM     27  C   UNL     1       2.628  -0.723   5.602  0.00  0.00    +0.013 A 
ATOM     28  C   UNL     1       0.659   0.631   5.055  0.00  0.00    +0.016 A 
ATOM     29  C   UNL     1      -0.129   1.177   4.088  0.00  0.00    -0.018 A 
ATOM     30  C   UNL     1       0.174   0.961   2.735  0.00  0.00    +0.101 A 
ATOM     31  N   UNL     1       1.218   0.243   2.369  0.00  0.00    -0.240 NA
ATOM     32  C   UNL     1      -1.327   2.008   4.469  0.00  0.00    +0.046 C 
ENDBRANCH  20  30
ENDBRANCH  19  20
ENDBRANCH   1  19
TORSDOF 5
