REMARK  Name = ZINC57415898
REMARK  7 active torsions:
REMARK  status: ('A' for Active; 'I' for Inactive)
REMARK    1  A    between atoms: C_1  and  O_2
REMARK    2  A    between atoms: O_2  and  C_3
REMARK    3  A    between atoms: C_3  and  C_5
REMARK    4  A    between atoms: C_6  and  C_18
REMARK    5  A    between atoms: C_11  and  C_13
REMARK    6  A    between atoms: C_18  and  N_19
REMARK    7  A    between atoms: C_22  and  N_25
REMARK                            x       y       z     vdW  Elec       q    Type
REMARK                         _______ _______ _______ _____ _____    ______ ____
ROOT
ATOM      1  C   UNL     1       1.309  -2.159  -0.898  0.00  0.00    +0.080 C 
ATOM      2  C   UNL     1       1.167  -2.592  -2.170  0.00  0.00    +0.038 C 
ATOM      3  N   UNL     1       0.569  -3.789  -2.444  0.00  0.00    -0.271 N 
ATOM      4  C   UNL     1       0.084  -4.609  -1.503  0.00  0.00    +0.304 C 
ATOM      5  O   UNL     1      -0.432  -5.655  -1.845  0.00  0.00    -0.252 OA
ATOM      6  N   UNL     1       0.152  -4.314  -0.190  0.00  0.00    -0.288 N 
ATOM      7  C   UNL     1       0.786  -3.047   0.212  0.00  0.00    +0.150 C 
ATOM      8  H   UNL     1       0.489  -4.059  -3.372  0.00  0.00    +0.156 HD
ATOM      9  H   UNL     1      -0.206  -4.924   0.475  0.00  0.00    +0.151 HD
ENDROOT
BRANCH   7  10
ATOM     10  C   UNL     1      -0.226  -2.258   1.002  0.00  0.00    +0.015 A 
ATOM     11  C   UNL     1      -0.070  -1.610   2.183  0.00  0.00    +0.013 A 
ATOM     12  C   UNL     1      -1.150  -0.942   2.728  0.00  0.00    +0.008 A 
ATOM     13  C   UNL     1      -2.333  -0.953   2.066  0.00  0.00    +0.045 A 
ATOM     14  S   UNL     1      -1.938  -1.925   0.621  0.00  0.00    -0.099 S 
ENDBRANCH   7  10
BRANCH   1  15
ATOM     15  C   UNL     1       1.929  -0.920  -0.613  0.00  0.00    +0.339 C 
ATOM     16  O   UNL     1       2.449  -0.280  -1.507  0.00  0.00    -0.245 OA
BRANCH  15  18
ATOM     17  C   UNL     1       2.588   0.808   0.868  0.00  0.00    +0.280 C 
ATOM     18  O   UNL     1       1.945  -0.449   0.652  0.00  0.00    -0.465 OA
ENDBRANCH  15  18
ENDBRANCH   1  15
BRANCH   2  19
ATOM     19  C   UNL     1       1.678  -1.742  -3.304  0.00  0.00    +0.135 C 
BRANCH  19  20
ATOM     20  N   UNL     1       3.106  -2.015  -3.517  0.00  0.00    -0.297 NA
ATOM     21  C   UNL     1       3.304  -3.344  -4.109  0.00  0.00    +0.083 C 
ATOM     22  C   UNL     1       4.802  -3.653  -4.181  0.00  0.00    +0.000 C 
ATOM     23  C   UNL     1       5.498  -2.586  -5.030  0.00  0.00    -0.066 C 
ATOM     24  C   UNL     1       5.235  -1.207  -4.419  0.00  0.00    +0.000 C 
ATOM     25  C   UNL     1       3.725  -0.969  -4.340  0.00  0.00    +0.083 C 
BRANCH  23  26
ATOM     26  N   UNL     1       6.944  -2.845  -5.055  0.00  0.00    +0.382 N 
ATOM     27  C   UNL     1       7.609  -1.815  -5.863  0.00  0.00    -0.078 C 
ATOM     28  C   UNL     1       9.123  -2.033  -5.825  0.00  0.00    -0.019 C 
ATOM     29  C   UNL     1       9.449  -3.418  -6.392  0.00  0.00    -0.004 C 
ATOM     30  C   UNL     1       8.690  -4.478  -5.588  0.00  0.00    -0.019 C 
ATOM     31  C   UNL     1       7.192  -4.170  -5.634  0.00  0.00    -0.078 C 
ATOM     32  H   UNL     1       7.305  -2.817  -4.114  0.00  0.00    -0.081 HD
ENDBRANCH  23  26
ENDBRANCH  19  20
ENDBRANCH   2  19
TORSDOF 6
