REMARK  Name = ZINC23545244
REMARK  7 active torsions:
REMARK  status: ('A' for Active; 'I' for Inactive)
REMARK    1  A    between atoms: C_1  and  C_2
REMARK    2  A    between atoms: C_2  and  C_4
REMARK    3  A    between atoms: C_2  and  S_16
REMARK    4  A    between atoms: S_16  and  C_17
REMARK    5  A    between atoms: N_27  and  C_28
REMARK    6  A    between atoms: C_33  and  O_34
REMARK    7  A    between atoms: O_34  and  C_35
REMARK                            x       y       z     vdW  Elec       q    Type
REMARK                         _______ _______ _______ _____ _____    ______ ____
ROOT
ATOM      1  C   UNL     1      -3.008   0.684   1.206  0.00  0.00    +0.177 A 
ATOM      2  N   UNL     1      -4.132   0.016   1.282  0.00  0.00    -0.223 NA
ATOM      3  C   UNL     1      -4.800  -0.371   0.176  0.00  0.00    +0.079 A 
ATOM      4  C   UNL     1      -6.000  -1.085   0.258  0.00  0.00    +0.028 A 
ATOM      5  C   UNL     1      -6.644  -1.457  -0.888  0.00  0.00    +0.002 A 
ATOM      6  C   UNL     1      -6.124  -1.138  -2.136  0.00  0.00    +0.001 A 
ATOM      7  C   UNL     1      -4.953  -0.441  -2.248  0.00  0.00    +0.015 A 
ATOM      8  C   UNL     1      -4.274  -0.048  -1.095  0.00  0.00    +0.065 A 
ATOM      9  C   UNL     1      -3.015   0.706  -1.155  0.00  0.00    +0.267 A 
ATOM     10  O   UNL     1      -2.516   1.018  -2.221  0.00  0.00    -0.267 OA
ATOM     11  N   UNL     1      -2.429   1.038   0.019  0.00  0.00    -0.252 N 
ENDROOT
BRANCH  11  12
ATOM     12  C   UNL     1      -1.223   1.753   0.017  0.00  0.00    +0.093 A 
ATOM     13  C   UNL     1      -0.013   1.076   0.008  0.00  0.00    +0.030 A 
ATOM     14  C   UNL     1       1.175   1.783   0.000  0.00  0.00    +0.002 A 
ATOM     15  C   UNL     1       1.160   3.166   0.008  0.00  0.00    +0.004 A 
ATOM     16  C   UNL     1      -0.043   3.848   0.024  0.00  0.00    +0.048 A 
ATOM     17  C   UNL     1      -1.238   3.146   0.032  0.00  0.00    +0.144 A 
BRANCH  17  18
ATOM     18  O   UNL     1      -2.421   3.815   0.048  0.00  0.00    -0.493 OA
ATOM     19  C   UNL     1      -2.359   5.243   0.055  0.00  0.00    +0.277 C 
ENDBRANCH  17  18
ENDBRANCH  11  12
BRANCH   1  20
ATOM     20  S   UNL     1      -2.204   1.149   2.704  0.00  0.00    -0.076 S 
BRANCH  20  22
ATOM     21  C   UNL     1      -3.370  -1.073   3.786  0.00  0.00    +0.027 C 
ATOM     22  C   UNL     1      -3.360   0.452   3.910  0.00  0.00    +0.117 C 
BRANCH  22  23
ATOM     23  C   UNL     1      -2.929   0.840   5.301  0.00  0.00    +0.124 A 
ATOM     24  N   UNL     1      -3.890   1.085   6.229  0.00  0.00    -0.309 N 
ATOM     25  H   UNL     1      -4.953   0.998   5.956  0.00  0.00    +0.170 HD
ATOM     26  C   UNL     1      -3.555   1.436   7.492  0.00  0.00    +0.259 A 
ATOM     27  O   UNL     1      -4.407   1.659   8.334  0.00  0.00    -0.267 OA
ATOM     28  C   UNL     1      -2.123   1.540   7.809  0.00  0.00    +0.065 A 
ATOM     29  C   UNL     1      -1.673   1.895   9.079  0.00  0.00    +0.015 A 
ATOM     30  C   UNL     1      -0.319   1.976   9.320  0.00  0.00    +0.001 A 
ATOM     31  C   UNL     1       0.596   1.709   8.310  0.00  0.00    +0.002 A 
ATOM     32  C   UNL     1       0.172   1.357   7.049  0.00  0.00    +0.028 A 
ATOM     33  C   UNL     1      -1.195   1.267   6.779  0.00  0.00    +0.078 A 
ATOM     34  N   UNL     1      -1.657   0.918   5.552  0.00  0.00    -0.233 NA
ENDBRANCH  22  23
ENDBRANCH  20  22
ENDBRANCH   1  20
TORSDOF 5
