REMARK  Name = ZINC65442048
REMARK  8 active torsions:
REMARK  status: ('A' for Active; 'I' for Inactive)
REMARK    1  A    between atoms: C_1  and  C_2
REMARK    2  A    between atoms: C_2  and  O_3
REMARK    3  A    between atoms: O_3  and  C_4
REMARK    4  A    between atoms: N_14  and  C_15
REMARK    5  A    between atoms: C_15  and  C_16
REMARK    6  A    between atoms: N_19  and  C_21
REMARK    7  A    between atoms: C_21  and  C_22
REMARK    8  A    between atoms: C_21  and  C_23
REMARK                            x       y       z     vdW  Elec       q    Type
REMARK                         _______ _______ _______ _____ _____    ______ ____
ROOT
ATOM      1  C   UNL     1       0.776  -1.793  -1.337  0.00  0.00    +0.403 C 
ATOM      2  O   UNL     1       0.309  -2.545  -0.504  0.00  0.00    -0.226 OA
ATOM      3  N   UNL     1       1.395  -2.294  -2.424  0.00  0.00    -0.264 N 
ATOM      4  C   UNL     1       1.971  -1.398  -3.436  0.00  0.00    +0.130 C 
ATOM      5  C   UNL     1       3.451  -1.754  -3.622  0.00  0.00    +0.128 C 
ATOM      6  N   UNL     1       3.564  -3.206  -3.816  0.00  0.00    -0.283 N 
ATOM      7  C   UNL     1       2.988  -4.103  -2.804  0.00  0.00    +0.128 C 
ATOM      8  C   UNL     1       1.513  -3.747  -2.615  0.00  0.00    +0.130 C 
ATOM      9  C   UNL     1       4.183  -3.707  -4.903  0.00  0.00    +0.302 C 
ATOM     10  O   UNL     1       4.571  -2.959  -5.780  0.00  0.00    -0.253 OA
ATOM     11  N   UNL     1       4.373  -5.036  -5.018  0.00  0.00    -0.299 N 
ATOM     12  H   UNL     1       4.001  -5.638  -4.355  0.00  0.00    +0.150 HD
ENDROOT
BRANCH   1  13
ATOM     13  O   UNL     1       0.675  -0.461  -1.173  0.00  0.00    -0.451 OA
BRANCH  13  15
ATOM     14  C   UNL     1      -0.010   1.530   0.013  0.00  0.00    +0.048 C 
ATOM     15  C   UNL     1       0.006   0.000   0.002  0.00  0.00    +0.230 C 
ENDBRANCH  13  15
ENDBRANCH   1  13
BRANCH  11  16
ATOM     16  C   UNL     1       5.141  -5.572  -6.144  0.00  0.00    +0.107 C 
BRANCH  16  17
ATOM     17  C   UNL     1       5.207  -7.097  -6.038  0.00  0.00    -0.012 C 
ATOM     18  C   UNL     1       3.824  -7.728  -6.351  0.00  0.00    -0.015 C 
ATOM     19  C   UNL     1       4.230  -9.137  -6.852  0.00  0.00    -0.078 C 
ATOM     20  N   UNL     1       5.474  -8.920  -7.622  0.00  0.00    +0.381 N 
ATOM     21  C   UNL     1       6.114  -7.682  -7.141  0.00  0.00    -0.074 C 
ATOM     22  H   UNL     1       5.255  -8.831  -8.602  0.00  0.00    -0.081 HD
BRANCH  20  23
ATOM     23  C   UNL     1       6.383 -10.057  -7.422  0.00  0.00    -0.075 C 
ATOM     24  C   UNL     1       5.720 -11.337  -7.935  0.00  0.00    -0.014 C 
ATOM     25  C   UNL     1       7.682  -9.812  -8.191  0.00  0.00    -0.014 C 
ENDBRANCH  20  23
ENDBRANCH  16  17
ENDBRANCH  11  16
TORSDOF 5
