REMARK  Name = ZINC03449042
REMARK  3 active torsions:
REMARK  status: ('A' for Active; 'I' for Inactive)
REMARK    1  A    between atoms: C_8  and  C_12
REMARK    2  A    between atoms: N_14  and  N_15
REMARK    3  A    between atoms: C_16  and  C_18
REMARK                            x       y       z     vdW  Elec       q    Type
REMARK                         _______ _______ _______ _____ _____    ______ ____
ROOT
ATOM      1  C   UNL     1       4.835   3.978  -0.024  0.00  0.00    +0.267 C 
ATOM      2  O   UNL     1       5.885   3.364  -0.037  0.00  0.00    -0.268 OA
ATOM      3  N   UNL     1       4.843   5.326  -0.017  0.00  0.00    -0.230 N 
ATOM      4  H   UNL     1       4.005   5.816  -0.006  0.00  0.00    +0.173 HD
ENDROOT
BRANCH   1  12
ATOM      5  C   UNL     1      -1.250   3.137   0.030  0.00  0.00    +0.001 A 
ATOM      6  C   UNL     1      -1.216   1.749   0.017  0.00  0.00    +0.004 A 
ATOM      7  C   UNL     1      -0.013   1.076   0.008  0.00  0.00    +0.047 A 
ATOM      8  C   UNL     1       1.182   1.788   0.000  0.00  0.00    +0.139 A 
ATOM      9  C   UNL     1       1.145   3.193   0.008  0.00  0.00    +0.018 A 
ATOM     10  C   UNL     1      -0.091   3.857   0.023  0.00  0.00    +0.011 A 
ATOM     11  C   UNL     1       2.353   3.936  -0.000  0.00  0.00    +0.031 A 
ATOM     12  C   UNL     1       3.555   3.249  -0.015  0.00  0.00    +0.123 A 
ATOM     13  C   UNL     1       3.531   1.782  -0.022  0.00  0.00    +0.350 A 
ATOM     14  O   UNL     1       4.576   1.158  -0.036  0.00  0.00    -0.244 OA
ATOM     15  O   UNL     1       2.359   1.126  -0.014  0.00  0.00    -0.422 OA
ENDBRANCH   1  12
BRANCH   3  16
ATOM     16  N   UNL     1       6.060   6.019  -0.025  0.00  0.00    -0.230 N 
ATOM     17  C   UNL     1       6.068   7.367  -0.017  0.00  0.00    +0.267 C 
ATOM     18  O   UNL     1       5.017   7.982  -0.004  0.00  0.00    -0.268 OA
ATOM     19  H   UNL     1       6.897   5.530  -0.035  0.00  0.00    +0.173 HD
BRANCH  17  20
ATOM     20  C   UNL     1       7.341   8.093  -0.026  0.00  0.00    +0.076 A 
ATOM     21  C   UNL     1       7.568   9.457  -0.021  0.00  0.00    +0.024 A 
ATOM     22  C   UNL     1       8.880   9.902  -0.030  0.00  0.00    -0.036 A 
ATOM     23  C   UNL     1       9.854   8.945  -0.044  0.00  0.00    -0.006 A 
ATOM     24  S   UNL     1       9.005   7.447  -0.037  0.00  0.00    -0.088 S 
ATOM     25  C   UNL     1      11.335   9.165  -0.057  0.00  0.00    +0.043 C 
ATOM     26  C   UNL     1      11.604  10.631  -0.427  0.00  0.00    +0.005 C 
ATOM     27  C   UNL     1      10.703  11.527   0.426  0.00  0.00    +0.005 C 
ATOM     28  C   UNL     1       9.248  11.383  -0.024  0.00  0.00    +0.036 C 
ENDBRANCH  17  20
ENDBRANCH   3  16
TORSDOF 3
