REMARK  Name = ZINC15974629
REMARK  2 active torsions:
REMARK  status: ('A' for Active; 'I' for Inactive)
REMARK    1  A    between atoms: C_6  and  O_7
REMARK    2  A    between atoms: C_8  and  C_9
REMARK                            x       y       z     vdW  Elec       q    Type
REMARK                         _______ _______ _______ _____ _____    ______ ____
ROOT
ATOM      1  C   UNL     1       2.578  -4.198  -0.041  0.00  0.00    +0.172 A 
ATOM      2  N   UNL     1       1.559  -5.028  -0.134  0.00  0.00    -0.129 NA
ATOM      3  N   UNL     1       1.982  -6.244  -0.112  0.00  0.00    -0.133 NA
ATOM      4  C   UNL     1       3.279  -6.260  -0.008  0.00  0.00    +0.148 A 
ATOM      5  N   UNL     1       3.705  -4.966   0.042  0.00  0.00    -0.277 N 
ATOM      6  C   UNL     1       5.031  -4.537   0.162  0.00  0.00    +0.063 A 
ATOM      7  C   UNL     1       5.303  -3.251   0.609  0.00  0.00    +0.027 A 
ATOM      8  C   UNL     1       6.611  -2.826   0.742  0.00  0.00    +0.002 A 
ATOM      9  C   UNL     1       7.656  -3.678   0.431  0.00  0.00    +0.001 A 
ATOM     10  C   UNL     1       7.396  -4.958  -0.019  0.00  0.00    +0.017 A 
ATOM     11  C   UNL     1       6.085  -5.392  -0.161  0.00  0.00    +0.032 A 
ATOM     12  S   UNL     1       5.759  -7.017  -0.762  0.00  0.00    -0.115 S 
ATOM     13  C   UNL     1       4.188  -7.463   0.045  0.00  0.00    +0.151 C 
ENDROOT
BRANCH   1  20
ATOM     14  C   UNL     1       3.796   1.526  -1.867  0.00  0.00    +0.001 A 
ATOM     15  C   UNL     1       3.016   2.172  -0.910  0.00  0.00    +0.001 A 
ATOM     16  C   UNL     1       2.313   1.464   0.016  0.00  0.00    +0.008 A 
ATOM     17  C   UNL     1       2.372   0.060   0.011  0.00  0.00    -0.014 A 
ATOM     18  C   UNL     1       1.657  -0.698   0.954  0.00  0.00    +0.054 A 
ATOM     19  C   UNL     1       1.728  -2.059   0.930  0.00  0.00    +0.128 A 
ATOM     20  C   UNL     1       2.516  -2.722  -0.034  0.00  0.00    +0.062 A 
ATOM     21  C   UNL     1       3.229  -2.000  -0.974  0.00  0.00    +0.023 A 
ATOM     22  C   UNL     1       3.166  -0.598  -0.963  0.00  0.00    -0.017 A 
ATOM     23  C   UNL     1       3.878   0.168  -1.903  0.00  0.00    +0.008 A 
BRANCH  19  24
ATOM     24  O   UNL     1       1.034  -2.784   1.845  0.00  0.00    -0.506 OA
ATOM     25  H   UNL     1       0.115  -2.955   1.596  0.00  0.00    +0.292 HD
ENDBRANCH  19  24
ENDBRANCH   1  20
TORSDOF 2
