REMARK  Name = ZINC13415026
REMARK  8 active torsions:
REMARK  status: ('A' for Active; 'I' for Inactive)
REMARK    1  A    between atoms: C_1  and  C_2
REMARK    2  A    between atoms: C_3  and  C_32
REMARK    3  A    between atoms: C_9  and  C_13
REMARK    4  A    between atoms: C_13  and  S_14
REMARK    5  A    between atoms: S_14  and  C_15
REMARK    6  A    between atoms: N_23  and  C_24
REMARK    7  A    between atoms: C_27  and  O_30
REMARK    8  A    between atoms: O_30  and  C_31
REMARK                            x       y       z     vdW  Elec       q    Type
REMARK                         _______ _______ _______ _____ _____    ______ ____
ROOT
ATOM      1  S   UNL     1       3.624  -5.063  -0.043  0.00  0.00    -0.080 S 
ENDROOT
BRANCH   1   2
ATOM      2  C   UNL     1       4.524  -6.577  -0.055  0.00  0.00    +0.175 A 
ATOM      3  N   UNL     1       3.987  -7.773  -0.064  0.00  0.00    -0.222 NA
ATOM      4  C   UNL     1       4.968  -8.714  -0.072  0.00  0.00    +0.091 A 
ATOM      5  C   UNL     1       4.956 -10.111  -0.083  0.00  0.00    +0.030 A 
ATOM      6  C   UNL     1       6.145 -10.805  -0.089  0.00  0.00    +0.002 A 
ATOM      7  C   UNL     1       7.355 -10.128  -0.084  0.00  0.00    +0.002 A 
ATOM      8  C   UNL     1       7.384  -8.749  -0.073  0.00  0.00    +0.028 A 
ATOM      9  C   UNL     1       6.197  -8.034  -0.068  0.00  0.00    +0.074 A 
ATOM     10  N   UNL     1       5.889  -6.681  -0.062  0.00  0.00    -0.287 N 
BRANCH  10  11
ATOM     11  C   UNL     1       6.805  -5.619  -0.062  0.00  0.00    +0.049 A 
ATOM     12  C   UNL     1       7.633  -5.416  -1.158  0.00  0.00    +0.030 A 
ATOM     13  C   UNL     1       8.534  -4.370  -1.157  0.00  0.00    +0.047 A 
ATOM     14  C   UNL     1       8.612  -3.521  -0.062  0.00  0.00    +0.120 A 
ATOM     15  C   UNL     1       7.785  -3.724   1.033  0.00  0.00    +0.047 A 
ATOM     16  C   UNL     1       6.879  -4.766   1.031  0.00  0.00    +0.030 A 
BRANCH  14  17
ATOM     17  O   UNL     1       9.499  -2.491  -0.062  0.00  0.00    -0.495 OA
ATOM     18  C   UNL     1       9.526  -1.658   1.098  0.00  0.00    +0.277 C 
ENDBRANCH  14  17
ENDBRANCH  10  11
ENDBRANCH   1   2
BRANCH   1  19
ATOM     19  C   UNL     1       1.887  -5.585  -0.037  0.00  0.00    +0.151 C 
BRANCH  19  28
ATOM     20  C   UNL     1      -0.018   1.503   0.010  0.00  0.00    +0.087 C 
ATOM     21  C   UNL     1       0.002  -0.004   0.002  0.00  0.00    +0.119 A 
ATOM     22  C   UNL     1      -1.102  -0.806   0.003  0.00  0.00    +0.118 A 
ATOM     23  C   UNL     1      -0.586  -2.186  -0.007  0.00  0.00    +0.118 A 
ATOM     24  C   UNL     1      -1.171  -3.470  -0.011  0.00  0.00    +0.263 A 
ATOM     25  O   UNL     1      -2.382  -3.607  -0.006  0.00  0.00    -0.267 OA
ATOM     26  N   UNL     1      -0.348  -4.544  -0.020  0.00  0.00    -0.309 N 
ATOM     27  H   UNL     1      -0.720  -5.439  -0.023  0.00  0.00    +0.170 HD
ATOM     28  C   UNL     1       0.997  -4.369  -0.026  0.00  0.00    +0.124 A 
ATOM     29  N   UNL     1       1.547  -3.188  -0.022  0.00  0.00    -0.198 NA
ATOM     30  C   UNL     1       0.804  -2.070  -0.013  0.00  0.00    +0.235 A 
ATOM     31  O   UNL     1       1.106  -0.761  -0.013  0.00  0.00    -0.441 OA
BRANCH  22  32
ATOM     32  C   UNL     1      -2.507  -0.383   0.012  0.00  0.00    +0.391 C 
ATOM     33  O   UNL     1      -2.788   0.808   0.020  0.00  0.00    -0.240 OA
ATOM     34  O   UNL     1      -3.398  -1.222   0.012  0.00  0.00    -0.240 OA
ENDBRANCH  22  32
ENDBRANCH  19  28
ENDBRANCH   1  19
TORSDOF 6
