REMARK  Name = ZINC40263822
REMARK  6 active torsions:
REMARK  status: ('A' for Active; 'I' for Inactive)
REMARK    1  A    between atoms: C_1  and  C_2
REMARK    2  A    between atoms: C_2  and  C_3
REMARK    3  A    between atoms: C_2  and  C_4
REMARK    4  A    between atoms: C_7  and  C_10
REMARK    5  A    between atoms: C_10  and  C_12
REMARK    6  A    between atoms: C_10  and  O_23
REMARK                            x       y       z     vdW  Elec       q    Type
REMARK                         _______ _______ _______ _____ _____    ______ ____
ROOT
ATOM      1  C   UNL     1       2.707  -1.868  -4.752  0.00  0.00    +0.188 C 
ENDROOT
BRANCH   1   2
ATOM      2  C   UNL     1       2.212  -3.273  -5.102  0.00  0.00    +0.244 C 
ATOM      3  C   UNL     1       3.024  -3.830  -6.279  0.00  0.00    +0.276 C 
ATOM      4  O   UNL     1       2.546  -5.148  -6.570  0.00  0.00    -0.485 OA
ATOM      5  C   UNL     1       2.366  -5.981  -5.509  0.00  0.00    +0.162 A 
ATOM      6  C   UNL     1       2.262  -7.347  -5.726  0.00  0.00    +0.049 A 
ATOM      7  C   UNL     1       2.076  -8.205  -4.659  0.00  0.00    +0.004 A 
ATOM      8  C   UNL     1       1.994  -7.705  -3.372  0.00  0.00    +0.004 A 
ATOM      9  C   UNL     1       2.098  -6.346  -3.149  0.00  0.00    +0.049 A 
ATOM     10  C   UNL     1       2.286  -5.479  -4.215  0.00  0.00    +0.163 A 
ATOM     11  O   UNL     1       2.395  -4.142  -3.979  0.00  0.00    -0.479 OA
ENDBRANCH   1   2
BRANCH   1  15
ATOM     12  C   UNL     1       0.707  -0.490  -1.238  0.00  0.00    -0.045 A 
ATOM     13  C   UNL     1       0.222  -0.151  -2.487  0.00  0.00    +0.004 A 
ATOM     14  C   UNL     1       0.869  -0.597  -3.624  0.00  0.00    +0.006 A 
ATOM     15  C   UNL     1       2.002  -1.381  -3.513  0.00  0.00    -0.015 A 
ATOM     16  C   UNL     1       2.488  -1.720  -2.263  0.00  0.00    +0.006 A 
ATOM     17  C   UNL     1       1.843  -1.270  -1.126  0.00  0.00    +0.004 A 
BRANCH  12  19
ATOM     18  C   UNL     1      -0.019   1.526   0.010  0.00  0.00    +0.012 C 
ATOM     19  C   UNL     1       0.002  -0.004   0.002  0.00  0.00    +0.013 C 
ATOM     20  C   UNL     1      -1.433  -0.534   0.013  0.00  0.00    +0.012 C 
ENDBRANCH  12  19
ENDBRANCH   1  15
BRANCH   1  21
ATOM     21  O   UNL     1       4.115  -1.904  -4.516  0.00  0.00    -0.383 OA
ATOM     22  H   UNL     1       4.378  -2.487  -3.791  0.00  0.00    +0.210 HD
ENDBRANCH   1  21
TORSDOF 4
