REMARK  Name = ZINC13031032
REMARK  4 active torsions:
REMARK  status: ('A' for Active; 'I' for Inactive)
REMARK    1  A    between atoms: C_8  and  C_10
REMARK    2  A    between atoms: N_15  and  S_16
REMARK    3  A    between atoms: S_16  and  C_19
REMARK    4  A    between atoms: C_22  and  C_25
REMARK                            x       y       z     vdW  Elec       q    Type
REMARK                         _______ _______ _______ _____ _____    ______ ____
ROOT
ATOM      1  C   UNL     1      -0.017   1.365   0.009  0.00  0.00    +0.105 A 
ATOM      2  C   UNL     1       0.002  -0.004   0.002  0.00  0.00    +0.079 A 
ATOM      3  S   UNL     1       1.763  -0.314  -0.017  0.00  0.00    -0.059 S 
ATOM      4  C   UNL     1       2.294   1.393  -0.012  0.00  0.00    +0.178 A 
ATOM      5  N   UNL     1       1.139   2.030   0.002  0.00  0.00    -0.222 NA
ATOM      6  N   UNL     1       3.579   1.909  -0.022  0.00  0.00    -0.194 N 
ATOM      7  H   UNL     1       3.715   2.869  -0.018  0.00  0.00    +0.176 HD
ENDROOT
BRANCH   1  15
ATOM      8  C   UNL     1      -5.965   2.953   0.046  0.00  0.00    +0.002 A 
ATOM      9  C   UNL     1      -5.684   4.312   0.052  0.00  0.00    +0.001 A 
ATOM     10  C   UNL     1      -4.366   4.732   0.048  0.00  0.00    +0.017 A 
ATOM     11  C   UNL     1      -3.360   3.798   0.039  0.00  0.00    +0.040 A 
ATOM     12  C   UNL     1      -3.614   2.406   0.032  0.00  0.00    +0.079 A 
ATOM     13  C   UNL     1      -4.976   2.020   0.036  0.00  0.00    +0.029 A 
ATOM     14  N   UNL     1      -2.524   1.613   0.017  0.00  0.00    -0.237 NA
ATOM     15  C   UNL     1      -1.299   2.095   0.020  0.00  0.00    +0.128 A 
ATOM     16  S   UNL     1      -1.585   3.860   0.031  0.00  0.00    -0.066 S 
ENDBRANCH   1  15
BRANCH   6  17
ATOM     17  S   UNL     1       4.882   0.887  -0.040  0.00  0.00    +0.074 S 
ATOM     18  O   UNL     1       6.041   1.708  -0.074  0.00  0.00    -0.150 OA
ATOM     19  O   UNL     1       4.658  -0.074   0.982  0.00  0.00    -0.150 OA
BRANCH  17  20
ATOM     20  C   UNL     1       4.838   0.015  -1.571  0.00  0.00    +0.109 A 
ATOM     21  C   UNL     1       4.159  -1.188  -1.659  0.00  0.00    +0.029 A 
ATOM     22  C   UNL     1       4.117  -1.874  -2.855  0.00  0.00    +0.017 A 
ATOM     23  C   UNL     1       4.770  -1.357  -3.975  0.00  0.00    +0.063 A 
ATOM     24  C   UNL     1       5.457  -0.145  -3.878  0.00  0.00    +0.017 A 
ATOM     25  C   UNL     1       5.487   0.533  -2.677  0.00  0.00    +0.029 A 
BRANCH  23  26
ATOM     26  C   UNL     1       4.733  -2.088  -5.258  0.00  0.00    +0.387 C 
ATOM     27  O   UNL     1       5.301  -1.636  -6.232  0.00  0.00    -0.241 OA
ATOM     28  O   UNL     1       4.069  -3.257  -5.349  0.00  0.00    -0.241 OA
ENDBRANCH  23  26
ENDBRANCH  17  20
ENDBRANCH   6  17
TORSDOF 4
