REMARK  Name = ZINC20572598
REMARK  4 active torsions:
REMARK  status: ('A' for Active; 'I' for Inactive)
REMARK    1  A    between atoms: C_1  and  C_2
REMARK    2  A    between atoms: C_7  and  N_8
REMARK    3  A    between atoms: N_18  and  C_21
REMARK    4  A    between atoms: C_21  and  C_22
REMARK                            x       y       z     vdW  Elec       q    Type
REMARK                         _______ _______ _______ _____ _____    ______ ____
ROOT
ATOM      1  N   UNL     1      -2.623   2.521  -2.293  0.00  0.00    -0.250 N 
ATOM      2  C   UNL     1      -2.004   2.089  -1.137  0.00  0.00    +0.118 A 
ATOM      3  C   UNL     1      -0.742   1.585  -1.212  0.00  0.00    +0.069 A 
ATOM      4  C   UNL     1      -0.098   1.528  -2.462  0.00  0.00    +0.260 A 
ATOM      5  O   UNL     1       1.033   1.081  -2.547  0.00  0.00    -0.267 OA
ATOM      6  N   UNL     1      -0.737   1.966  -3.563  0.00  0.00    -0.274 N 
ATOM      7  H   UNL     1      -0.236   1.927  -4.542  0.00  0.00    +0.173 HD
ATOM      8  C   UNL     1      -1.987   2.455  -3.475  0.00  0.00    +0.335 A 
ATOM      9  O   UNL     1      -2.550   2.844  -4.480  0.00  0.00    -0.246 OA
ATOM     10  C   UNL     1      -0.013   1.086   0.008  0.00  0.00    +0.130 C 
ATOM     11  N   UNL     1      -0.701   1.560   1.218  0.00  0.00    -0.278 NA
ATOM     12  C   UNL     1      -2.148   1.316   1.089  0.00  0.00    +0.191 C 
ATOM     13  N   UNL     1      -2.684   2.194   0.046  0.00  0.00    -0.317 N 
ATOM     14  H   UNL     1      -3.546   2.843   0.263  0.00  0.00    +0.149 HD
ENDROOT
BRANCH   1  21
ATOM     15  C   UNL     1      -2.953   5.316  -1.867  0.00  0.00    +0.046 C 
ATOM     16  C   UNL     1      -4.131   4.390  -2.027  0.00  0.00    -0.026 A 
ATOM     17  C   UNL     1      -5.417   4.892  -1.968  0.00  0.00    +0.005 A 
ATOM     18  C   UNL     1      -6.499   4.043  -2.115  0.00  0.00    +0.000 A 
ATOM     19  C   UNL     1      -6.298   2.690  -2.320  0.00  0.00    +0.002 A 
ATOM     20  C   UNL     1      -5.014   2.184  -2.385  0.00  0.00    +0.026 A 
ATOM     21  C   UNL     1      -3.926   3.033  -2.233  0.00  0.00    +0.056 A 
ENDBRANCH   1  21
BRANCH  11  22
ATOM     22  C   UNL     1      -0.162   0.909   2.419  0.00  0.00    +0.123 C 
BRANCH  22  23
ATOM     23  C   UNL     1      -0.711   1.589   3.647  0.00  0.00    -0.015 A 
ATOM     24  C   UNL     1      -1.697   0.974   4.396  0.00  0.00    +0.006 A 
ATOM     25  C   UNL     1      -2.200   1.597   5.522  0.00  0.00    +0.000 A 
ATOM     26  C   UNL     1      -1.716   2.836   5.902  0.00  0.00    +0.001 A 
ATOM     27  C   UNL     1      -0.731   3.452   5.154  0.00  0.00    +0.020 A 
ATOM     28  C   UNL     1      -0.223   2.826   4.029  0.00  0.00    +0.045 A 
ATOM     29 CL   UNL     1       1.022   3.595   3.095  0.00  0.00    -0.083 Cl
ENDBRANCH  22  23
ENDBRANCH  11  22
TORSDOF 3
