REMARK  Name = ZINC15690552
REMARK  11 active torsions:
REMARK  status: ('A' for Active; 'I' for Inactive)
REMARK    1  A    between atoms: C_1  and  N_68
REMARK    2  A    between atoms: C_2  and  N_68
REMARK    3  A    between atoms: C_3  and  C_5
REMARK    4  A    between atoms: C_3  and  C_28
REMARK    5  A    between atoms: C_3  and  N_68
REMARK    6  A    between atoms: C_5  and  N_6
REMARK    7  A    between atoms: C_7  and  C_9
REMARK    8  A    between atoms: N_12  and  S_15
REMARK    9  A    between atoms: S_15  and  C_18
REMARK   10  A    between atoms: C_33  and  O_34
REMARK   11  A    between atoms: O_34  and  C_35
REMARK                            x       y       z     vdW  Elec       q    Type
REMARK                         _______ _______ _______ _____ _____    ______ ____
ROOT
ATOM      1  C   UNL     1       1.951  10.932   4.412  0.00  0.00    +0.077 C 
ATOM      2  C   UNL     1       3.293  11.112   3.699  0.00  0.00    +0.030 C 
ATOM      3  C   UNL     1       3.780   9.754   3.184  0.00  0.00    +0.110 C 
ATOM      4  N   UNL     1       2.728   9.160   2.349  0.00  0.00    -0.177 NA
ATOM      5  C   UNL     1       1.375   9.028   2.905  0.00  0.00    +0.110 C 
ATOM      6  C   UNL     1       0.915  10.389   3.424  0.00  0.00    +0.030 C 
ENDROOT
BRANCH   1   8
ATOM      7  N   UNL     1       0.318  12.345   5.619  0.00  0.00    -0.316 N 
ATOM      8  C   UNL     1       1.484  12.260   4.949  0.00  0.00    +0.216 C 
ATOM      9  O   UNL     1       2.159  13.254   4.778  0.00  0.00    -0.276 OA
ATOM     10  H   UNL     1      -0.221  11.550   5.755  0.00  0.00    +0.149 HD
BRANCH   7  11
ATOM     11  C   UNL     1      -0.135  13.636   6.141  0.00  0.00    +0.093 C 
BRANCH  11  12
ATOM     12  C   UNL     1      -1.522  13.475   6.766  0.00  0.00    -0.017 C 
BRANCH  12  13
ATOM     13  C   UNL     1      -1.424  12.597   7.986  0.00  0.00    -0.018 A 
ATOM     14  C   UNL     1      -1.675  11.242   7.885  0.00  0.00    +0.005 A 
ATOM     15  C   UNL     1      -1.586  10.436   9.005  0.00  0.00    +0.000 A 
ATOM     16  C   UNL     1      -1.244  10.983  10.228  0.00  0.00    +0.004 A 
ATOM     17  C   UNL     1      -0.992  12.336  10.334  0.00  0.00    +0.046 A 
ATOM     18  C   UNL     1      -1.077  13.147   9.211  0.00  0.00    +0.122 A 
BRANCH  18  19
ATOM     19  O   UNL     1      -0.824  14.479   9.312  0.00  0.00    -0.495 OA
ATOM     20  C   UNL     1      -0.471  14.976  10.605  0.00  0.00    +0.277 C 
ENDBRANCH  18  19
ENDBRANCH  12  13
BRANCH  12  23
ATOM     21  C   UNL     1      -3.810  12.837   6.295  0.00  0.00    -0.096 C 
ATOM     22  C   UNL     1      -2.355  13.544   4.493  0.00  0.00    -0.096 C 
ATOM     23  N   UNL     1      -2.422  12.831   5.786  0.00  0.00    +0.382 N 
ATOM     24  H   UNL     1      -2.122  11.859   5.647  0.00  0.00    -0.082 HD
ENDBRANCH  12  23
ENDBRANCH  11  12
ENDBRANCH   7  11
ENDBRANCH   1   8
BRANCH   4  25
ATOM     25  S   UNL     1       3.060   8.654   0.807  0.00  0.00    +0.061 S 
ATOM     26  O   UNL     1       4.196   9.390   0.374  0.00  0.00    -0.153 OA
ATOM     27  O   UNL     1       1.827   8.669   0.101  0.00  0.00    -0.153 OA
BRANCH  25  28
ATOM     28  C   UNL     1       3.562   6.968   0.909  0.00  0.00    +0.106 A 
ATOM     29  C   UNL     1       4.910   6.662   1.082  0.00  0.00    +0.029 A 
ATOM     30  C   UNL     1       5.331   5.370   1.164  0.00  0.00    +0.010 A 
ATOM     31  C   UNL     1       4.394   4.327   1.074  0.00  0.00    -0.018 A 
ATOM     32  C   UNL     1       4.791   2.981   1.155  0.00  0.00    +0.008 A 
ATOM     33  C   UNL     1       3.856   1.997   1.063  0.00  0.00    +0.001 A 
ATOM     34  C   UNL     1       2.507   2.302   0.885  0.00  0.00    +0.001 A 
ATOM     35  C   UNL     1       2.086   3.594   0.808  0.00  0.00    +0.008 A 
ATOM     36  C   UNL     1       3.023   4.638   0.898  0.00  0.00    -0.016 A 
ATOM     37  C   UNL     1       2.626   5.983   0.818  0.00  0.00    +0.037 A 
ENDBRANCH  25  28
ENDBRANCH   4  25
TORSDOF 8
