REMARK  Name = ZINC08887694
REMARK  9 active torsions:
REMARK  status: ('A' for Active; 'I' for Inactive)
REMARK    1  A    between atoms: N_3  and  C_22
REMARK    2  A    between atoms: C_6  and  C_7
REMARK    3  A    between atoms: C_6  and  N_80
REMARK    4  A    between atoms: C_7  and  N_8
REMARK    5  A    between atoms: N_8  and  C_9
REMARK    6  A    between atoms: C_9  and  N_11
REMARK    7  A    between atoms: N_11  and  C_12
REMARK    8  A    between atoms: C_22  and  N_24
REMARK    9  A    between atoms: N_24  and  C_25
REMARK                            x       y       z     vdW  Elec       q    Type
REMARK                         _______ _______ _______ _____ _____    ______ ____
ROOT
ATOM      1  C   UNL     1      -7.661  -0.318   2.820  0.00  0.00    -0.059 C 
ATOM      2  C   UNL     1      -7.107   0.971   2.204  0.00  0.00    +0.088 C 
ATOM      3  N   UNL     1      -6.167   0.610   1.132  0.00  0.00    -0.316 N 
ATOM      4  C   UNL     1      -6.617  -0.337   0.101  0.00  0.00    +0.088 C 
ATOM      5  C   UNL     1      -7.189  -1.579   0.803  0.00  0.00    -0.059 C 
ATOM      6  N   UNL     1      -8.245  -1.146   1.743  0.00  0.00    +0.383 N 
ATOM      7  H   UNL     1      -8.938  -0.586   1.231  0.00  0.00    -0.082 HD
ENDROOT
BRANCH   3   8
ATOM      8  C   UNL     1      -4.927   1.137   1.093  0.00  0.00    +0.133 C 
ATOM      9  S   UNL     1      -4.380   2.134   2.372  0.00  0.00    -0.019 S 
BRANCH   8  10
ATOM     10  N   UNL     1      -4.117   0.878   0.046  0.00  0.00    -0.321 N 
ATOM     11  H   UNL     1      -4.452   0.377  -0.713  0.00  0.00    +0.148 HD
BRANCH  10  12
ATOM     12  C   UNL     1      -2.732   1.355   0.056  0.00  0.00    +0.034 C 
ATOM     13  C   UNL     1      -2.015   0.811   1.294  0.00  0.00    +0.029 C 
ATOM     14  C   UNL     1      -0.568   1.309   1.304  0.00  0.00    -0.008 C 
ATOM     15  C   UNL     1      -0.555   2.839   1.338  0.00  0.00    +0.007 C 
ATOM     16  C   UNL     1      -1.273   3.382   0.101  0.00  0.00    -0.008 C 
ATOM     17  C   UNL     1      -2.720   2.885   0.090  0.00  0.00    +0.029 C 
ATOM     18  C   UNL     1      -0.556   2.894  -1.160  0.00  0.00    +0.007 C 
ATOM     19  C   UNL     1      -0.569   1.365  -1.194  0.00  0.00    -0.008 C 
ATOM     20  C   UNL     1       0.148   0.821   0.043  0.00  0.00    +0.007 C 
ATOM     21  C   UNL     1      -2.016   0.867  -1.204  0.00  0.00    +0.029 C 
ENDBRANCH  10  12
ENDBRANCH   8  10
ENDBRANCH   3   8
BRANCH   6  22
ATOM     22  C   UNL     1      -8.918  -2.326   2.324  0.00  0.00    -0.060 C 
BRANCH  22  23
ATOM     23  C   UNL     1      -9.698  -3.042   1.219  0.00  0.00    +0.084 C 
BRANCH  23  24
ATOM     24  N   UNL     1     -10.390  -4.203   1.783  0.00  0.00    -0.328 N 
ATOM     25  H   UNL     1     -10.306  -4.406   2.728  0.00  0.00    +0.148 HD
BRANCH  24  26
ATOM     26  C   UNL     1     -11.145  -4.989   0.990  0.00  0.00    +0.131 C 
ATOM     27  S   UNL     1     -11.295  -4.630  -0.677  0.00  0.00    -0.019 S 
BRANCH  26  28
ATOM     28  N   UNL     1     -11.782  -6.057   1.509  0.00  0.00    -0.321 N 
ATOM     29  H   UNL     1     -11.637  -6.305   2.435  0.00  0.00    +0.148 HD
BRANCH  28  30
ATOM     30  C   UNL     1     -12.692  -6.844   0.673  0.00  0.00    +0.034 C 
ATOM     31  C   UNL     1     -13.335  -7.946   1.518  0.00  0.00    +0.029 C 
ATOM     32  C   UNL     1     -14.286  -8.768   0.646  0.00  0.00    -0.008 C 
ATOM     33  C   UNL     1     -13.503  -9.400  -0.507  0.00  0.00    +0.007 C 
ATOM     34  C   UNL     1     -12.860  -8.298  -1.351  0.00  0.00    -0.008 C 
ATOM     35  C   UNL     1     -11.909  -7.476  -0.479  0.00  0.00    +0.029 C 
ATOM     36  C   UNL     1     -13.951  -7.386  -1.916  0.00  0.00    +0.007 C 
ATOM     37  C   UNL     1     -14.734  -6.754  -0.763  0.00  0.00    -0.008 C 
ATOM     38  C   UNL     1     -15.377  -7.856   0.081  0.00  0.00    +0.007 C 
ATOM     39  C   UNL     1     -13.784  -5.932   0.109  0.00  0.00    +0.029 C 
ENDBRANCH  28  30
ENDBRANCH  26  28
ENDBRANCH  24  26
ENDBRANCH  23  24
ENDBRANCH  22  23
ENDBRANCH   6  22
TORSDOF 9
