REMARK  Name = ZINC67296301
REMARK  7 active torsions:
REMARK  status: ('A' for Active; 'I' for Inactive)
REMARK    1  A    between atoms: C_1  and  C_2
REMARK    2  A    between atoms: C_2  and  C_4
REMARK    3  A    between atoms: C_2  and  N_11
REMARK    4  A    between atoms: C_4  and  O_5
REMARK    5  A    between atoms: O_5  and  C_6
REMARK    6  A    between atoms: C_6  and  C_7
REMARK    7  A    between atoms: C_12  and  C_14
REMARK                            x       y       z     vdW  Elec       q    Type
REMARK                         _______ _______ _______ _____ _____    ______ ____
ROOT
ATOM      1  C   UNL     1       0.697  -1.084  -3.573  0.00  0.00    +0.037 A 
ATOM      2  C   UNL     1       2.061  -1.405  -3.523  0.00  0.00    +0.015 A 
ATOM      3  C   UNL     1       2.713  -1.846  -4.636  0.00  0.00    +0.027 A 
ATOM      4  C   UNL     1       2.029  -1.984  -5.842  0.00  0.00    +0.047 A 
ATOM      5  C   UNL     1       0.657  -1.665  -5.907  0.00  0.00    +0.004 A 
ATOM      6  C   UNL     1      -0.007  -1.220  -4.766  0.00  0.00    +0.023 A 
ATOM      7  C   UNL     1       0.254  -1.914  -7.288  0.00  0.00    -0.019 A 
ATOM      8  C   UNL     1       1.343  -2.348  -7.950  0.00  0.00    +0.020 A 
ATOM      9  N   UNL     1       2.410  -2.394  -7.098  0.00  0.00    -0.358 N 
ATOM     10  H   UNL     1       3.306  -2.675  -7.343  0.00  0.00    +0.166 HD
ATOM     11  C   UNL     1       1.339  -2.718  -9.416  0.00  0.00    +0.053 C 
ATOM     12  C   UNL     1      -0.113  -2.923  -9.863  0.00  0.00    +0.006 C 
ATOM     13  C   UNL     1      -0.956  -1.721  -9.428  0.00  0.00    +0.005 C 
ATOM     14  C   UNL     1      -1.110  -1.734  -7.903  0.00  0.00    +0.037 C 
ENDROOT
BRANCH   1  16
ATOM     15  N   UNL     1       0.688  -0.476  -1.203  0.00  0.00    -0.307 N 
ATOM     16  C   UNL     1       0.006  -0.608  -2.358  0.00  0.00    +0.244 C 
ATOM     17  O   UNL     1      -1.178  -0.335  -2.400  0.00  0.00    -0.270 OA
ATOM     18  H   UNL     1       1.632  -0.695  -1.170  0.00  0.00    +0.149 HD
BRANCH  15  20
ATOM     19  C   UNL     1      -0.019   1.526   0.010  0.00  0.00    +0.030 C 
ATOM     20  C   UNL     1       0.002  -0.004   0.002  0.00  0.00    +0.096 C 
BRANCH  20  21
ATOM     21  C   UNL     1       0.742  -0.511   1.242  0.00  0.00    +0.182 C 
BRANCH  21  22
ATOM     22  O   UNL     1       2.044   0.076   1.292  0.00  0.00    -0.369 OA
BRANCH  22  23
ATOM     23  C   UNL     1       2.823  -0.333   2.418  0.00  0.00    +0.273 C 
BRANCH  23  24
ATOM     24  C   UNL     1       4.189   0.354   2.371  0.00  0.00    +0.413 C 
ATOM     25  F   UNL     1       4.015   1.741   2.404  0.00  0.00    -0.168 F 
ATOM     26  F   UNL     1       4.951  -0.047   3.473  0.00  0.00    -0.168 F 
ATOM     27  F   UNL     1       4.850  -0.005   1.191  0.00  0.00    -0.168 F 
ENDBRANCH  23  24
ENDBRANCH  22  23
ENDBRANCH  21  22
ENDBRANCH  20  21
ENDBRANCH  15  20
ENDBRANCH   1  16
TORSDOF 6
