REMARK  Name = ZINC04741980
REMARK  6 active torsions:
REMARK  status: ('A' for Active; 'I' for Inactive)
REMARK    1  A    between atoms: C_1  and  C_2
REMARK    2  A    between atoms: C_2  and  C_3
REMARK    3  A    between atoms: C_9  and  C_11
REMARK    4  A    between atoms: C_11  and  C_13
REMARK    5  A    between atoms: C_11  and  S_14
REMARK    6  A    between atoms: S_14  and  C_15
REMARK                            x       y       z     vdW  Elec       q    Type
REMARK                         _______ _______ _______ _____ _____    ______ ____
ROOT
ATOM      1  C   UNL     1      -7.335  -2.716   0.505  0.00  0.00    +0.137 C 
ATOM      2  C   UNL     1      -7.222  -4.190   0.900  0.00  0.00    +0.029 C 
ENDROOT
BRANCH   1   9
ATOM      3  C   UNL     1      -1.412  -0.526   0.013  0.00  0.00    +0.103 A 
ATOM      4  N   UNL     1      -2.212  -0.818  -0.993  0.00  0.00    -0.145 NA
ATOM      5  N   UNL     1      -3.375  -1.249  -0.747  0.00  0.00    -0.126 NA
ATOM      6  C   UNL     1      -3.811  -1.414   0.486  0.00  0.00    +0.188 A 
ATOM      7  S   UNL     1      -2.474  -0.930   1.392  0.00  0.00    -0.035 S 
ATOM      8  N   UNL     1      -5.048  -1.872   0.925  0.00  0.00    -0.262 N 
ATOM      9  C   UNL     1      -5.994  -2.219   0.030  0.00  0.00    +0.232 C 
ATOM     10  O   UNL     1      -5.766  -2.132  -1.158  0.00  0.00    -0.274 OA
ATOM     11  H   UNL     1      -5.231  -1.942   1.875  0.00  0.00    +0.157 HD
BRANCH   3  13
ATOM     12  C   UNL     1      -0.019   1.526   0.010  0.00  0.00    +0.011 C 
ATOM     13  C   UNL     1       0.002  -0.004   0.002  0.00  0.00    +0.061 C 
ENDBRANCH   3  13
ENDBRANCH   1   9
BRANCH   1  14
ATOM     14  S   UNL     1      -8.553  -2.539  -0.828  0.00  0.00    -0.073 S 
BRANCH  14  15
ATOM     15  C   UNL     1     -10.076  -3.015  -0.080  0.00  0.00    +0.193 A 
ATOM     16  N   UNL     1     -11.174  -2.992  -0.811  0.00  0.00    -0.222 NA
ATOM     17  C   UNL     1     -12.351  -3.347  -0.277  0.00  0.00    +0.079 A 
ATOM     18  C   UNL     1     -13.538  -3.335  -1.024  0.00  0.00    +0.028 A 
ATOM     19  C   UNL     1     -14.709  -3.707  -0.433  0.00  0.00    +0.002 A 
ATOM     20  C   UNL     1     -14.746  -4.100   0.902  0.00  0.00    +0.001 A 
ATOM     21  C   UNL     1     -13.610  -4.122   1.657  0.00  0.00    +0.015 A 
ATOM     22  C   UNL     1     -12.391  -3.747   1.081  0.00  0.00    +0.067 A 
ATOM     23  C   UNL     1     -11.181  -3.752   1.816  0.00  0.00    +0.282 A 
ATOM     24  O   UNL     1     -11.161  -4.125   3.116  0.00  0.00    -0.265 OA
ATOM     25  N   UNL     1     -10.070  -3.389   1.198  0.00  0.00    -0.183 NA
ENDBRANCH  14  15
ENDBRANCH   1  14
TORSDOF 4
