REMARK  Name = ZINC02644234
REMARK  6 active torsions:
REMARK  status: ('A' for Active; 'I' for Inactive)
REMARK    1  A    between atoms: C_1  and  C_2
REMARK    2  A    between atoms: N_4  and  C_5
REMARK    3  A    between atoms: C_6  and  C_14
REMARK    4  A    between atoms: C_14  and  O_16
REMARK    5  A    between atoms: O_16  and  C_17
REMARK    6  A    between atoms: C_17  and  C_18
REMARK                            x       y       z     vdW  Elec       q    Type
REMARK                         _______ _______ _______ _____ _____    ______ ____
ROOT
ATOM      1  C   UNL     1      -3.945   3.090   0.050  0.00  0.00    +0.342 C 
ATOM      2  O   UNL     1      -4.064   3.699  -0.997  0.00  0.00    -0.245 OA
ENDROOT
BRANCH   1   4
ATOM      3  C   UNL     1      -2.381   1.157   0.020  0.00  0.00    +0.086 A 
ATOM      4  C   UNL     1      -3.680   1.650   0.034  0.00  0.00    +0.091 A 
ATOM      5  C   UNL     1      -4.765   0.683   0.029  0.00  0.00    -0.021 A 
ATOM      6  C   UNL     1      -4.381  -0.611   0.021  0.00  0.00    -0.004 A 
ATOM      7  S   UNL     1      -2.612  -0.560   0.012  0.00  0.00    -0.077 S 
ATOM      8  C   UNL     1      -5.271  -1.817   0.019  0.00  0.00    +0.043 C 
ATOM      9  C   UNL     1      -6.689  -1.372   0.407  0.00  0.00    +0.005 C 
ATOM     10  C   UNL     1      -7.063  -0.140  -0.422  0.00  0.00    +0.005 C 
ATOM     11  C   UNL     1      -6.240   1.065   0.037  0.00  0.00    +0.037 C 
BRANCH   3  15
ATOM     12  C   UNL     1       1.280   1.980   0.001  0.00  0.00    +0.109 C 
ATOM     13  C   UNL     1      -0.014   1.209   0.009  0.00  0.00    +0.214 C 
ATOM     14  O   UNL     1       0.002  -0.004   0.002  0.00  0.00    -0.276 OA
ATOM     15  N   UNL     1      -1.191   1.867   0.018  0.00  0.00    -0.280 N 
ATOM     16  H   UNL     1      -1.204   2.836   0.023  0.00  0.00    +0.155 HD
ENDBRANCH   3  15
ENDBRANCH   1   4
BRANCH   1  17
ATOM     17  O   UNL     1      -4.058   3.742   1.225  0.00  0.00    -0.452 OA
BRANCH  17  18
ATOM     18  C   UNL     1      -4.322   5.169   1.165  0.00  0.00    +0.328 C 
BRANCH  18  19
ATOM     19  C   UNL     1      -4.415   5.722   2.564  0.00  0.00    +0.258 C 
ATOM     20  O   UNL     1      -4.273   4.986   3.518  0.00  0.00    -0.271 OA
ATOM     21  N   UNL     1      -4.656   7.034   2.755  0.00  0.00    -0.258 N 
ATOM     22  C   UNL     1      -4.825   7.949   1.615  0.00  0.00    +0.209 C 
ATOM     23  C   UNL     1      -4.098   9.233   1.899  0.00  0.00    +0.235 C 
ATOM     24  O   UNL     1      -3.655   9.887   0.978  0.00  0.00    -0.274 OA
ATOM     25  N   UNL     1      -3.927   9.666   3.163  0.00  0.00    -0.283 N 
ATOM     26  C   UNL     1      -4.383   8.907   4.246  0.00  0.00    +0.055 A 
ATOM     27  C   UNL     1      -4.747   7.573   4.048  0.00  0.00    +0.058 A 
ATOM     28  C   UNL     1      -5.188   6.807   5.111  0.00  0.00    +0.025 A 
ATOM     29  C   UNL     1      -5.271   7.368   6.374  0.00  0.00    +0.002 A 
ATOM     30  C   UNL     1      -4.914   8.689   6.572  0.00  0.00    +0.002 A 
ATOM     31  C   UNL     1      -4.471   9.460   5.513  0.00  0.00    +0.025 A 
ATOM     32  H   UNL     1      -3.483  10.513   3.324  0.00  0.00    +0.155 HD
ENDBRANCH  18  19
ENDBRANCH  17  18
ENDBRANCH   1  17
TORSDOF 5
