REMARK  Name = ZINC39442415
REMARK  7 active torsions:
REMARK  status: ('A' for Active; 'I' for Inactive)
REMARK    1  A    between atoms: C_1  and  N_2
REMARK    2  A    between atoms: N_2  and  C_3
REMARK    3  A    between atoms: N_2  and  C_10
REMARK    4  A    between atoms: C_3  and  C_4
REMARK    5  A    between atoms: C_10  and  C_11
REMARK    6  A    between atoms: N_13  and  C_26
REMARK    7  A    between atoms: C_15  and  C_17
REMARK                            x       y       z     vdW  Elec       q    Type
REMARK                         _______ _______ _______ _____ _____    ______ ____
ROOT
ATOM      1  C   UNL     1      -1.883  -0.091  -1.249  0.00  0.00    -0.048 C 
ATOM      2  C   UNL     1      -2.109  -0.791  -2.343  0.00  0.00    +0.093 C 
ATOM      3  N   UNL     1      -2.685  -0.020  -3.334  0.00  0.00    -0.242 N 
ATOM      4  N   UNL     1      -2.866   1.266  -2.912  0.00  0.00    -0.225 NA
ATOM      5  C   UNL     1      -2.365   1.317  -1.524  0.00  0.00    +0.129 C 
ATOM      6  H   UNL     1      -3.841   1.526  -2.951  0.00  0.00    +0.146 HD
ENDROOT
BRANCH   5   7
ATOM      7  C   UNL     1      -1.224   2.295  -1.414  0.00  0.00    -0.021 A 
ATOM      8  C   UNL     1      -0.270   2.357  -2.413  0.00  0.00    +0.009 A 
ATOM      9  C   UNL     1       0.778   3.253  -2.317  0.00  0.00    +0.050 A 
ATOM     10  C   UNL     1       0.875   4.092  -1.218  0.00  0.00    +0.166 A 
ATOM     11  C   UNL     1      -0.086   4.029  -0.212  0.00  0.00    +0.167 A 
ATOM     12  C   UNL     1      -1.137   3.133  -0.318  0.00  0.00    +0.055 A 
ATOM     13  O   UNL     1       0.230   4.945   0.750  0.00  0.00    -0.453 OA
ATOM     14  C   UNL     1       1.611   5.281   0.523  0.00  0.00    +0.466 C 
ATOM     15  O   UNL     1       1.792   5.047  -0.886  0.00  0.00    -0.453 OA
ENDBRANCH   5   7
BRANCH   3  16
ATOM     16  C   UNL     1      -3.036  -0.493  -4.601  0.00  0.00    +0.049 A 
ATOM     17  C   UNL     1      -3.606   0.366  -5.532  0.00  0.00    +0.025 A 
ATOM     18  C   UNL     1      -3.951  -0.105  -6.783  0.00  0.00    +0.002 A 
ATOM     19  C   UNL     1      -3.730  -1.430  -7.110  0.00  0.00    +0.000 A 
ATOM     20  C   UNL     1      -3.163  -2.288  -6.185  0.00  0.00    +0.002 A 
ATOM     21  C   UNL     1      -2.810  -1.823  -4.934  0.00  0.00    +0.025 A 
ENDBRANCH   3  16
BRANCH   1  22
ATOM     22  C   UNL     1      -1.270  -0.597   0.030  0.00  0.00    -0.044 C 
BRANCH  22  24
ATOM     23  C   UNL     1      -3.110  -2.073   0.466  0.00  0.00    -0.095 C 
ATOM     24  N   UNL     1      -2.335  -0.938   0.983  0.00  0.00    +0.384 N 
ATOM     25  H   UNL     1      -2.943  -0.142   1.105  0.00  0.00    -0.081 HD
BRANCH  24  26
ATOM     26  C   UNL     1      -1.738  -1.300   2.276  0.00  0.00    -0.021 C 
BRANCH  26  27
ATOM     27  C   UNL     1      -2.831  -1.530   3.287  0.00  0.00    +0.046 A 
ATOM     28  C   UNL     1      -3.396  -2.766   3.617  0.00  0.00    +0.042 A 
ATOM     29  C   UNL     1      -4.341  -2.553   4.562  0.00  0.00    +0.105 A 
ATOM     30  N   UNL     1      -4.373  -1.229   4.821  0.00  0.00    -0.285 N 
ATOM     31  N   UNL     1      -3.412  -0.609   4.012  0.00  0.00    -0.181 NA
ATOM     32  H   UNL     1      -4.955  -0.785   5.457  0.00  0.00    +0.188 HD
ENDBRANCH  26  27
ENDBRANCH  24  26
ENDBRANCH  22  24
ENDBRANCH   1  22
TORSDOF 6
