REMARK  Name = ZINC39455100
REMARK  4 active torsions:
REMARK  status: ('A' for Active; 'I' for Inactive)
REMARK    1  A    between atoms: C_3  and  N_25
REMARK    2  A    between atoms: C_6  and  C_7
REMARK    3  A    between atoms: C_7  and  N_8
REMARK    4  A    between atoms: C_14  and  C_18
REMARK                            x       y       z     vdW  Elec       q    Type
REMARK                         _______ _______ _______ _____ _____    ______ ____
ROOT
ATOM      1  N   UNL     1      -1.728  -1.016  -1.371  0.00  0.00    +0.385 N 
ATOM      2  C   UNL     1      -2.030   0.266  -2.020  0.00  0.00    -0.072 C 
ATOM      3  C   UNL     1      -2.191   0.063  -3.532  0.00  0.00    +0.038 C 
ATOM      4  C   UNL     1      -3.162  -1.079  -3.744  0.00  0.00    +0.059 C 
ATOM      5  C   UNL     1      -3.477  -1.929  -2.758  0.00  0.00    -0.035 C 
ATOM      6  C   UNL     1      -2.929  -1.871  -1.364  0.00  0.00    -0.043 C 
ATOM      7  C   UNL     1      -4.457  -2.890  -3.376  0.00  0.00    +0.155 C 
ATOM      8  N   UNL     1      -4.562  -2.396  -4.763  0.00  0.00    -0.297 N 
ATOM      9  N   UNL     1      -3.824  -1.409  -4.871  0.00  0.00    -0.182 NA
ATOM     10  H   UNL     1      -5.112  -2.777  -5.465  0.00  0.00    +0.183 HD
ATOM     11  H   UNL     1      -0.990  -1.481  -1.878  0.00  0.00    -0.081 HD
ENDROOT
BRANCH   7  12
ATOM     12  C   UNL     1      -5.790  -2.818  -2.676  0.00  0.00    -0.020 A 
ATOM     13  C   UNL     1      -6.678  -1.804  -2.982  0.00  0.00    +0.007 A 
ATOM     14  C   UNL     1      -7.900  -1.738  -2.341  0.00  0.00    +0.020 A 
ATOM     15  C   UNL     1      -8.235  -2.688  -1.392  0.00  0.00    +0.041 A 
ATOM     16  C   UNL     1      -7.346  -3.703  -1.086  0.00  0.00    +0.020 A 
ATOM     17  C   UNL     1      -6.126  -3.771  -1.732  0.00  0.00    +0.007 A 
ATOM     18 CL   UNL     1      -9.770  -2.605  -0.586  0.00  0.00    -0.084 Cl
ENDBRANCH   7  12
BRANCH   1  19
ATOM     19  C   UNL     1      -1.294  -0.774   0.011  0.00  0.00    -0.043 C 
BRANCH  19  25
ATOM     20  C   UNL     1      -0.017   1.379   0.010  0.00  0.00    +0.004 A 
ATOM     21  C   UNL     1       1.169   2.087   0.002  0.00  0.00    +0.028 A 
ATOM     22  C   UNL     1       2.381   1.409  -0.013  0.00  0.00    +0.067 A 
ATOM     23  C   UNL     1       2.396   0.021  -0.021  0.00  0.00    +0.028 A 
ATOM     24  C   UNL     1       1.207  -0.682  -0.013  0.00  0.00    +0.004 A 
ATOM     25  C   UNL     1       0.002  -0.004   0.002  0.00  0.00    -0.064 A 
BRANCH  22  26
ATOM     26  N   UNL     1       3.586   2.125  -0.021  0.00  0.00    -0.220 N 
ATOM     27  C   UNL     1       4.831   1.611  -0.041  0.00  0.00    +0.225 A 
ATOM     28  N   UNL     1       5.681   2.606  -0.043  0.00  0.00    -0.222 NA
ATOM     29  C   UNL     1       5.021   3.764  -0.024  0.00  0.00    +0.245 A 
ATOM     30  N   UNL     1       3.736   3.522  -0.016  0.00  0.00    -0.154 NA
ENDBRANCH  22  26
ENDBRANCH  19  25
ENDBRANCH   1  19
TORSDOF 4
