REMARK  Name = ZINC08753580
REMARK  8 active torsions:
REMARK  status: ('A' for Active; 'I' for Inactive)
REMARK    1  A    between atoms: C_1  and  O_2
REMARK    2  A    between atoms: O_2  and  C_3
REMARK    3  A    between atoms: C_6  and  O_26
REMARK    4  A    between atoms: C_7  and  C_9
REMARK    5  A    between atoms: N_13  and  C_17
REMARK    6  A    between atoms: C_20  and  C_24
REMARK    7  A    between atoms: C_21  and  O_23
REMARK    8  A    between atoms: O_26  and  C_27
REMARK                            x       y       z     vdW  Elec       q    Type
REMARK                         _______ _______ _______ _____ _____    ______ ____
ROOT
ATOM      1  C   UNL     1      -2.004   2.284   3.597  0.00  0.00    +0.032 C 
ATOM      2  C   UNL     1      -2.751   2.828   4.592  0.00  0.00    +0.078 C 
ATOM      3  C   UNL     1      -2.351   3.754   5.670  0.00  0.00    +0.263 C 
ATOM      4  O   UNL     1      -1.207   4.154   5.777  0.00  0.00    -0.269 OA
ATOM      5  N   UNL     1      -3.300   4.130   6.511  0.00  0.00    -0.223 N 
ATOM      6  C   UNL     1      -4.565   3.679   6.392  0.00  0.00    +0.125 C 
ATOM      7  S   UNL     1      -5.920   4.040   7.376  0.00  0.00    -0.027 S 
ATOM      8  S   UNL     1      -4.486   2.613   4.962  0.00  0.00    -0.061 S 
ENDROOT
BRANCH   1  13
ATOM      9  C   UNL     1      -4.631   0.960   1.270  0.00  0.00    +0.121 A 
ATOM     10  C   UNL     1      -3.882   0.089   0.487  0.00  0.00    +0.049 A 
ATOM     11  C   UNL     1      -2.528  -0.065   0.712  0.00  0.00    +0.050 A 
ATOM     12  C   UNL     1      -1.904   0.650   1.722  0.00  0.00    +0.127 A 
ATOM     13  C   UNL     1      -2.654   1.528   2.521  0.00  0.00    +0.021 A 
ATOM     14  C   UNL     1      -4.025   1.681   2.282  0.00  0.00    +0.057 A 
BRANCH   9  16
ATOM     15  C   UNL     1      -6.525   0.329  -0.021  0.00  0.00    +0.277 C 
ATOM     16  O   UNL     1      -5.963   1.103   1.040  0.00  0.00    -0.495 OA
ENDBRANCH   9  16
BRANCH  12  17
ATOM     17  O   UNL     1      -0.573   0.498   1.941  0.00  0.00    -0.495 OA
ATOM     18  C   UNL     1       0.124  -0.417   1.093  0.00  0.00    +0.277 C 
ENDBRANCH  12  17
ENDBRANCH   1  13
BRANCH   5  19
ATOM     19  C   UNL     1      -2.984   5.010   7.548  0.00  0.00    +0.046 A 
ATOM     20  C   UNL     1      -2.682   6.340   7.263  0.00  0.00    +0.025 A 
ATOM     21  C   UNL     1      -2.372   7.208   8.269  0.00  0.00    +0.020 A 
ATOM     22  C   UNL     1      -2.354   6.766   9.597  0.00  0.00    +0.105 A 
ATOM     23  C   UNL     1      -2.657   5.427   9.889  0.00  0.00    +0.133 A 
ATOM     24  C   UNL     1      -2.976   4.557   8.860  0.00  0.00    +0.070 A 
BRANCH  22  25
ATOM     25  C   UNL     1      -2.020   7.702  10.682  0.00  0.00    +0.390 C 
ATOM     26  O   UNL     1      -2.006   7.316  11.835  0.00  0.00    -0.240 OA
ATOM     27  O   UNL     1      -1.730   8.988  10.399  0.00  0.00    -0.240 OA
ENDBRANCH  22  25
BRANCH  23  28
ATOM     28  O   UNL     1      -2.643   4.989  11.173  0.00  0.00    -0.506 OA
ATOM     29  H   UNL     1      -3.492   5.073  11.627  0.00  0.00    +0.292 HD
ENDBRANCH  23  28
ENDBRANCH   5  19
TORSDOF 6
