REMARK  Name = ZINC36530635
REMARK  11 active torsions:
REMARK  status: ('A' for Active; 'I' for Inactive)
REMARK    1  A    between atoms: C_1  and  C_2
REMARK    2  A    between atoms: C_2  and  C_3
REMARK    3  A    between atoms: C_2  and  C_4
REMARK    4  A    between atoms: C_2  and  N_5
REMARK    5  A    between atoms: C_6  and  C_8
REMARK    6  A    between atoms: C_8  and  C_10
REMARK    7  A    between atoms: C_8  and  N_17
REMARK    8  A    between atoms: C_14  and  O_16
REMARK    9  A    between atoms: N_17  and  C_18
REMARK   10  A    between atoms: C_19  and  C_21
REMARK   11  A    between atoms: C_24  and  O_27
REMARK                            x       y       z     vdW  Elec       q    Type
REMARK                         _______ _______ _______ _____ _____    ______ ____
ROOT
ATOM      1  C   UNL     1       2.506  -0.499  -2.669  0.00  0.00    +0.192 C 
ENDROOT
BRANCH   1   2
ATOM      2  C   UNL     1       2.534  -1.973  -2.980  0.00  0.00    -0.015 A 
ATOM      3  C   UNL     1       1.853  -2.460  -4.081  0.00  0.00    +0.006 A 
ATOM      4  C   UNL     1       1.877  -3.812  -4.369  0.00  0.00    +0.004 A 
ATOM      5  C   UNL     1       2.580  -4.680  -3.557  0.00  0.00    +0.045 A 
ATOM      6  C   UNL     1       3.264  -4.195  -2.452  0.00  0.00    +0.117 A 
ATOM      7  C   UNL     1       3.243  -2.837  -2.168  0.00  0.00    +0.051 A 
BRANCH   6   8
ATOM      8  O   UNL     1       3.956  -5.047  -1.651  0.00  0.00    -0.507 OA
ATOM      9  H   UNL     1       4.877  -5.175  -1.917  0.00  0.00    +0.292 HD
ENDBRANCH   6   8
ENDBRANCH   1   2
BRANCH   1  11
ATOM     10  N   UNL     1       0.513  -0.663  -1.213  0.00  0.00    -0.309 N 
ATOM     11  C   UNL     1       1.796  -0.275  -1.359  0.00  0.00    +0.238 C 
ATOM     12  O   UNL     1       2.378   0.254  -0.436  0.00  0.00    -0.273 OA
ATOM     13  H   UNL     1       0.048  -1.086  -1.951  0.00  0.00    +0.149 HD
BRANCH  10  15
ATOM     14  C   UNL     1      -0.205   1.051   0.377  0.00  0.00    +0.031 C 
ATOM     15  C   UNL     1      -0.177  -0.446   0.061  0.00  0.00    +0.026 C 
ATOM     16  C   UNL     1       0.563  -1.188   1.176  0.00  0.00    +0.031 C 
ATOM     17  C   UNL     1      -1.610  -0.973  -0.039  0.00  0.00    +0.031 C 
ENDBRANCH  10  15
ENDBRANCH   1  11
BRANCH   1  18
ATOM     18  N   UNL     1       3.878   0.006  -2.573  0.00  0.00    -0.285 N 
ATOM     19  C   UNL     1       4.771  -0.493  -1.524  0.00  0.00    +0.133 C 
ATOM     20  C   UNL     1       4.319   0.929  -3.450  0.00  0.00    +0.247 C 
ATOM     21  O   UNL     1       3.608   1.281  -4.372  0.00  0.00    -0.270 OA
BRANCH  20  22
ATOM     22  C   UNL     1       5.665   1.514  -3.292  0.00  0.00    +0.037 A 
ATOM     23  C   UNL     1       6.748   0.697  -2.954  0.00  0.00    +0.016 A 
ATOM     24  C   UNL     1       8.002   1.246  -2.808  0.00  0.00    +0.046 A 
ATOM     25  C   UNL     1       8.192   2.610  -2.995  0.00  0.00    +0.117 A 
ATOM     26  C   UNL     1       7.118   3.426  -3.332  0.00  0.00    +0.046 A 
ATOM     27  C   UNL     1       5.861   2.884  -3.485  0.00  0.00    +0.016 A 
BRANCH  25  28
ATOM     28  O   UNL     1       9.430   3.148  -2.850  0.00  0.00    -0.507 OA
ATOM     29  H   UNL     1       9.951   3.163  -3.664  0.00  0.00    +0.292 HD
ENDBRANCH  25  28
ENDBRANCH  20  22
ENDBRANCH   1  18
TORSDOF 7
