REMARK  Name = ZINC39521063
REMARK  7 active torsions:
REMARK  status: ('A' for Active; 'I' for Inactive)
REMARK    1  A    between atoms: C_4  and  C_7
REMARK    2  A    between atoms: C_7  and  N_8
REMARK    3  A    between atoms: C_9  and  S_28
REMARK    4  A    between atoms: C_18  and  C_21
REMARK    5  A    between atoms: C_26  and  O_27
REMARK    6  A    between atoms: S_28  and  O_31
REMARK    7  A    between atoms: O_31  and  C_32
REMARK                            x       y       z     vdW  Elec       q    Type
REMARK                         _______ _______ _______ _____ _____    ______ ____
ROOT
ATOM      1  N   UNL     1       4.221  -1.044   1.290  0.00  0.00    +0.403 N 
ATOM      2  C   UNL     1       3.341  -2.034   1.924  0.00  0.00    +0.120 C 
ATOM      3  C   UNL     1       3.238  -3.275   1.034  0.00  0.00    +0.010 C 
ATOM      4  C   UNL     1       4.634  -3.877   0.844  0.00  0.00    -0.001 C 
ATOM      5  C   UNL     1       5.561  -2.812   0.251  0.00  0.00    -0.012 C 
ATOM      6  C   UNL     1       5.579  -1.588   1.170  0.00  0.00    -0.062 C 
ATOM      7  C   UNL     1       6.505  -0.523   0.579  0.00  0.00    -0.012 C 
ATOM      8  C   UNL     1       6.527   0.700   1.498  0.00  0.00    -0.001 C 
ATOM      9  C   UNL     1       7.039   0.290   2.881  0.00  0.00    +0.008 C 
ATOM     10  C   UNL     1       6.113  -0.774   3.471  0.00  0.00    +0.021 C 
ATOM     11  C   UNL     1       6.090  -1.998   2.553  0.00  0.00    -0.004 C 
ATOM     12  H   UNL     1       4.243  -0.208   1.854  0.00  0.00    -0.078 HD
ENDROOT
BRANCH  10  13
ATOM     13  C   UNL     1       6.616  -1.178   4.833  0.00  0.00    -0.003 A 
ATOM     14  C   UNL     1       7.881  -1.717   4.971  0.00  0.00    +0.007 A 
ATOM     15  C   UNL     1       8.343  -2.088   6.220  0.00  0.00    +0.001 A 
ATOM     16  C   UNL     1       7.541  -1.921   7.335  0.00  0.00    +0.004 A 
ATOM     17  C   UNL     1       6.276  -1.383   7.202  0.00  0.00    +0.046 A 
ATOM     18  C   UNL     1       5.811  -1.005   5.950  0.00  0.00    +0.120 A 
BRANCH  18  19
ATOM     19  O   UNL     1       4.569  -0.470   5.818  0.00  0.00    -0.506 OA
ATOM     20  H   UNL     1       3.874  -1.124   5.663  0.00  0.00    +0.292 HD
ENDBRANCH  18  19
ENDBRANCH  10  13
BRANCH   2  21
ATOM     21  S   UNL     1       1.691  -1.317   2.152  0.00  0.00    +0.108 S 
ATOM     22  O   UNL     1       1.757  -0.207   3.037  0.00  0.00    -0.138 OA
ATOM     23  O   UNL     1       1.028  -1.206   0.900  0.00  0.00    -0.138 OA
BRANCH  21  24
ATOM     24  O   UNL     1       0.907  -2.376   2.915  0.00  0.00    -0.347 OA
BRANCH  24  25
ATOM     25  C   UNL     1       1.235  -2.466   4.230  0.00  0.00    +0.156 A 
ATOM     26  C   UNL     1       2.248  -3.322   4.637  0.00  0.00    +0.048 A 
ATOM     27  C   UNL     1       2.579  -3.411   5.975  0.00  0.00    +0.004 A 
ATOM     28  C   UNL     1       1.903  -2.648   6.909  0.00  0.00    +0.000 A 
ATOM     29  C   UNL     1       0.892  -1.794   6.506  0.00  0.00    +0.004 A 
ATOM     30  C   UNL     1       0.561  -1.697   5.169  0.00  0.00    +0.048 A 
ENDBRANCH  24  25
ENDBRANCH  21  24
ENDBRANCH   2  21
BRANCH   1  31
ATOM     31  C   UNL     1       3.705  -0.718  -0.046  0.00  0.00    -0.039 C 
BRANCH  31  35
ATOM     32  C   UNL     1       5.069   3.165  -1.191  0.00  0.00    +0.000 A 
ATOM     33  C   UNL     1       5.385   2.065  -1.966  0.00  0.00    +0.000 A 
ATOM     34  C   UNL     1       4.943   0.808  -1.596  0.00  0.00    +0.002 A 
ATOM     35  C   UNL     1       4.187   0.652  -0.449  0.00  0.00    -0.064 A 
ATOM     36  C   UNL     1       3.872   1.752   0.327  0.00  0.00    +0.002 A 
ATOM     37  C   UNL     1       4.312   3.008  -0.045  0.00  0.00    +0.000 A 
ENDBRANCH  31  35
ENDBRANCH   1  31
TORSDOF 7
