REMARK  Name = ZINC39674626
REMARK  11 active torsions:
REMARK  status: ('A' for Active; 'I' for Inactive)
REMARK    1  A    between atoms: C_1  and  C_2
REMARK    2  A    between atoms: C_4  and  C_14
REMARK    3  A    between atoms: C_7  and  C_12
REMARK    4  A    between atoms: C_14  and  C_15
REMARK    5  A    between atoms: C_15  and  N_16
REMARK    6  A    between atoms: C_17  and  C_19
REMARK    7  A    between atoms: C_30  and  C_32
REMARK    8  A    between atoms: C_34  and  O_40
REMARK    9  A    between atoms: C_36  and  O_38
REMARK   10  A    between atoms: O_38  and  C_39
REMARK   11  A    between atoms: O_40  and  C_41
REMARK                            x       y       z     vdW  Elec       q    Type
REMARK                         _______ _______ _______ _____ _____    ______ ____
ROOT
ATOM      1  C   UNL     1      -7.422  -0.893  -2.957  0.00  0.00    +0.100 C 
ATOM      2  C   UNL     1      -6.721  -1.568  -4.157  0.00  0.00    +0.121 C 
ATOM      3  N   UNL     1      -7.254  -2.951  -4.173  0.00  0.00    -0.296 N 
ATOM      4  C   UNL     1      -8.689  -2.796  -3.833  0.00  0.00    +0.115 C 
ATOM      5  C   UNL     1      -8.714  -1.700  -2.749  0.00  0.00    -0.004 C 
ATOM      6  C   UNL     1      -9.934  -0.802  -2.935  0.00  0.00    -0.010 C 
ATOM      7  C   UNL     1     -11.205  -1.612  -2.666  0.00  0.00    -0.082 C 
ATOM      8  N   UNL     1     -11.168  -2.144  -1.299  0.00  0.00    +0.379 N 
ATOM      9  C   UNL     1     -10.046  -3.080  -1.156  0.00  0.00    -0.082 C 
ATOM     10  C   UNL     1      -8.726  -2.332  -1.361  0.00  0.00    -0.010 C 
ATOM     11  C   UNL     1      -6.586  -4.091  -4.438  0.00  0.00    +0.247 C 
ATOM     12  O   UNL     1      -5.379  -4.069  -4.578  0.00  0.00    -0.270 OA
ATOM     13  H   UNL     1     -11.055  -1.383  -0.646  0.00  0.00    -0.086 HD
ATOM     14  H   UNL     1     -12.033  -2.626  -1.104  0.00  0.00    -0.086 HD
ENDROOT
BRANCH  11  15
ATOM     15  C   UNL     1      -7.322  -5.368  -4.558  0.00  0.00    +0.044 A 
ATOM     16  C   UNL     1      -8.689  -5.364  -4.835  0.00  0.00    +0.059 A 
ATOM     17  C   UNL     1      -9.374  -6.563  -4.947  0.00  0.00    +0.124 A 
ATOM     18  C   UNL     1      -8.702  -7.766  -4.784  0.00  0.00    +0.091 A 
ATOM     19  C   UNL     1      -7.343  -7.774  -4.508  0.00  0.00    +0.124 A 
ATOM     20  C   UNL     1      -6.649  -6.580  -4.401  0.00  0.00    +0.059 A 
BRANCH  19  21
ATOM     21  O   UNL     1      -6.689  -8.955  -4.350  0.00  0.00    -0.495 OA
ATOM     22  C   UNL     1      -7.465 -10.148  -4.480  0.00  0.00    +0.277 C 
ENDBRANCH  19  21
BRANCH  17  23
ATOM     23  O   UNL     1     -10.706  -6.561  -5.216  0.00  0.00    -0.495 OA
ATOM     24  C   UNL     1     -11.350  -7.833  -5.318  0.00  0.00    +0.277 C 
ENDBRANCH  17  23
ENDBRANCH  11  15
BRANCH   1  26
ATOM     25  N   UNL     1      -6.710  -0.080  -0.732  0.00  0.00    -0.315 N 
ATOM     26  C   UNL     1      -6.551  -0.973  -1.729  0.00  0.00    +0.218 C 
ATOM     27  O   UNL     1      -5.708  -1.839  -1.639  0.00  0.00    -0.275 OA
ATOM     28  H   UNL     1      -7.384   0.613  -0.804  0.00  0.00    +0.149 HD
BRANCH  25  29
ATOM     29  C   UNL     1      -5.863  -0.157   0.462  0.00  0.00    +0.108 C 
BRANCH  29  30
ATOM     30  C   UNL     1      -6.246   0.963   1.431  0.00  0.00    +0.052 C 
BRANCH  30  33
ATOM     31  C   UNL     1      -6.790   1.719   4.536  0.00  0.00    +0.035 C 
ATOM     32  C   UNL     1      -5.418   1.796   3.864  0.00  0.00    +0.103 C 
ATOM     33  C   UNL     1      -5.375   0.883   2.659  0.00  0.00    -0.037 C 
ATOM     34  C   UNL     1      -4.395  -0.022   2.907  0.00  0.00    +0.000 A 
ATOM     35  C   UNL     1      -3.901  -1.115   2.148  0.00  0.00    +0.028 A 
ATOM     36  C   UNL     1      -2.878  -1.892   2.642  0.00  0.00    +0.052 A 
ATOM     37  C   UNL     1      -2.279  -1.617   3.943  0.00  0.00    +0.021 A 
ATOM     38  C   UNL     1      -2.708  -0.592   4.708  0.00  0.00    +0.027 A 
ATOM     39  C   UNL     1      -3.796   0.267   4.229  0.00  0.00    +0.043 A 
ATOM     40  N   UNL     1      -4.380   1.307   4.777  0.00  0.00    -0.378 N 
ATOM     41  H   UNL     1      -4.162   1.688   5.642  0.00  0.00    +0.160 HD
BRANCH  36  42
ATOM     42  C   UNL     1      -2.392  -2.990   1.862  0.00  0.00    +0.099 C 
ATOM     43  N   UNL     1      -2.006  -3.862   1.244  0.00  0.00    -0.191 NA
ENDBRANCH  36  42
ENDBRANCH  30  33
ENDBRANCH  29  30
ENDBRANCH  25  29
ENDBRANCH   1  26
TORSDOF 8
