REMARK  Name = ZINC12879366
REMARK  5 active torsions:
REMARK  status: ('A' for Active; 'I' for Inactive)
REMARK    1  A    between atoms: C_12  and  C_14
REMARK    2  A    between atoms: C_14  and  C_15
REMARK    3  A    between atoms: C_15  and  C_16
REMARK    4  A    between atoms: N_21  and  C_24
REMARK    5  A    between atoms: C_24  and  C_25
REMARK                            x       y       z     vdW  Elec       q    Type
REMARK                         _______ _______ _______ _____ _____    ______ ____
ROOT
ATOM      1  C   UNL     1       7.334   4.774   8.042  0.00  0.00    +0.000 A 
ATOM      2  C   UNL     1       8.702   4.673   7.869  0.00  0.00    +0.002 A 
ATOM      3  C   UNL     1       9.254   4.784   6.609  0.00  0.00    +0.023 A 
ATOM      4  C   UNL     1       8.437   4.999   5.502  0.00  0.00    +0.036 A 
ATOM      5  C   UNL     1       7.061   5.098   5.689  0.00  0.00    -0.028 A 
ATOM      6  C   UNL     1       6.514   4.987   6.948  0.00  0.00    +0.004 A 
ATOM      7  C   UNL     1       6.477   5.325   4.324  0.00  0.00    +0.050 C 
ATOM      8  C   UNL     1       5.480   4.221   3.949  0.00  0.00    +0.088 C 
ATOM      9  C   UNL     1       4.086   4.829   4.271  0.00  0.00    +0.073 C 
ATOM     10  C   UNL     1       4.386   6.242   4.816  0.00  0.00    -0.057 C 
ATOM     11  C   UNL     1       3.436   4.951   2.912  0.00  0.00    +0.224 C 
ATOM     12  O   UNL     1       2.328   5.395   2.703  0.00  0.00    -0.275 OA
ATOM     13  N   UNL     1       4.273   4.488   1.976  0.00  0.00    -0.237 N 
ATOM     14  C   UNL     1       5.448   4.055   2.446  0.00  0.00    +0.225 C 
ATOM     15  O   UNL     1       6.347   3.600   1.773  0.00  0.00    -0.275 OA
ATOM     16  C   UNL     1       7.657   5.341   3.391  0.00  0.00    +0.211 C 
ATOM     17  O   UNL     1       7.627   5.500   2.189  0.00  0.00    -0.277 OA
ATOM     18  N   UNL     1       8.752   5.145   4.149  0.00  0.00    -0.286 N 
ATOM     19  H   UNL     1       9.655   5.109   3.797  0.00  0.00    +0.155 HD
ATOM     20  N   UNL     1       5.710   6.557   4.276  0.00  0.00    +0.394 N 
ATOM     21  H   UNL     1       5.628   6.887   3.307  0.00  0.00    -0.083 HD
ATOM     22  H   UNL     1       6.163   7.280   4.846  0.00  0.00    -0.083 HD
ENDROOT
BRANCH  10  23
ATOM     23  C   UNL     1       3.332   7.237   4.328  0.00  0.00    -0.006 C 
BRANCH  23  24
ATOM     24  C   UNL     1       3.622   8.618   4.920  0.00  0.00    +0.094 C 
BRANCH  24  25
ATOM     25  C   UNL     1       2.583   9.599   4.439  0.00  0.00    +0.210 C 
ATOM     26  O   UNL     1       1.699   9.230   3.696  0.00  0.00    -0.276 OA
ATOM     27  N   UNL     1       2.638  10.886   4.835  0.00  0.00    -0.329 N 
ATOM     28  H   UNL     1       3.345  11.181   5.430  0.00  0.00    +0.145 HD
ATOM     29  H   UNL     1       1.970  11.518   4.526  0.00  0.00    +0.145 HD
ENDBRANCH  24  25
ENDBRANCH  23  24
ENDBRANCH  10  23
BRANCH  13  30
ATOM     30  C   UNL     1       3.932   4.464   0.552  0.00  0.00    +0.151 C 
BRANCH  30  31
ATOM     31  C   UNL     1       3.274   3.151   0.215  0.00  0.00    -0.026 A 
ATOM     32  C   UNL     1       4.045   2.076  -0.187  0.00  0.00    +0.009 A 
ATOM     33  C   UNL     1       3.445   0.870  -0.498  0.00  0.00    +0.050 A 
ATOM     34  C   UNL     1       2.069   0.735  -0.406  0.00  0.00    +0.166 A 
ATOM     35  C   UNL     1       1.293   1.818  -0.001  0.00  0.00    +0.167 A 
ATOM     36  C   UNL     1       1.900   3.024   0.309  0.00  0.00    +0.054 A 
ATOM     37  O   UNL     1      -0.018   1.436   0.010  0.00  0.00    -0.453 OA
ATOM     38  C   UNL     1       0.002  -0.004   0.002  0.00  0.00    +0.466 C 
ATOM     39  O   UNL     1       1.245  -0.326  -0.649  0.00  0.00    -0.453 OA
ENDBRANCH  30  31
ENDBRANCH  13  30
TORSDOF 5
