REMARK  Name = ZINC54253729
REMARK  3 active torsions:
REMARK  status: ('A' for Active; 'I' for Inactive)
REMARK    1  A    between atoms: C_9  and  N_12
REMARK    2  A    between atoms: C_13  and  C_15
REMARK    3  A    between atoms: C_15  and  N_16
REMARK                            x       y       z     vdW  Elec       q    Type
REMARK                         _______ _______ _______ _____ _____    ______ ____
ROOT
ATOM      1  N   UNL     1      -2.320  -2.865   0.011  0.00  0.00    -0.284 N 
ATOM      2  C   UNL     1      -2.274  -4.208  -0.098  0.00  0.00    +0.235 C 
ATOM      3  O   UNL     1      -1.204  -4.779  -0.112  0.00  0.00    -0.274 OA
ATOM      4  H   UNL     1      -3.174  -2.415   0.099  0.00  0.00    +0.155 HD
ENDROOT
BRANCH   1  13
ATOM      5  C   UNL     1       2.274  -2.220  -1.574  0.00  0.00    +0.018 A 
ATOM      6  C   UNL     1       3.391  -1.450  -1.542  0.00  0.00    +0.092 A 
ATOM      7  C   UNL     1       3.414  -0.280  -0.752  0.00  0.00    +0.337 A 
ATOM      8  O   UNL     1       4.422   0.403  -0.732  0.00  0.00    -0.245 OA
ATOM      9  O   UNL     1       2.353   0.101  -0.025  0.00  0.00    -0.422 OA
ATOM     10  C   UNL     1       1.210  -0.620  -0.012  0.00  0.00    +0.139 A 
ATOM     11  C   UNL     1       1.118  -1.798  -0.776  0.00  0.00    +0.019 A 
ATOM     12  C   UNL     1      -0.062  -2.546  -0.767  0.00  0.00    +0.035 A 
ATOM     13  C   UNL     1      -1.134  -2.121  -0.004  0.00  0.00    +0.034 A 
ATOM     14  C   UNL     1      -1.038  -0.954   0.751  0.00  0.00    +0.027 A 
ATOM     15  C   UNL     1       0.123  -0.210   0.748  0.00  0.00    +0.049 A 
ENDBRANCH   1  13
BRANCH   2  16
ATOM     16  C   UNL     1      -3.552  -5.000  -0.203  0.00  0.00    +0.212 C 
BRANCH  16  17
ATOM     17  N   UNL     1      -3.236  -6.426  -0.310  0.00  0.00    -0.233 N 
ATOM     18  C   UNL     1      -3.034  -7.059  -1.498  0.00  0.00    +0.226 C 
ATOM     19  O   UNL     1      -2.870  -6.541  -2.582  0.00  0.00    -0.275 OA
ATOM     20  C   UNL     1      -3.056  -8.523  -1.194  0.00  0.00    +0.087 C 
ATOM     21  C   UNL     1      -2.179  -9.461  -1.994  0.00  0.00    +0.013 C 
ATOM     22  C   UNL     1      -2.407 -10.869  -1.407  0.00  0.00    +0.001 C 
ATOM     23  C   UNL     1      -2.089 -10.921   0.084  0.00  0.00    +0.001 C 
ATOM     24  C   UNL     1      -2.839  -9.833   0.875  0.00  0.00    +0.013 C 
ATOM     25  C   UNL     1      -2.491  -8.507   0.258  0.00  0.00    +0.087 C 
ATOM     26  C   UNL     1      -3.110  -7.246   0.768  0.00  0.00    +0.226 C 
ATOM     27  O   UNL     1      -3.436  -7.005   1.910  0.00  0.00    -0.275 OA
ENDBRANCH  16  17
ENDBRANCH   2  16
TORSDOF 3
