REMARK  Name = ZINC23597112
REMARK  5 active torsions:
REMARK  status: ('A' for Active; 'I' for Inactive)
REMARK    1  A    between atoms: C_1  and  C_2
REMARK    2  A    between atoms: C_2  and  C_4
REMARK    3  A    between atoms: C_2  and  S_11
REMARK    4  A    between atoms: S_11  and  C_12
REMARK    5  A    between atoms: N_25  and  C_26
REMARK                            x       y       z     vdW  Elec       q    Type
REMARK                         _______ _______ _______ _____ _____    ______ ____
ROOT
ATOM      1  C   UNL     1      -1.250   5.765  -4.240  0.00  0.00    +0.178 A 
ATOM      2  N   UNL     1      -1.059   6.191  -2.999  0.00  0.00    -0.215 NA
ATOM      3  C   UNL     1      -1.276   5.324  -2.018  0.00  0.00    +0.117 A 
ATOM      4  C   UNL     1      -1.694   3.988  -2.222  0.00  0.00    +0.076 A 
ATOM      5  C   UNL     1      -1.881   3.187  -1.023  0.00  0.00    -0.023 A 
ATOM      6  C   UNL     1      -1.638   3.797   0.159  0.00  0.00    -0.004 A 
ATOM      7  S   UNL     1      -1.152   5.452  -0.262  0.00  0.00    -0.073 S 
ATOM      8  C   UNL     1      -1.755   3.203   1.528  0.00  0.00    +0.043 C 
ATOM      9  C   UNL     1      -2.554   1.895   1.423  0.00  0.00    +0.005 C 
ATOM     10  C   UNL     1      -1.984   1.065   0.269  0.00  0.00    +0.005 C 
ATOM     11  C   UNL     1      -2.328   1.728  -1.065  0.00  0.00    +0.037 C 
ATOM     12  C   UNL     1      -1.889   3.563  -3.576  0.00  0.00    +0.268 A 
ATOM     13  O   UNL     1      -2.249   2.431  -3.852  0.00  0.00    -0.267 OA
ATOM     14  N   UNL     1      -1.652   4.494  -4.529  0.00  0.00    -0.255 N 
ENDROOT
BRANCH  14  15
ATOM     15  C   UNL     1      -1.826   4.136  -5.872  0.00  0.00    +0.052 A 
ATOM     16  C   UNL     1      -3.061   4.306  -6.483  0.00  0.00    +0.028 A 
ATOM     17  C   UNL     1      -3.229   3.958  -7.809  0.00  0.00    +0.022 A 
ATOM     18  C   UNL     1      -2.170   3.429  -8.526  0.00  0.00    +0.041 A 
ATOM     19  C   UNL     1      -0.939   3.253  -7.918  0.00  0.00    +0.022 A 
ATOM     20  C   UNL     1      -0.765   3.605  -6.594  0.00  0.00    +0.028 A 
ATOM     21 CL   UNL     1      -2.386   2.985 -10.190  0.00  0.00    -0.084 Cl
ENDBRANCH  14  15
BRANCH   1  22
ATOM     22  S   UNL     1      -0.972   6.886  -5.571  0.00  0.00    -0.075 S 
BRANCH  22  24
ATOM     23  C   UNL     1       0.844   8.086  -3.919  0.00  0.00    +0.029 C 
ATOM     24  C   UNL     1      -0.476   8.359  -4.643  0.00  0.00    +0.137 C 
BRANCH  24  25
ATOM     25  C   UNL     1      -0.299   9.515  -5.593  0.00  0.00    +0.229 C 
ATOM     26  O   UNL     1      -0.127   9.308  -6.775  0.00  0.00    -0.274 OA
ATOM     27  N   UNL     1      -0.331  10.780  -5.128  0.00  0.00    -0.301 N 
ATOM     28  C   UNL     1      -0.536  11.173  -3.726  0.00  0.00    +0.108 C 
ATOM     29  C   UNL     1      -0.520  12.715  -3.676  0.00  0.00    +0.020 C 
ATOM     30  C   UNL     1      -0.880  13.113  -5.132  0.00  0.00    +0.020 C 
ATOM     31  C   UNL     1      -0.172  11.999  -5.942  0.00  0.00    +0.108 C 
ENDBRANCH  24  25
ENDBRANCH  22  24
ENDBRANCH   1  22
TORSDOF 4
