REMARK  Name = ZINC14162338
REMARK  4 active torsions:
REMARK  status: ('A' for Active; 'I' for Inactive)
REMARK    1  A    between atoms: C_1  and  C_2
REMARK    2  A    between atoms: C_25  and  C_27
REMARK    3  A    between atoms: C_29  and  C_33
REMARK    4  A    between atoms: C_30  and  N_32
REMARK                            x       y       z     vdW  Elec       q    Type
REMARK                         _______ _______ _______ _____ _____    ______ ____
ROOT
ATOM      1  C   UNL     1      -4.288   1.085  -4.746  0.00  0.00    +0.086 C 
ATOM      2  C   UNL     1      -3.503   1.350  -3.487  0.00  0.00    +0.110 A 
ATOM      3  C   UNL     1      -4.165   1.464  -2.321  0.00  0.00    +0.088 A 
ATOM      4  C   UNL     1      -3.443   1.713  -1.132  0.00  0.00    +0.145 A 
ATOM      5  C   UNL     1      -2.070   1.829  -1.214  0.00  0.00    +0.104 A 
ATOM      6  C   UNL     1      -1.453   1.698  -2.463  0.00  0.00    +0.345 A 
ATOM      7  O   UNL     1      -0.240   1.800  -2.547  0.00  0.00    -0.245 OA
ATOM      8  O   UNL     1      -2.174   1.465  -3.568  0.00  0.00    -0.427 OA
ATOM      9  C   UNL     1      -1.254   2.090   0.019  0.00  0.00    +0.148 C 
ATOM     10  C   UNL     1      -0.722   3.487   0.029  0.00  0.00    +0.002 A 
ATOM     11  C   UNL     1      -1.300   4.739   0.040  0.00  0.00    +0.045 A 
ATOM     12  C   UNL     1      -0.436   5.835   0.043  0.00  0.00    +0.124 A 
ATOM     13  C   UNL     1       0.946   5.694   0.039  0.00  0.00    +0.044 A 
ATOM     14  C   UNL     1       1.525   4.446   0.030  0.00  0.00    -0.020 A 
ATOM     15  C   UNL     1       0.659   3.353   0.021  0.00  0.00    +0.045 A 
ATOM     16  N   UNL     1       1.058   2.016   0.003  0.00  0.00    -0.263 N 
ATOM     17  C   UNL     1      -0.014   1.209   0.009  0.00  0.00    +0.241 C 
ATOM     18  O   UNL     1       0.002  -0.004   0.002  0.00  0.00    -0.273 OA
ATOM     19  C   UNL     1       2.485   1.682  -0.022  0.00  0.00    +0.043 C 
ATOM     20  C   UNL     1       2.710   0.372  -0.803  0.00  0.00    +0.026 C 
ATOM     21  C   UNL     1       2.391  -0.714   0.256  0.00  0.00    +0.002 C 
ATOM     22  C   UNL     1       2.944  -0.136   1.575  0.00  0.00    +0.002 C 
ATOM     23  C   UNL     1       2.994   1.394   1.397  0.00  0.00    +0.026 C 
ATOM     24  C   UNL     1       3.273   2.822  -0.658  0.00  0.00    +0.034 C 
ATOM     25  C   UNL     1       2.998   4.163   0.032  0.00  0.00    +0.020 C 
ATOM     26  C   UNL     1       3.731   5.279  -0.716  0.00  0.00    +0.012 C 
ATOM     27  F   UNL     1      -0.963   7.079   0.051  0.00  0.00    -0.205 F 
ATOM     28  C   UNL     1      -2.059   1.814   1.256  0.00  0.00    +0.110 C 
ATOM     29  C   UNL     1      -3.408   1.702   1.201  0.00  0.00    +0.199 C 
ATOM     30  O   UNL     1      -4.086   1.832   0.046  0.00  0.00    -0.441 OA
ENDROOT
BRANCH  29  31
ATOM     31  N   UNL     1      -4.104   1.448   2.357  0.00  0.00    -0.328 N 
ATOM     32  H   UNL     1      -3.629   1.352   3.197  0.00  0.00    +0.145 HD
ATOM     33  H   UNL     1      -5.070   1.365   2.333  0.00  0.00    +0.145 HD
ENDBRANCH  29  31
BRANCH  28  34
ATOM     34  C   UNL     1      -1.391   1.665   2.513  0.00  0.00    +0.102 C 
ATOM     35  N   UNL     1      -0.860   1.548   3.511  0.00  0.00    -0.191 NA
ENDBRANCH  28  34
TORSDOF 2
