REMARK  Name = ZINC44265333
REMARK  1 active torsions:
REMARK  status: ('A' for Active; 'I' for Inactive)
REMARK    1  A    between atoms: C_8  and  C_10
REMARK                            x       y       z     vdW  Elec       q    Type
REMARK                         _______ _______ _______ _____ _____    ______ ____
ROOT
ATOM      1  C   UNL     1       3.122  -4.016  -0.050  0.00  0.00    +0.148 A 
ATOM      2  N   UNL     1       2.314  -5.052  -0.054  0.00  0.00    -0.208 NA
ATOM      3  H   UNL     1       5.215  -3.887  -0.069  0.00  0.00    +0.167 HD
ATOM      4  C   UNL     1       3.032  -6.193  -0.065  0.00  0.00    +0.178 A 
ATOM      5  C   UNL     1       4.391  -5.827  -0.069  0.00  0.00    +0.086 A 
ATOM      6  N   UNL     1       4.422  -4.446  -0.065  0.00  0.00    -0.336 N 
ATOM      7  C   UNL     1       5.364  -6.817  -0.080  0.00  0.00    +0.031 A 
ATOM      8  C   UNL     1       4.954  -8.139  -0.088  0.00  0.00    +0.022 A 
ATOM      9  C   UNL     1       3.600  -8.433  -0.084  0.00  0.00    +0.113 A 
ATOM     10  N   UNL     1       2.692  -7.482  -0.073  0.00  0.00    -0.234 NA
ENDROOT
BRANCH   1  18
ATOM     11  C   UNL     1      -0.016   1.354   0.009  0.00  0.00    +0.001 A 
ATOM     12  C   UNL     1       1.157   2.098   0.002  0.00  0.00    +0.001 A 
ATOM     13  C   UNL     1       2.374   1.448  -0.013  0.00  0.00    +0.015 A 
ATOM     14  C   UNL     1       2.408   0.070  -0.021  0.00  0.00    +0.020 A 
ATOM     15  C   UNL     1       1.230  -0.713  -0.014  0.00  0.00    -0.010 A 
ATOM     16  C   UNL     1       0.002  -0.004   0.002  0.00  0.00    +0.009 A 
ATOM     17  C   UNL     1       1.433  -2.106  -0.023  0.00  0.00    +0.027 A 
ATOM     18  C   UNL     1       2.695  -2.608  -0.038  0.00  0.00    +0.056 A 
ATOM     19  S   UNL     1       3.708  -1.139  -0.040  0.00  0.00    -0.085 S 
ENDBRANCH   1  18
TORSDOF 1
