REMARK  Name = ZINC06550541
REMARK  2 active torsions:
REMARK  status: ('A' for Active; 'I' for Inactive)
REMARK    1  A    between atoms: C_6  and  C_7
REMARK    2  A    between atoms: C_12  and  N_14
REMARK                            x       y       z     vdW  Elec       q    Type
REMARK                         _______ _______ _______ _____ _____    ______ ____
ROOT
ATOM      1  C   UNL     1      -1.259  -0.760   0.011  0.00  0.00    +0.028 C 
ATOM      2  C   UNL     1      -1.240  -2.111  -0.099  0.00  0.00    +0.080 C 
ATOM      3  C   UNL     1      -0.087  -3.045  -0.132  0.00  0.00    +0.276 C 
ATOM      4  O   UNL     1       1.065  -2.647  -0.055  0.00  0.00    -0.267 OA
ATOM      5  N   UNL     1      -0.371  -4.318  -0.247  0.00  0.00    -0.150 NA
ATOM      6  C   UNL     1      -1.626  -4.763  -0.331  0.00  0.00    +0.188 C 
ATOM      7  S   UNL     1      -2.597  -3.267  -0.237  0.00  0.00    -0.047 S 
ENDROOT
BRANCH   1  13
ATOM      8  C   UNL     1       0.995  -0.386  -0.972  0.00  0.00    +0.009 A 
ATOM      9  C   UNL     1       2.169   0.334  -1.045  0.00  0.00    +0.020 A 
ATOM     10  C   UNL     1       2.360   1.438  -0.231  0.00  0.00    +0.041 A 
ATOM     11  C   UNL     1       1.375   1.828   0.662  0.00  0.00    +0.020 A 
ATOM     12  C   UNL     1       0.196   1.119   0.746  0.00  0.00    +0.009 A 
ATOM     13  C   UNL     1      -0.004   0.002  -0.073  0.00  0.00    -0.024 A 
ATOM     14 CL   UNL     1       3.841   2.338  -0.330  0.00  0.00    -0.084 Cl
ENDBRANCH   1  13
BRANCH   6  15
ATOM     15  N   UNL     1      -2.053  -6.024  -0.451  0.00  0.00    -0.200 NA
ATOM     16  C   UNL     1      -1.175  -7.022  -0.499  0.00  0.00    +0.173 A 
ATOM     17  N   UNL     1       0.184  -6.957  -0.437  0.00  0.00    -0.340 N 
ATOM     18  C   UNL     1       0.899  -8.113  -0.505  0.00  0.00    +0.092 A 
ATOM     19  C   UNL     1       0.211  -9.253  -0.632  0.00  0.00    +0.066 A 
ATOM     20  S   UNL     1      -1.474  -8.670  -0.646  0.00  0.00    -0.058 S 
ATOM     21  H   UNL     1       0.634  -6.103  -0.345  0.00  0.00    +0.167 HD
ENDBRANCH   6  15
TORSDOF 2
