REMARK  Name = ZINC27571975
REMARK  4 active torsions:
REMARK  status: ('A' for Active; 'I' for Inactive)
REMARK    1  A    between atoms: C_3  and  O_29
REMARK    2  A    between atoms: C_4  and  N_26
REMARK    3  A    between atoms: C_6  and  C_7
REMARK    4  A    between atoms: C_18  and  C_23
REMARK                            x       y       z     vdW  Elec       q    Type
REMARK                         _______ _______ _______ _____ _____    ______ ____
ROOT
ATOM      1  C   UNL     1      -1.293  -0.774   0.011  0.00  0.00    +0.105 C 
ATOM      2  C   UNL     1      -1.811  -0.848  -1.395  0.00  0.00    +0.029 C 
ATOM      3  C   UNL     1      -1.649   0.488  -2.149  0.00  0.00    +0.033 C 
ATOM      4  C   UNL     1      -2.772   0.468  -3.164  0.00  0.00    -0.030 C 
ATOM      5  C   UNL     1      -3.680  -0.415  -2.839  0.00  0.00    -0.023 C 
ATOM      6  C   UNL     1      -3.310  -1.093  -1.543  0.00  0.00    +0.049 C 
ATOM      7  C   UNL     1      -4.121  -0.466  -0.444  0.00  0.00    -0.019 A 
ATOM      8  C   UNL     1      -5.478  -0.359  -0.620  0.00  0.00    +0.021 A 
ATOM      9  C   UNL     1      -6.274   0.226   0.368  0.00  0.00    +0.064 A 
ATOM     10  C   UNL     1      -5.684   0.708   1.542  0.00  0.00    +0.017 A 
ATOM     11  C   UNL     1      -4.335   0.595   1.715  0.00  0.00    +0.024 A 
ATOM     12  C   UNL     1      -3.544   0.003   0.728  0.00  0.00    +0.031 A 
ATOM     13  N   UNL     1      -2.196  -0.142   0.950  0.00  0.00    -0.336 N 
ATOM     14  H   UNL     1      -1.829   0.224   1.770  0.00  0.00    +0.147 HD
ENDROOT
BRANCH   1  20
ATOM     15  C   UNL     1      -0.017   1.378   0.010  0.00  0.00    +0.009 A 
ATOM     16  C   UNL     1       1.170   2.086   0.002  0.00  0.00    +0.048 A 
ATOM     17  C   UNL     1       2.380   1.409  -0.013  0.00  0.00    +0.147 A 
ATOM     18  C   UNL     1       2.396   0.022  -0.021  0.00  0.00    +0.168 A 
ATOM     19  C   UNL     1       1.208  -0.681  -0.013  0.00  0.00    +0.042 A 
ATOM     20  C   UNL     1       0.002  -0.004   0.002  0.00  0.00    -0.025 A 
BRANCH  18  21
ATOM     21  N   UNL     1       3.686  -0.704  -0.037  0.00  0.00    +0.060 N 
ATOM     22  O   UNL     1       3.700  -1.913  -0.044  0.00  0.00    -0.126 OA
ATOM     23  O   UNL     1       4.726  -0.088  -0.044  0.00  0.00    -0.126 OA
ENDBRANCH  18  21
BRANCH  17  24
ATOM     24  O   UNL     1       3.548   2.104  -0.021  0.00  0.00    -0.504 OA
ATOM     25  H   UNL     1       3.895   2.300   0.860  0.00  0.00    +0.292 HD
ENDBRANCH  17  24
ENDBRANCH   1  20
BRANCH   9  26
ATOM     26  C   UNL     1      -7.729   0.338   0.174  0.00  0.00    +0.387 C 
ATOM     27  O   UNL     1      -8.243  -0.083  -0.854  0.00  0.00    -0.241 OA
ATOM     28  O   UNL     1      -8.424   0.851   1.040  0.00  0.00    -0.241 OA
ENDBRANCH   9  26
TORSDOF 4
