REMARK  Name = ZINC15673132
REMARK  9 active torsions:
REMARK  status: ('A' for Active; 'I' for Inactive)
REMARK    1  A    between atoms: C_1  and  C_2
REMARK    2  A    between atoms: C_2  and  C_3
REMARK    3  A    between atoms: C_12  and  C_24
REMARK    4  A    between atoms: C_12  and  C_25
REMARK    5  A    between atoms: N_13  and  C_16
REMARK    6  A    between atoms: C_16  and  C_17
REMARK    7  A    between atoms: C_22  and  C_23
REMARK    8  A    between atoms: C_22  and  N_74
REMARK    9  A    between atoms: N_27  and  C_28
REMARK                            x       y       z     vdW  Elec       q    Type
REMARK                         _______ _______ _______ _____ _____    ______ ____
ROOT
ATOM      1  C   UNL     1      -4.567   5.041  -0.071  0.00  0.00    -0.008 A 
ATOM      2  C   UNL     1      -3.252   5.005  -0.371  0.00  0.00    +0.037 A 
ATOM      3  C   UNL     1      -2.490   3.867  -0.069  0.00  0.00    +0.057 A 
ATOM      4  C   UNL     1      -3.187   2.817   0.548  0.00  0.00    +0.038 A 
ATOM      5  S   UNL     1      -4.841   3.444   0.677  0.00  0.00    -0.092 S 
ATOM      6  C   UNL     1      -2.316   1.762   0.795  0.00  0.00    +0.048 A 
ATOM      7  C   UNL     1      -1.087   2.141   0.336  0.00  0.00    +0.106 A 
ATOM      8  N   UNL     1      -1.187   3.420  -0.197  0.00  0.00    -0.333 N 
ATOM      9  C   UNL     1      -0.036   4.102  -0.794  0.00  0.00    +0.157 C 
ATOM     10  C   UNL     1       1.243   3.611  -0.116  0.00  0.00    +0.128 C 
ATOM     11  N   UNL     1       1.288   2.159   0.013  0.00  0.00    -0.282 N 
ATOM     12  C   UNL     1       0.199   1.434   0.359  0.00  0.00    +0.264 C 
ATOM     13  O   UNL     1       0.281   0.259   0.667  0.00  0.00    -0.268 OA
ATOM     14  C   UNL     1       2.446   4.072  -0.942  0.00  0.00    +0.043 C 
ENDROOT
BRANCH  10  15
ATOM     15  C   UNL     1       1.332   4.224   1.258  0.00  0.00    +0.238 C 
ATOM     16  O   UNL     1       1.923   5.271   1.417  0.00  0.00    -0.273 OA
ATOM     17  N   UNL     1       0.756   3.609   2.309  0.00  0.00    -0.311 N 
ATOM     18  H   UNL     1       0.283   2.772   2.182  0.00  0.00    +0.149 HD
BRANCH  17  19
ATOM     19  C   UNL     1       0.843   4.205   3.644  0.00  0.00    +0.073 C 
ATOM     20  C   UNL     1       2.203   3.833   4.270  0.00  0.00    +0.022 C 
ATOM     21  C   UNL     1       2.511   4.819   5.365  0.00  0.00    +0.002 C 
ATOM     22  C   UNL     1       2.060   4.320   6.751  0.00  0.00    +0.000 C 
ATOM     23  C   UNL     1       0.678   3.639   6.721  0.00  0.00    +0.000 C 
ATOM     24  C   UNL     1      -0.306   4.372   5.849  0.00  0.00    +0.002 C 
ATOM     25  C   UNL     1      -0.281   3.739   4.443  0.00  0.00    +0.022 C 
ENDBRANCH  17  19
ENDBRANCH  10  15
BRANCH   1  27
ATOM     26  C   UNL     1      -6.203   5.975  -1.683  0.00  0.00    +0.009 C 
ATOM     27  C   UNL     1      -5.557   6.152  -0.308  0.00  0.00    +0.039 C 
ENDBRANCH   1  27
BRANCH  11  28
ATOM     28  C   UNL     1       2.553   1.463  -0.241  0.00  0.00    +0.094 C 
BRANCH  28  29
ATOM     29  C   UNL     1       2.456   0.695  -1.560  0.00  0.00    -0.051 C 
ATOM     30  C   UNL     1       3.795  -0.006  -1.875  0.00  0.00    -0.016 C 
ATOM     31  C   UNL     1       3.959   0.112  -3.404  0.00  0.00    -0.020 C 
ATOM     32  C   UNL     1       2.705   0.873  -3.885  0.00  0.00    -0.078 C 
ATOM     33  N   UNL     1       2.270   1.604  -2.697  0.00  0.00    +0.382 N 
ATOM     34  H   UNL     1       2.846   2.445  -2.572  0.00  0.00    -0.081 HD
BRANCH  33  35
ATOM     35  C   UNL     1       0.833   2.005  -2.816  0.00  0.00    -0.082 C 
ATOM     36  C   UNL     1       0.691   3.140  -3.832  0.00  0.00    -0.017 C 
ENDBRANCH  33  35
ENDBRANCH  28  29
ENDBRANCH  11  28
TORSDOF 6
