REMARK  Name = ZINC02507056
REMARK  4 active torsions:
REMARK  status: ('A' for Active; 'I' for Inactive)
REMARK    1  A    between atoms: C_4  and  C_7
REMARK    2  A    between atoms: C_8  and  C_18
REMARK    3  A    between atoms: N_10  and  C_12
REMARK    4  A    between atoms: C_21  and  C_29
REMARK                            x       y       z     vdW  Elec       q    Type
REMARK                         _______ _______ _______ _____ _____    ______ ____
ROOT
ATOM      1  C   UNL     1       5.386   2.695   1.308  0.00  0.00    +0.098 A 
ATOM      2  C   UNL     1       4.197   1.951   1.179  0.00  0.00    +0.023 A 
ATOM      3  C   UNL     1       3.531   2.024   2.352  0.00  0.00    +0.121 A 
ATOM      4  N   UNL     1       4.264   2.792   3.200  0.00  0.00    -0.239 N 
ATOM      5  N   UNL     1       5.420   3.203   2.522  0.00  0.00    -0.166 NA
ENDROOT
BRANCH   2   6
ATOM      6  C   UNL     1       3.749   1.200  -0.049  0.00  0.00    +0.142 C 
ATOM      7  C   UNL     1       4.380  -0.171  -0.008  0.00  0.00    +0.029 C 
ATOM      8  C   UNL     1       3.574  -1.246  -0.030  0.00  0.00    +0.072 C 
ATOM      9  N   UNL     1       2.224  -1.095  -0.089  0.00  0.00    -0.225 NA
ATOM     10  C   UNL     1       1.612   0.050  -0.126  0.00  0.00    +0.165 C 
ATOM     11  N   UNL     1       2.261   1.272  -0.112  0.00  0.00    -0.239 N 
ATOM     12  C   UNL     1       1.548   2.408  -0.153  0.00  0.00    +0.232 C 
ATOM     13  O   UNL     1       2.087   3.494  -0.142  0.00  0.00    -0.274 OA
ATOM     14  C   UNL     1       0.042   2.274  -0.215  0.00  0.00    +0.173 C 
ATOM     15  S   UNL     1      -0.125   0.447  -0.203  0.00  0.00    -0.081 S 
BRANCH   8  16
ATOM     16  C   UNL     1       4.161  -2.608   0.009  0.00  0.00    +0.000 A 
ATOM     17  C   UNL     1       5.544  -2.772   0.062  0.00  0.00    +0.010 A 
ATOM     18  C   UNL     1       6.085  -4.041   0.103  0.00  0.00    +0.001 A 
ATOM     19  C   UNL     1       5.257  -5.149   0.080  0.00  0.00    +0.000 A 
ATOM     20  C   UNL     1       3.884  -4.992   0.021  0.00  0.00    +0.001 A 
ATOM     21  C   UNL     1       3.332  -3.728  -0.014  0.00  0.00    +0.010 A 
ENDBRANCH   8  16
ENDBRANCH   2   6
BRANCH   1  25
ATOM     22  C   UNL     1       8.345   3.216  -1.700  0.00  0.00    +0.000 A 
ATOM     23  C   UNL     1       7.005   3.318  -2.027  0.00  0.00    +0.001 A 
ATOM     24  C   UNL     1       6.040   3.149  -1.055  0.00  0.00    +0.010 A 
ATOM     25  C   UNL     1       6.419   2.877   0.258  0.00  0.00    +0.002 A 
ATOM     26  C   UNL     1       7.770   2.782   0.583  0.00  0.00    +0.010 A 
ATOM     27  C   UNL     1       8.726   2.946  -0.398  0.00  0.00    +0.001 A 
ENDBRANCH   1  25
BRANCH   4  28
ATOM     28  C   UNL     1       3.925   3.115   4.520  0.00  0.00    +0.065 A 
ATOM     29  C   UNL     1       2.741   2.643   5.070  0.00  0.00    +0.028 A 
ATOM     30  C   UNL     1       2.411   2.959   6.373  0.00  0.00    +0.002 A 
ATOM     31  C   UNL     1       3.255   3.754   7.127  0.00  0.00    +0.000 A 
ATOM     32  C   UNL     1       4.432   4.231   6.581  0.00  0.00    +0.002 A 
ATOM     33  C   UNL     1       4.770   3.914   5.280  0.00  0.00    +0.028 A 
ENDBRANCH   4  28
TORSDOF 4
