REMARK  Name = ZINC37238085
REMARK  13 active torsions:
REMARK  status: ('A' for Active; 'I' for Inactive)
REMARK    1  A    between atoms: C_1  and  C_2
REMARK    2  A    between atoms: C_13  and  C_14
REMARK    3  A    between atoms: C_13  and  O_15
REMARK    4  A    between atoms: N_21  and  O_22
REMARK    5  A    between atoms: O_22  and  C_23
REMARK    6  A    between atoms: C_23  and  C_24
REMARK    7  A    between atoms: N_26  and  C_27
REMARK    8  A    between atoms: C_27  and  C_29
REMARK    9  A    between atoms: C_27  and  C_36
REMARK   10  A    between atoms: C_29  and  C_30
REMARK   11  A    between atoms: C_36  and  O_38
REMARK   12  A    between atoms: O_38  and  C_39
REMARK   13  A    between atoms: C_42  and  C_43
REMARK                            x       y       z     vdW  Elec       q    Type
REMARK                         _______ _______ _______ _____ _____    ______ ____
ROOT
ATOM      1  C   UNL     1      -0.019   1.526   0.010  0.00  0.00    +0.014 C 
ATOM      2  C   UNL     1       0.002  -0.004   0.002  0.00  0.00    -0.000 C 
ATOM      3  C   UNL     1       0.608  -0.559  -1.290  0.00  0.00    +0.010 C 
ATOM      4  C   UNL     1       2.112  -0.310  -1.326  0.00  0.00    +0.005 C 
ATOM      5  C   UNL     1       2.767  -1.065  -0.164  0.00  0.00    +0.006 C 
ATOM      6  C   UNL     1       2.231  -0.497   1.150  0.00  0.00    -0.003 C 
ATOM      7  C   UNL     1       0.735  -0.576   1.228  0.00  0.00    +0.001 C 
ATOM      8  C   UNL     1       0.232  -2.029   1.301  0.00  0.00    +0.007 C 
ATOM      9  C   UNL     1      -1.266  -1.911   0.938  0.00  0.00    +0.035 C 
ATOM     10  C   UNL     1      -1.422  -0.607   0.134  0.00  0.00    +0.069 C 
ATOM     11  C   UNL     1      -1.995  -0.910  -1.252  0.00  0.00    +0.042 C 
ATOM     12  C   UNL     1       2.859  -1.234   2.335  0.00  0.00    +0.008 C 
ATOM     13  C   UNL     1       4.372  -0.997   2.348  0.00  0.00    +0.032 C 
ATOM     14  C   UNL     1       4.925  -1.418   0.999  0.00  0.00    -0.058 C 
ATOM     15  C   UNL     1       5.943  -2.260   0.958  0.00  0.00    +0.031 C 
ATOM     16  C   UNL     1       6.494  -2.707  -0.337  0.00  0.00    +0.102 C 
ATOM     17  N   UNL     1       7.526  -3.505  -0.385  0.00  0.00    -0.085 NA
ATOM     18  C   UNL     1       5.847  -2.230  -1.578  0.00  0.00    +0.027 C 
ATOM     19  C   UNL     1       4.836  -1.385  -1.506  0.00  0.00    -0.014 C 
ATOM     20  C   UNL     1       4.284  -0.860  -0.239  0.00  0.00    +0.011 C 
ATOM     21  C   UNL     1       4.548   0.647  -0.248  0.00  0.00    +0.020 C 
ENDROOT
BRANCH  10  22
ATOM     22  O   UNL     1      -2.277   0.301   0.832  0.00  0.00    -0.388 OA
ATOM     23  H   UNL     1      -3.182  -0.020   0.946  0.00  0.00    +0.210 HD
ENDBRANCH  10  22
BRANCH  17  24
ATOM     24  O   UNL     1       8.039  -3.923  -1.637  0.00  0.00    -0.384 OA
BRANCH  24  25
ATOM     25  C   UNL     1       9.169  -4.793  -1.540  0.00  0.00    +0.358 C 
BRANCH  25  26
ATOM     26  C   UNL     1       9.630  -5.174  -2.923  0.00  0.00    +0.254 C 
ATOM     27  O   UNL     1       9.049  -4.742  -3.896  0.00  0.00    -0.272 OA
ATOM     28  N   UNL     1      10.688  -5.994  -3.079  0.00  0.00    -0.299 N 
ATOM     29  H   UNL     1      11.153  -6.339  -2.301  0.00  0.00    +0.150 HD
BRANCH  28  30
ATOM     30  C   UNL     1      11.137  -6.363  -4.424  0.00  0.00    +0.186 C 
BRANCH  30  31
ATOM     31  C   UNL     1      10.335  -7.541  -4.915  0.00  0.00    +0.328 C 
ATOM     32  O   UNL     1       9.477  -8.022  -4.213  0.00  0.00    -0.249 OA
BRANCH  31  33
ATOM     33  O   UNL     1      10.574  -8.055  -6.131  0.00  0.00    -0.467 OA
ATOM     34  C   UNL     1       9.777  -9.171  -6.532  0.00  0.00    +0.280 C 
ENDBRANCH  31  33
ENDBRANCH  30  31
BRANCH  30  35
ATOM     35  C   UNL     1      12.620  -6.737  -4.382  0.00  0.00    +0.069 C 
BRANCH  35  36
ATOM     36  C   UNL     1      13.433  -5.524  -4.010  0.00  0.00    -0.045 A 
ATOM     37  C   UNL     1      13.906  -4.680  -4.997  0.00  0.00    +0.004 A 
ATOM     38  C   UNL     1      14.653  -3.568  -4.655  0.00  0.00    +0.000 A 
ATOM     39  C   UNL     1      14.926  -3.300  -3.326  0.00  0.00    +0.000 A 
ATOM     40  C   UNL     1      14.452  -4.144  -2.340  0.00  0.00    +0.000 A 
ATOM     41  C   UNL     1      13.702  -5.254  -2.681  0.00  0.00    +0.004 A 
ENDBRANCH  35  36
ENDBRANCH  30  35
ENDBRANCH  28  30
ENDBRANCH  25  26
ENDBRANCH  24  25
ENDBRANCH  17  24
TORSDOF 9
