REMARK  Name = ZINC35378754
REMARK  5 active torsions:
REMARK  status: ('A' for Active; 'I' for Inactive)
REMARK    1  A    between atoms: C_1  and  C_2
REMARK    2  A    between atoms: C_7  and  S_8
REMARK    3  A    between atoms: S_8  and  N_11
REMARK    4  A    between atoms: C_15  and  C_18
REMARK    5  A    between atoms: N_20  and  C_21
REMARK                            x       y       z     vdW  Elec       q    Type
REMARK                         _______ _______ _______ _____ _____    ______ ____
ROOT
ATOM      1  N   UNL     1       1.617   1.132   2.607  0.00  0.00    -0.176 NA
ATOM      2  C   UNL     1       2.940   0.585   2.934  0.00  0.00    +0.109 C 
ATOM      3  C   UNL     1       3.884   0.841   1.755  0.00  0.00    +0.018 C 
ATOM      4  C   UNL     1       3.886   2.335   1.423  0.00  0.00    +0.015 C 
ATOM      5  C   UNL     1       2.476   2.771   1.017  0.00  0.00    +0.091 C 
ATOM      6  C   UNL     1       1.517   2.535   2.182  0.00  0.00    +0.122 C 
ENDROOT
BRANCH   5   7
ATOM      7  C   UNL     1       2.486   4.234   0.659  0.00  0.00    +0.218 C 
ATOM      8  O   UNL     1       1.791   5.014   1.276  0.00  0.00    -0.275 OA
ATOM      9  N   UNL     1       3.265   4.677  -0.348  0.00  0.00    -0.312 N 
ATOM     10  H   UNL     1       3.821   4.053  -0.841  0.00  0.00    +0.149 HD
BRANCH   9  11
ATOM     11  C   UNL     1       3.275   6.100  -0.696  0.00  0.00    +0.073 C 
ATOM     12  C   UNL     1       2.120   6.397  -1.655  0.00  0.00    +0.022 C 
ATOM     13  C   UNL     1       1.878   7.907  -1.709  0.00  0.00    +0.002 C 
ATOM     14  C   UNL     1       1.919   8.482  -0.291  0.00  0.00    +0.000 C 
ATOM     15  C   UNL     1       3.140   9.392  -0.145  0.00  0.00    +0.000 C 
ATOM     16  C   UNL     1       4.400   8.535  -0.007  0.00  0.00    +0.000 C 
ATOM     17  C   UNL     1       4.785   7.970  -1.375  0.00  0.00    +0.002 C 
ATOM     18  C   UNL     1       4.602   6.451  -1.371  0.00  0.00    +0.022 C 
ENDBRANCH   9  11
ENDBRANCH   5   7
BRANCH   1  19
ATOM     19  S   UNL     1       0.263   0.183   2.711  0.00  0.00    +0.061 S 
ATOM     20  O   UNL     1      -0.848   1.067   2.780  0.00  0.00    -0.153 OA
ATOM     21  O   UNL     1       0.525  -0.791   3.712  0.00  0.00    -0.153 OA
BRANCH  19  28
ATOM     22  C   UNL     1      -0.435   1.486   0.078  0.00  0.00    +0.046 C 
ATOM     23  C   UNL     1      -0.205  -0.003   0.029  0.00  0.00    -0.022 A 
ATOM     24  C   UNL     1      -0.313  -0.679  -1.173  0.00  0.00    +0.032 A 
ATOM     25  C   UNL     1      -0.101  -2.046  -1.215  0.00  0.00    +0.076 A 
ATOM     26  C   UNL     1       0.220  -2.738  -0.048  0.00  0.00    +0.144 A 
ATOM     27  C   UNL     1       0.328  -2.055   1.151  0.00  0.00    +0.076 A 
ATOM     28  C   UNL     1       0.120  -0.688   1.186  0.00  0.00    +0.112 A 
ATOM     29  O   UNL     1       0.422  -4.082  -0.101  0.00  0.00    -0.481 OA
ATOM     30  C   UNL     1      -0.348  -4.811  -1.060  0.00  0.00    +0.325 C 
ATOM     31  C   UNL     1      -0.309  -4.098  -2.388  0.00  0.00    +0.255 C 
ATOM     32  O   UNL     1      -0.370  -4.730  -3.421  0.00  0.00    -0.272 OA
ATOM     33  N   UNL     1      -0.206  -2.751  -2.422  0.00  0.00    -0.280 N 
ATOM     34  H   UNL     1      -0.205  -2.279  -3.270  0.00  0.00    +0.155 HD
ENDBRANCH  19  28
ENDBRANCH   1  19
TORSDOF 4
