REMARK  Name = ZINC04488249
REMARK  4 active torsions:
REMARK  status: ('A' for Active; 'I' for Inactive)
REMARK    1  A    between atoms: C_1  and  C_2
REMARK    2  A    between atoms: C_7  and  C_19
REMARK    3  A    between atoms: C_13  and  C_17
REMARK    4  A    between atoms: C_13  and  C_18
REMARK                            x       y       z     vdW  Elec       q    Type
REMARK                         _______ _______ _______ _____ _____    ______ ____
ROOT
ATOM      1  C   UNL     1      -0.018   1.503   0.010  0.00  0.00    +0.090 C 
ATOM      2  C   UNL     1       0.002  -0.004   0.002  0.00  0.00    +0.150 A 
ATOM      3  N   UNL     1       0.008  -0.773  -1.092  0.00  0.00    -0.198 NA
ATOM      4  C   UNL     1       0.025  -2.029  -0.742  0.00  0.00    +0.219 A 
ATOM      5  N   UNL     1       0.036  -2.087   0.613  0.00  0.00    -0.221 N 
ATOM      6  N   UNL     1       0.023  -0.769   1.066  0.00  0.00    -0.153 NA
ATOM      7  C   UNL     1       0.068  -3.337   1.362  0.00  0.00    +0.176 C 
ATOM      8  C   UNL     1      -0.256  -4.497   0.447  0.00  0.00    +0.041 C 
ATOM      9  C   UNL     1      -0.261  -4.372  -0.897  0.00  0.00    +0.020 C 
ATOM     10  N   UNL     1       0.029  -3.179  -1.515  0.00  0.00    -0.287 N 
ATOM     11  C   UNL     1      -0.596  -5.548  -1.785  0.00  0.00    +0.058 C 
ATOM     12  C   UNL     1      -0.154  -6.847  -1.108  0.00  0.00    -0.023 C 
ATOM     13  C   UNL     1      -0.868  -6.953   0.244  0.00  0.00    +0.086 C 
ATOM     14  C   UNL     1      -0.554  -5.729   1.058  0.00  0.00    +0.164 C 
ATOM     15  O   UNL     1      -0.559  -5.805   2.271  0.00  0.00    -0.292 OA
ATOM     16  C   UNL     1      -0.533  -8.040  -1.986  0.00  0.00    +0.011 C 
ATOM     17  C   UNL     1       1.360  -6.826  -0.891  0.00  0.00    +0.011 C 
ATOM     18  H   UNL     1       0.230  -3.143  -2.463  0.00  0.00    +0.155 HD
ENDROOT
BRANCH   7  19
ATOM     19  C   UNL     1       1.442  -3.534   1.948  0.00  0.00    -0.013 A 
ATOM     20  C   UNL     1       2.544  -3.607   1.117  0.00  0.00    +0.044 A 
ATOM     21  C   UNL     1       3.807  -3.789   1.655  0.00  0.00    +0.126 A 
ATOM     22  C   UNL     1       3.966  -3.896   3.025  0.00  0.00    +0.076 A 
ATOM     23  C   UNL     1       2.862  -3.821   3.857  0.00  0.00    +0.126 A 
ATOM     24  C   UNL     1       1.601  -3.635   3.317  0.00  0.00    +0.044 A 
ATOM     25  F   UNL     1       3.016  -3.925   5.195  0.00  0.00    -0.205 F 
ATOM     26  F   UNL     1       4.883  -3.862   0.841  0.00  0.00    -0.205 F 
ENDBRANCH   7  19
TORSDOF 1
