REMARK  Name = ZINC17079773
REMARK  10 active torsions:
REMARK  status: ('A' for Active; 'I' for Inactive)
REMARK    1  A    between atoms: C_1  and  C_2
REMARK    2  A    between atoms: C_5  and  N_9
REMARK    3  A    between atoms: C_6  and  O_8
REMARK    4  A    between atoms: N_9  and  C_10
REMARK    5  A    between atoms: C_10  and  N_12
REMARK    6  A    between atoms: N_12  and  C_13
REMARK    7  A    between atoms: C_14  and  C_24
REMARK    8  A    between atoms: C_19  and  C_23
REMARK    9  A    between atoms: C_24  and  O_26
REMARK   10  A    between atoms: O_26  and  C_27
REMARK                            x       y       z     vdW  Elec       q    Type
REMARK                         _______ _______ _______ _____ _____    ______ ____
ROOT
ATOM      1  N   UNL     1      -1.049  -2.276  -2.508  0.00  0.00    -0.291 N 
ATOM      2  H   UNL     1      -1.203  -1.331  -2.667  0.00  0.00    +0.154 HD
ENDROOT
BRANCH   1   3
ATOM      3  C   UNL     1      -0.802  -2.731  -1.224  0.00  0.00    +0.086 A 
ATOM      4  C   UNL     1      -0.735  -1.998  -0.046  0.00  0.00    +0.091 A 
ATOM      5  C   UNL     1      -0.452  -2.724   1.181  0.00  0.00    -0.021 A 
ATOM      6  C   UNL     1      -0.293  -4.057   1.037  0.00  0.00    -0.004 A 
ATOM      7  S   UNL     1      -0.501  -4.354  -0.696  0.00  0.00    -0.077 S 
ATOM      8  C   UNL     1      -0.001  -5.054   2.116  0.00  0.00    +0.046 C 
ATOM      9  C   UNL     1      -0.282  -4.394   3.474  0.00  0.00    -0.009 C 
ATOM     10  C   UNL     1       0.384  -3.015   3.500  0.00  0.00    +0.008 C 
ATOM     11  C   UNL     1      -0.351  -2.066   2.552  0.00  0.00    +0.037 C 
ATOM     12  C   UNL     1       0.289  -5.264   4.595  0.00  0.00    +0.008 C 
BRANCH   4  13
ATOM     13  C   UNL     1      -0.935  -0.548  -0.041  0.00  0.00    +0.342 C 
ATOM     14  O   UNL     1      -2.052  -0.089   0.109  0.00  0.00    -0.245 OA
BRANCH  13  15
ATOM     15  O   UNL     1       0.118   0.279  -0.203  0.00  0.00    -0.464 OA
ATOM     16  C   UNL     1      -0.156   1.705  -0.188  0.00  0.00    +0.280 C 
ENDBRANCH  13  15
ENDBRANCH   4  13
ENDBRANCH   1   3
BRANCH   1  17
ATOM     17  C   UNL     1      -1.076  -3.145  -3.538  0.00  0.00    +0.139 C 
ATOM     18  S   UNL     1      -0.804  -4.812  -3.258  0.00  0.00    -0.018 S 
BRANCH  17  19
ATOM     19  N   UNL     1      -1.317  -2.702  -4.788  0.00  0.00    -0.294 N 
ATOM     20  H   UNL     1      -1.532  -1.768  -4.938  0.00  0.00    +0.154 HD
BRANCH  19  25
ATOM     21  C   UNL     1      -1.071  -6.304  -9.170  0.00  0.00    +0.044 C 
ATOM     22  C   UNL     1      -1.135  -5.346  -8.008  0.00  0.00    -0.047 A 
ATOM     23  C   UNL     1      -1.831  -5.694  -6.866  0.00  0.00    +0.005 A 
ATOM     24  C   UNL     1      -1.893  -4.820  -5.797  0.00  0.00    +0.027 A 
ATOM     25  C   UNL     1      -1.255  -3.590  -5.870  0.00  0.00    +0.075 A 
ATOM     26  C   UNL     1      -0.559  -3.238  -7.023  0.00  0.00    +0.138 A 
ATOM     27  C   UNL     1      -0.497  -4.122  -8.088  0.00  0.00    +0.050 A 
BRANCH  26  28
ATOM     28  O   UNL     1       0.063  -2.031  -7.102  0.00  0.00    -0.505 OA
ATOM     29  H   UNL     1       0.979  -2.039  -6.790  0.00  0.00    +0.292 HD
ENDBRANCH  26  28
ENDBRANCH  19  25
ENDBRANCH  17  19
ENDBRANCH   1  17
TORSDOF 7
