REMARK  Name = ZINC22454578
REMARK  3 active torsions:
REMARK  status: ('A' for Active; 'I' for Inactive)
REMARK    1  A    between atoms: C_1  and  C_2
REMARK    2  A    between atoms: C_5  and  N_9
REMARK    3  A    between atoms: C_22  and  C_27
REMARK                            x       y       z     vdW  Elec       q    Type
REMARK                         _______ _______ _______ _____ _____    ______ ____
ROOT
ATOM      1  N   UNL     1      -3.839   2.298   5.495  0.00  0.00    -0.296 N 
ATOM      2  C   UNL     1      -2.523   2.203   5.047  0.00  0.00    +0.156 A 
ATOM      3  C   UNL     1      -2.086   1.972   3.684  0.00  0.00    +0.080 A 
ATOM      4  C   UNL     1      -0.694   1.954   3.699  0.00  0.00    +0.061 A 
ATOM      5  N   UNL     1      -0.308   2.154   4.960  0.00  0.00    -0.200 N 
ATOM      6  N   UNL     1      -1.435   2.307   5.779  0.00  0.00    -0.148 NA
ATOM      7  C   UNL     1       1.015   2.203   5.397  0.00  0.00    +0.252 A 
ATOM      8  N   UNL     1       1.991   2.037   4.519  0.00  0.00    -0.219 NA
ATOM      9  C   UNL     1       3.257   2.082   4.898  0.00  0.00    +0.116 A 
ATOM     10  C   UNL     1       3.555   2.295   6.235  0.00  0.00    +0.039 A 
ATOM     11  C   UNL     1       2.507   2.460   7.128  0.00  0.00    +0.116 A 
ATOM     12  N   UNL     1       1.264   2.408   6.680  0.00  0.00    -0.219 NA
ATOM     13  C   UNL     1       0.135   1.741   2.459  0.00  0.00    +0.060 C 
ATOM     14  C   UNL     1      -0.713   2.063   1.224  0.00  0.00    -0.001 C 
ATOM     15  C   UNL     1      -2.034   1.288   1.257  0.00  0.00    +0.083 C 
ATOM     16  C   UNL     1      -2.849   1.777   2.446  0.00  0.00    +0.169 C 
ATOM     17  O   UNL     1      -4.042   1.988   2.376  0.00  0.00    -0.292 OA
ATOM     18  C   UNL     1       0.066   1.678  -0.035  0.00  0.00    +0.008 C 
ATOM     19  H   UNL     1      -4.669   2.265   4.774  0.00  0.00    +0.154 HD
ENDROOT
BRANCH   1  24
ATOM     20  C   UNL     1      -4.915   2.849  11.037  0.00  0.00    +0.044 C 
ATOM     21  C   UNL     1      -4.630   2.702   9.565  0.00  0.00    -0.049 A 
ATOM     22  C   UNL     1      -3.336   2.474   9.132  0.00  0.00    +0.005 A 
ATOM     23  C   UNL     1      -3.071   2.340   7.784  0.00  0.00    +0.025 A 
ATOM     24  C   UNL     1      -4.104   2.433   6.861  0.00  0.00    +0.051 A 
ATOM     25  C   UNL     1      -5.403   2.668   7.298  0.00  0.00    +0.062 A 
ATOM     26  C   UNL     1      -5.662   2.796   8.650  0.00  0.00    +0.025 A 
ATOM     27 CL   UNL     1      -6.698   2.795   6.149  0.00  0.00    -0.082 Cl
ENDBRANCH   1  24
TORSDOF 1
