REMARK  Name = ZINC12373501
REMARK  12 active torsions:
REMARK  status: ('A' for Active; 'I' for Inactive)
REMARK    1  A    between atoms: C_1  and  C_2
REMARK    2  A    between atoms: C_3  and  C_14
REMARK    3  A    between atoms: N_6  and  C_7
REMARK    4  A    between atoms: C_14  and  C_16
REMARK    5  A    between atoms: C_14  and  N_51
REMARK    6  A    between atoms: C_17  and  C_18
REMARK    7  A    between atoms: C_17  and  N_51
REMARK    8  A    between atoms: C_21  and  C_23
REMARK    9  A    between atoms: C_24  and  C_25
REMARK   10  A    between atoms: C_25  and  C_26
REMARK   11  A    between atoms: C_25  and  C_27
REMARK   12  A    between atoms: C_25  and  O_28
REMARK                            x       y       z     vdW  Elec       q    Type
REMARK                         _______ _______ _______ _____ _____    ______ ____
ROOT
ATOM      1  N   UNL     1      -0.464   9.681  -0.880  0.00  0.00    +0.386 N 
ATOM      2  H   UNL     1       0.468   9.347  -1.152  0.00  0.00    -0.085 HD
ATOM      3  H   UNL     1      -0.413  10.120   0.047  0.00  0.00    -0.085 HD
ENDROOT
BRANCH   1   4
ATOM      4  C   UNL     1      -1.393   8.537  -0.826  0.00  0.00    -0.040 C 
ATOM      5  C   UNL     1      -2.541   8.856   0.135  0.00  0.00    -0.009 C 
BRANCH   4   8
ATOM      6  C   UNL     1      -2.154   5.558  -1.408  0.00  0.00    +0.066 C 
ATOM      7  C   UNL     1      -0.982   6.032  -0.587  0.00  0.00    +0.043 A 
ATOM      8  C   UNL     1      -0.652   7.319  -0.335  0.00  0.00    -0.021 A 
ATOM      9  C   UNL     1       0.502   7.322   0.457  0.00  0.00    +0.137 A 
ATOM     10  N   UNL     1       0.850   6.080   0.677  0.00  0.00    -0.174 NA
ATOM     11  N   UNL     1      -0.071   5.245   0.031  0.00  0.00    -0.237 N 
BRANCH  11  12
ATOM     12  C   UNL     1      -0.051   3.844   0.023  0.00  0.00    +0.068 A 
ATOM     13  C   UNL     1      -1.242   3.131   0.031  0.00  0.00    +0.028 A 
ATOM     14  C   UNL     1      -1.220   1.750   0.017  0.00  0.00    +0.005 A 
ATOM     15  C   UNL     1      -0.013   1.076   0.008  0.00  0.00    +0.038 A 
ATOM     16  C   UNL     1       1.178   1.783   0.000  0.00  0.00    +0.125 A 
ATOM     17  C   UNL     1       1.161   3.167   0.008  0.00  0.00    +0.066 A 
ATOM     18  F   UNL     1       2.356   1.123  -0.014  0.00  0.00    -0.205 F 
ENDBRANCH  11  12
ENDBRANCH   4   8
ENDBRANCH   1   4
BRANCH   1  19
ATOM     19  C   UNL     1      -0.931  10.674  -1.865  0.00  0.00    -0.039 C 
BRANCH  19  20
ATOM     20  C   UNL     1       0.036  11.829  -1.899  0.00  0.00    -0.026 A 
ATOM     21  C   UNL     1       1.140  11.996  -2.673  0.00  0.00    +0.010 A 
ATOM     22  C   UNL     1       1.888  13.144  -2.537  0.00  0.00    +0.025 A 
ATOM     23  C   UNL     1       1.491  14.084  -1.619  0.00  0.00    +0.062 A 
ATOM     24  S   UNL     1       0.022  13.333  -0.937  0.00  0.00    -0.087 S 
BRANCH  23  25
ATOM     25  C   UNL     1       2.095  15.341  -1.298  0.00  0.00    -0.056 C 
ATOM     26  C   UNL     1       2.589  16.373  -1.034  0.00  0.00    -0.062 C 
BRANCH  26  27
ATOM     27  C   UNL     1       3.210  17.666  -0.703  0.00  0.00    +0.121 C 
ATOM     28  C   UNL     1       4.638  17.434  -0.204  0.00  0.00    +0.055 C 
ATOM     29  C   UNL     1       3.243  18.550  -1.951  0.00  0.00    +0.055 C 
BRANCH  27  30
ATOM     30  O   UNL     1       2.448  18.312   0.319  0.00  0.00    -0.377 OA
ATOM     31  H   UNL     1       2.800  19.172   0.587  0.00  0.00    +0.211 HD
ENDBRANCH  27  30
ENDBRANCH  26  27
ENDBRANCH  23  25
ENDBRANCH  19  20
ENDBRANCH   1  19
TORSDOF 8
