REMARK  Name = ZINC12602065
REMARK  7 active torsions:
REMARK  status: ('A' for Active; 'I' for Inactive)
REMARK    1  A    between atoms: C_1  and  C_2
REMARK    2  A    between atoms: C_2  and  N_3
REMARK    3  A    between atoms: N_6  and  C_7
REMARK    4  A    between atoms: C_7  and  C_8
REMARK    5  A    between atoms: C_17  and  C_19
REMARK    6  A    between atoms: C_21  and  C_25
REMARK    7  A    between atoms: N_23  and  C_24
REMARK                            x       y       z     vdW  Elec       q    Type
REMARK                         _______ _______ _______ _____ _____    ______ ____
ROOT
ATOM      1  C   UNL     1       1.504   0.824   0.257  0.00  0.00    -0.051 C 
ATOM      2  C   UNL     1       2.786   1.605  -0.047  0.00  0.00    -0.010 C 
ATOM      3  C   UNL     1       3.901   1.105   0.880  0.00  0.00    -0.007 C 
ATOM      4  C   UNL     1       4.101  -0.396   0.641  0.00  0.00    -0.015 C 
ATOM      5  C   UNL     1       2.783  -1.122   0.926  0.00  0.00    -0.078 C 
ATOM      6  N   UNL     1       1.766  -0.142   1.332  0.00  0.00    +0.383 N 
ATOM      7  C   UNL     1       2.159   0.541   2.572  0.00  0.00    -0.068 C 
ATOM      8  C   UNL     1       3.459   1.315   2.334  0.00  0.00    +0.024 C 
ATOM      9  H   UNL     1       0.831  -0.687   1.529  0.00  0.00    -0.081 HD
ENDROOT
BRANCH   8  10
ATOM     10  C   UNL     1       3.227   2.782   2.585  0.00  0.00    +0.041 A 
ATOM     11  C   UNL     1       2.116   3.333   3.129  0.00  0.00    +0.048 A 
ATOM     12  C   UNL     1       2.307   4.717   3.188  0.00  0.00    +0.066 A 
ATOM     13  N   UNL     1       3.486   4.989   2.690  0.00  0.00    -0.176 NA
ATOM     14  N   UNL     1       4.086   3.784   2.303  0.00  0.00    -0.271 N 
ATOM     15  C   UNL     1       5.412   3.636   1.698  0.00  0.00    +0.172 C 
BRANCH  12  16
ATOM     16  C   UNL     1       1.322   5.723   3.727  0.00  0.00    +0.040 C 
ATOM     17  C   UNL     1       0.568   5.114   4.910  0.00  0.00    +0.010 C 
ATOM     18  C   UNL     1      -0.432   6.134   5.457  0.00  0.00    +0.001 C 
ATOM     19  C   UNL     1      -1.427   6.513   4.359  0.00  0.00    +0.000 C 
ATOM     20  C   UNL     1      -0.673   7.121   3.175  0.00  0.00    +0.001 C 
ATOM     21  C   UNL     1       0.327   6.101   2.628  0.00  0.00    +0.010 C 
ENDBRANCH  12  16
ENDBRANCH   8  10
BRANCH   1  22
ATOM     22  C   UNL     1       0.407   1.795   0.698  0.00  0.00    +0.090 C 
BRANCH  22  26
ATOM     23  N   UNL     1      -2.975   0.994   1.898  0.00  0.00    -0.300 N 
ATOM     24  C   UNL     1      -1.881   1.690   1.529  0.00  0.00    +0.300 C 
ATOM     25  O   UNL     1      -1.887   2.904   1.580  0.00  0.00    -0.253 OA
ATOM     26  N   UNL     1      -0.779   1.039   1.105  0.00  0.00    -0.301 N 
ATOM     27  H   UNL     1      -2.969  -0.105   1.853  0.00  0.00    +0.150 HD
ATOM     28  H   UNL     1      -0.772  -0.061   1.064  0.00  0.00    +0.150 HD
BRANCH  23  30
ATOM     29  C   UNL     1      -5.260   0.686   2.713  0.00  0.00    +0.024 C 
ATOM     30  C   UNL     1      -4.171   1.702   2.360  0.00  0.00    +0.102 C 
ENDBRANCH  23  30
ENDBRANCH  22  26
ENDBRANCH   1  22
TORSDOF 5
