REMARK  Name = ZINC65562466
REMARK  4 active torsions:
REMARK  status: ('A' for Active; 'I' for Inactive)
REMARK    1  A    between atoms: C_4  and  N_7
REMARK    2  A    between atoms: C_10  and  C_12
REMARK    3  A    between atoms: C_19  and  C_21
REMARK    4  A    between atoms: C_24  and  C_27
REMARK                            x       y       z     vdW  Elec       q    Type
REMARK                         _______ _______ _______ _____ _____    ______ ____
ROOT
ATOM      1  C   UNL     1       7.649  -0.645   1.118  0.00  0.00    +0.267 C 
ATOM      2  O   UNL     1       8.475  -1.534   1.048  0.00  0.00    -0.268 OA
ATOM      3  N   UNL     1       7.888   0.545   0.532  0.00  0.00    -0.286 N 
ATOM      4  C   UNL     1       6.947   1.662   0.695  0.00  0.00    +0.109 C 
ATOM      5  C   UNL     1       6.554   2.182  -0.691  0.00  0.00    +0.019 C 
ATOM      6  C   UNL     1       7.819   2.535  -1.477  0.00  0.00    +0.004 C 
ATOM      7  C   UNL     1       8.676   1.280  -1.657  0.00  0.00    +0.030 C 
ATOM      8  C   UNL     1       9.096   0.752  -0.277  0.00  0.00    +0.140 C 
ENDROOT
BRANCH   8   9
ATOM      9  C   UNL     1       9.828  -0.556  -0.436  0.00  0.00    +0.106 A 
ATOM     10  N   UNL     1       9.368  -1.635  -1.106  0.00  0.00    -0.342 N 
ATOM     11  H   UNL     1       8.518  -1.709  -1.567  0.00  0.00    +0.167 HD
ATOM     12  C   UNL     1      10.334  -2.612  -1.012  0.00  0.00    +0.064 A 
ATOM     13  C   UNL     1      11.351  -2.079  -0.281  0.00  0.00    +0.110 A 
ATOM     14  N   UNL     1      11.010  -0.828   0.046  0.00  0.00    -0.348 N 
ATOM     15  H   UNL     1      11.557  -0.216   0.564  0.00  0.00    +0.167 HD
BRANCH  12  16
ATOM     16  C   UNL     1      10.277  -3.971  -1.591  0.00  0.00    +0.002 A 
ATOM     17  C   UNL     1       9.161  -4.374  -2.326  0.00  0.00    +0.010 A 
ATOM     18  C   UNL     1       9.114  -5.643  -2.865  0.00  0.00    +0.003 A 
ATOM     19  C   UNL     1      10.169  -6.518  -2.678  0.00  0.00    +0.038 A 
ATOM     20  C   UNL     1      11.280  -6.126  -1.949  0.00  0.00    +0.124 A 
ATOM     21  C   UNL     1      11.342  -4.855  -1.409  0.00  0.00    +0.048 A 
ATOM     22  F   UNL     1      12.307  -6.985  -1.769  0.00  0.00    -0.205 F 
ENDBRANCH  12  16
ENDBRANCH   8   9
BRANCH   1  26
ATOM     23  N   UNL     1       4.479  -0.505   2.738  0.00  0.00    -0.239 N 
ATOM     24  C   UNL     1       4.741  -1.818   2.970  0.00  0.00    +0.115 A 
ATOM     25  C   UNL     1       5.945  -2.088   2.414  0.00  0.00    +0.054 A 
ATOM     26  C   UNL     1       6.382  -0.869   1.844  0.00  0.00    +0.148 A 
ATOM     27  N   UNL     1       5.444   0.027   2.077  0.00  0.00    -0.162 NA
BRANCH  23  31
ATOM     28  C   UNL     1       1.041   1.499   3.976  0.00  0.00    +0.000 A 
ATOM     29  C   UNL     1       2.018   2.176   3.269  0.00  0.00    +0.002 A 
ATOM     30  C   UNL     1       3.158   1.515   2.857  0.00  0.00    +0.028 A 
ATOM     31  C   UNL     1       3.324   0.169   3.155  0.00  0.00    +0.065 A 
ATOM     32  C   UNL     1       2.341  -0.508   3.865  0.00  0.00    +0.028 A 
ATOM     33  C   UNL     1       1.203   0.159   4.274  0.00  0.00    +0.002 A 
ENDBRANCH  23  31
ENDBRANCH   1  26
TORSDOF 4
