REMARK  Name = ZINC45573804
REMARK  6 active torsions:
REMARK  status: ('A' for Active; 'I' for Inactive)
REMARK    1  A    between atoms: C_4  and  C_7
REMARK    2  A    between atoms: C_8  and  C_18
REMARK    3  A    between atoms: N_10  and  C_12
REMARK    4  A    between atoms: N_20  and  N_21
REMARK    5  A    between atoms: C_22  and  C_24
REMARK    6  A    between atoms: N_30  and  C_31
REMARK                            x       y       z     vdW  Elec       q    Type
REMARK                         _______ _______ _______ _____ _____    ______ ____
ROOT
ATOM      1  C   UNL     1       2.213  -5.427  -0.193  0.00  0.00    +0.264 C 
ATOM      2  O   UNL     1       1.037  -5.135  -0.094  0.00  0.00    -0.269 OA
ATOM      3  N   UNL     1       2.883  -5.898   0.877  0.00  0.00    -0.230 N 
ATOM      4  H   UNL     1       3.821  -6.130   0.798  0.00  0.00    +0.173 HD
ENDROOT
BRANCH   1   6
ATOM      5  C   UNL     1       2.364  -4.654  -2.701  0.00  0.00    +0.105 A 
ATOM      6  C   UNL     1       2.906  -5.265  -1.483  0.00  0.00    +0.084 A 
ATOM      7  C   UNL     1       4.194  -5.656  -1.783  0.00  0.00    +0.128 A 
ATOM      8  N   UNL     1       4.438  -5.325  -3.063  0.00  0.00    -0.239 N 
ATOM      9  N   UNL     1       3.306  -4.718  -3.615  0.00  0.00    -0.166 NA
BRANCH   5  13
ATOM     10  C   UNL     1      -1.525  -3.009  -3.189  0.00  0.00    +0.000 A 
ATOM     11  C   UNL     1      -0.804  -2.743  -2.039  0.00  0.00    +0.001 A 
ATOM     12  C   UNL     1       0.459  -3.274  -1.875  0.00  0.00    +0.010 A 
ATOM     13  C   UNL     1       1.008  -4.081  -2.871  0.00  0.00    +0.003 A 
ATOM     14  C   UNL     1       0.276  -4.346  -4.028  0.00  0.00    +0.010 A 
ATOM     15  C   UNL     1      -0.986  -3.808  -4.181  0.00  0.00    +0.001 A 
ENDBRANCH   5  13
BRANCH   8  16
ATOM     16  C   UNL     1       5.640  -5.559  -3.743  0.00  0.00    +0.065 A 
ATOM     17  C   UNL     1       6.697  -6.183  -3.093  0.00  0.00    +0.028 A 
ATOM     18  C   UNL     1       7.881  -6.412  -3.766  0.00  0.00    +0.002 A 
ATOM     19  C   UNL     1       8.015  -6.020  -5.085  0.00  0.00    +0.000 A 
ATOM     20  C   UNL     1       6.965  -5.398  -5.735  0.00  0.00    +0.002 A 
ATOM     21  C   UNL     1       5.777  -5.171  -5.070  0.00  0.00    +0.028 A 
ENDBRANCH   8  16
ENDBRANCH   1   6
BRANCH   3  22
ATOM     22  N   UNL     1       2.224  -6.052   2.104  0.00  0.00    -0.229 N 
ATOM     23  C   UNL     1       2.893  -6.523   3.174  0.00  0.00    +0.278 C 
ATOM     24  O   UNL     1       4.071  -6.815   3.075  0.00  0.00    -0.267 OA
ATOM     25  H   UNL     1       1.285  -5.819   2.183  0.00  0.00    +0.173 HD
BRANCH  23  26
ATOM     26  C   UNL     1       2.203  -6.684   4.458  0.00  0.00    +0.128 A 
ATOM     27  C   UNL     1       0.935  -6.311   4.739  0.00  0.00    +0.116 A 
ATOM     28  N   UNL     1       0.679  -6.639   6.044  0.00  0.00    -0.339 N 
ATOM     29  H   UNL     1      -0.156  -6.484   6.512  0.00  0.00    +0.167 HD
ATOM     30  C   UNL     1       1.779  -7.211   6.569  0.00  0.00    +0.163 A 
ATOM     31  S   UNL     1       1.937  -7.787   8.173  0.00  0.00    -0.013 S 
ATOM     32  N   UNL     1       2.733  -7.259   5.618  0.00  0.00    -0.284 N 
BRANCH  32  33
ATOM     33  C   UNL     1       4.021  -7.786   5.766  0.00  0.00    +0.049 A 
ATOM     34  C   UNL     1       5.082  -6.951   6.094  0.00  0.00    +0.026 A 
ATOM     35  C   UNL     1       6.351  -7.475   6.239  0.00  0.00    +0.002 A 
ATOM     36  C   UNL     1       6.568  -8.829   6.059  0.00  0.00    +0.000 A 
ATOM     37  C   UNL     1       5.514  -9.663   5.732  0.00  0.00    +0.002 A 
ATOM     38  C   UNL     1       4.241  -9.147   5.591  0.00  0.00    +0.026 A 
ENDBRANCH  32  33
ENDBRANCH  23  26
ENDBRANCH   3  22
TORSDOF 6
