REMARK  Name = ZINC04745799
REMARK  3 active torsions:
REMARK  status: ('A' for Active; 'I' for Inactive)
REMARK    1  A    between atoms: C_1  and  N_2
REMARK    2  A    between atoms: C_6  and  C_7
REMARK    3  A    between atoms: N_13  and  C_14
REMARK                            x       y       z     vdW  Elec       q    Type
REMARK                         _______ _______ _______ _____ _____    ______ ____
ROOT
ATOM      1  C   UNL     1      -0.332  -0.536   2.562  0.00  0.00    +0.046 C 
ATOM      2  C   UNL     1      -0.285   0.781   2.912  0.00  0.00    +0.079 C 
ATOM      3  C   UNL     1      -0.439   1.976   2.068  0.00  0.00    +0.256 C 
ATOM      4  O   UNL     1      -0.642   1.887   0.871  0.00  0.00    -0.269 OA
ATOM      5  N   UNL     1      -0.348   3.151   2.667  0.00  0.00    -0.260 N 
ATOM      6  C   UNL     1      -0.119   3.232   4.023  0.00  0.00    +0.166 C 
ATOM      7  N   UNL     1      -0.002   4.307   4.771  0.00  0.00    -0.224 NA
ATOM      8  S   UNL     1      -0.027   1.519   4.519  0.00  0.00    -0.049 S 
ATOM      9  H   UNL     1      -0.444   3.965   2.147  0.00  0.00    +0.157 HD
ENDROOT
BRANCH   7  10
ATOM     10  C   UNL     1       0.170   4.184   6.123  0.00  0.00    +0.086 A 
ATOM     11  C   UNL     1       1.161   3.342   6.631  0.00  0.00    +0.029 A 
ATOM     12  C   UNL     1       1.329   3.223   7.995  0.00  0.00    +0.004 A 
ATOM     13  C   UNL     1       0.519   3.936   8.861  0.00  0.00    +0.021 A 
ATOM     14  C   UNL     1      -0.467   4.773   8.366  0.00  0.00    +0.061 A 
ATOM     15  C   UNL     1      -0.642   4.906   7.002  0.00  0.00    +0.085 A 
ATOM     16 CL   UNL     1      -1.873   5.962   6.381  0.00  0.00    -0.080 Cl
ATOM     17 CL   UNL     1      -1.479   5.662   9.460  0.00  0.00    -0.082 Cl
ENDBRANCH   7  10
BRANCH   1  23
ATOM     18  C   UNL     1       1.587   0.366   0.343  0.00  0.00    +0.149 C 
ATOM     19  N   UNL     1       0.423  -0.510   0.189  0.00  0.00    -0.350 N 
ATOM     20  C   UNL     1       0.004  -1.076  -0.975  0.00  0.00    +0.086 A 
ATOM     21  C   UNL     1      -1.101  -1.819  -0.728  0.00  0.00    +0.020 A 
ATOM     22  C   UNL     1      -1.390  -1.721   0.636  0.00  0.00    +0.027 A 
ATOM     23  C   UNL     1      -0.426  -0.903   1.199  0.00  0.00    +0.043 A 
ENDBRANCH   1  23
TORSDOF 2
