REMARK  Name = ZINC40723057
REMARK  5 active torsions:
REMARK  status: ('A' for Active; 'I' for Inactive)
REMARK    1  A    between atoms: C_6  and  C_7
REMARK    2  A    between atoms: C_7  and  N_8
REMARK    3  A    between atoms: C_10  and  N_23
REMARK    4  A    between atoms: C_11  and  S_15
REMARK    5  A    between atoms: S_15  and  C_16
REMARK                            x       y       z     vdW  Elec       q    Type
REMARK                         _______ _______ _______ _____ _____    ______ ____
ROOT
ATOM      1  N   UNL     1      -1.728  -1.016  -1.367  0.00  0.00    -0.323 N 
ATOM      2  C   UNL     1      -2.905  -1.712  -1.613  0.00  0.00    +0.144 A 
ATOM      3  C   UNL     1      -3.324  -1.956  -2.923  0.00  0.00    +0.097 A 
ATOM      4  C   UNL     1      -4.514  -2.660  -3.114  0.00  0.00    +0.127 A 
ATOM      5  N   UNL     1      -5.200  -3.069  -2.048  0.00  0.00    -0.227 NA
ATOM      6  C   UNL     1      -4.769  -2.817  -0.829  0.00  0.00    +0.224 A 
ATOM      7  N   UNL     1      -3.649  -2.160  -0.605  0.00  0.00    -0.219 NA
ATOM      8  H   UNL     1      -1.192  -0.692  -2.108  0.00  0.00    +0.148 HD
ENDROOT
BRANCH   3   9
ATOM      9  N   UNL     1      -2.568  -1.505  -4.017  0.00  0.00    -0.353 N 
ATOM     10  H   UNL     1      -1.744  -1.017  -3.869  0.00  0.00    +0.142 HD
ATOM     11  H   UNL     1      -2.872  -1.683  -4.921  0.00  0.00    +0.142 HD
ENDBRANCH   3   9
BRANCH   1  12
ATOM     12  C   UNL     1      -1.296  -0.771   0.011  0.00  0.00    +0.138 C 
BRANCH  12  18
ATOM     13  C   UNL     1      -0.016   1.380   0.007  0.00  0.00    +0.006 A 
ATOM     14  C   UNL     1       1.172   2.086   0.000  0.00  0.00    +0.020 A 
ATOM     15  C   UNL     1       2.378   1.408  -0.011  0.00  0.00    +0.041 A 
ATOM     16  C   UNL     1       2.394   0.025  -0.016  0.00  0.00    +0.020 A 
ATOM     17  C   UNL     1       1.205  -0.680  -0.009  0.00  0.00    +0.006 A 
ATOM     18  C   UNL     1       0.000  -0.002   0.003  0.00  0.00    -0.030 A 
ATOM     19 CL   UNL     1       3.872   2.293  -0.021  0.00  0.00    -0.084 Cl
ENDBRANCH  12  18
ENDBRANCH   1  12
BRANCH   4  20
ATOM     20  S   UNL     1      -5.100  -3.002  -4.740  0.00  0.00    -0.068 S 
BRANCH  20  21
ATOM     21  C   UNL     1      -6.515  -4.019  -4.478  0.00  0.00    +0.014 A 
ATOM     22  C   UNL     1      -7.782  -3.451  -4.437  0.00  0.00    +0.016 A 
ATOM     23  C   UNL     1      -8.889  -4.250  -4.232  0.00  0.00    +0.021 A 
ATOM     24  C   UNL     1      -8.738  -5.616  -4.067  0.00  0.00    +0.041 A 
ATOM     25  C   UNL     1      -7.477  -6.185  -4.107  0.00  0.00    +0.021 A 
ATOM     26  C   UNL     1      -6.366  -5.391  -4.317  0.00  0.00    +0.016 A 
ATOM     27 CL   UNL     1     -10.132  -6.617  -3.808  0.00  0.00    -0.084 Cl
ENDBRANCH  20  21
ENDBRANCH   4  20
TORSDOF 5
