REMARK  Name = ZINC63557268
REMARK  11 active torsions:
REMARK  status: ('A' for Active; 'I' for Inactive)
REMARK    1  A    between atoms: C_1  and  C_2
REMARK    2  A    between atoms: C_2  and  O_3
REMARK    3  A    between atoms: O_3  and  C_4
REMARK    4  A    between atoms: C_4  and  C_5
REMARK    5  A    between atoms: C_9  and  N_12
REMARK    6  A    between atoms: C_13  and  C_15
REMARK    7  A    between atoms: N_20  and  C_22
REMARK    8  A    between atoms: C_22  and  C_23
REMARK    9  A    between atoms: C_23  and  C_24
REMARK   10  A    between atoms: C_27  and  O_33
REMARK   11  A    between atoms: O_33  and  C_34
REMARK                            x       y       z     vdW  Elec       q    Type
REMARK                         _______ _______ _______ _____ _____    ______ ____
ROOT
ATOM      1  C   UNL     1      -8.099  -0.040   2.753  0.00  0.00    +0.101 C 
ATOM      2  C   UNL     1      -9.226   0.262   1.738  0.00  0.00    +0.110 C 
ATOM      3  C   UNL     1     -10.263   1.010   2.547  0.00  0.00    +0.216 C 
ATOM      4  O   UNL     1     -11.414   1.185   2.209  0.00  0.00    -0.276 OA
ATOM      5  N   UNL     1      -9.722   1.452   3.696  0.00  0.00    -0.300 N 
ATOM      6  C   UNL     1      -8.306   1.080   3.797  0.00  0.00    +0.121 C 
ENDROOT
BRANCH   1   8
ATOM      7  N   UNL     1      -6.397  -0.778   1.117  0.00  0.00    -0.290 N 
ATOM      8  C   UNL     1      -6.744   0.072   2.103  0.00  0.00    +0.220 C 
ATOM      9  O   UNL     1      -5.965   0.928   2.468  0.00  0.00    -0.275 OA
ATOM     10  H   UNL     1      -7.019  -1.463   0.826  0.00  0.00    +0.151 HD
BRANCH   7  14
ATOM     11  C   UNL     1      -2.905  -2.339   0.017  0.00  0.00    +0.155 C 
ATOM     12  N   UNL     1      -3.637  -1.744  -1.135  0.00  0.00    -0.239 NA
ATOM     13  N   UNL     1      -5.023  -1.440  -0.797  0.00  0.00    -0.226 NA
ATOM     14  C   UNL     1      -5.080  -0.669   0.485  0.00  0.00    +0.217 C 
ATOM     15  S   UNL     1      -3.793  -1.584   1.444  0.00  0.00    -0.099 S 
ATOM     16  H   UNL     1      -3.586  -2.343  -1.945  0.00  0.00    +0.142 HD
ATOM     17  H   UNL     1      -5.474  -0.933  -1.543  0.00  0.00    +0.143 HD
BRANCH  11  18
ATOM     18  C   UNL     1      -1.432  -1.925   0.005  0.00  0.00    +0.190 C 
BRANCH  18  19
ATOM     19  O   UNL     1      -1.339  -0.499   0.012  0.00  0.00    -0.378 OA
BRANCH  19  21
ATOM     20  C   UNL     1      -0.019   1.526   0.010  0.00  0.00    +0.034 C 
ATOM     21  C   UNL     1       0.002  -0.004   0.002  0.00  0.00    +0.156 C 
ENDBRANCH  19  21
ENDBRANCH  18  19
ENDBRANCH  11  18
ENDBRANCH   7  14
ENDBRANCH   1   8
BRANCH   5  22
ATOM     22  C   UNL     1     -10.453   2.208   4.716  0.00  0.00    +0.112 C 
BRANCH  22  23
ATOM     23  C   UNL     1     -11.077   1.237   5.721  0.00  0.00    +0.052 C 
BRANCH  23  24
ATOM     24  C   UNL     1     -11.829   2.014   6.771  0.00  0.00    -0.040 C 
ATOM     25  C   UNL     1     -13.150   2.299   6.780  0.00  0.00    +0.002 A 
ATOM     26  C   UNL     1     -14.243   1.984   5.854  0.00  0.00    +0.055 A 
ATOM     27  C   UNL     1     -15.498   2.413   6.131  0.00  0.00    +0.121 A 
ATOM     28  C   UNL     1     -15.798   3.157   7.286  0.00  0.00    +0.047 A 
ATOM     29  C   UNL     1     -14.861   3.496   8.196  0.00  0.00    +0.029 A 
ATOM     30  C   UNL     1     -13.468   3.083   7.996  0.00  0.00    +0.043 A 
ATOM     31  N   UNL     1     -12.387   3.275   8.709  0.00  0.00    -0.380 N 
ATOM     32  C   UNL     1     -11.258   2.629   8.029  0.00  0.00    +0.144 C 
ATOM     33  H   UNL     1     -12.340   3.760   9.548  0.00  0.00    +0.160 HD
BRANCH  27  34
ATOM     34  O   UNL     1     -16.500   2.114   5.264  0.00  0.00    -0.495 OA
ATOM     35  C   UNL     1     -17.808   2.586   5.595  0.00  0.00    +0.277 C 
ENDBRANCH  27  34
ENDBRANCH  23  24
ENDBRANCH  22  23
ENDBRANCH   5  22
TORSDOF 9
