REMARK  Name = ZINC06232661
REMARK  7 active torsions:
REMARK  status: ('A' for Active; 'I' for Inactive)
REMARK    1  A    between atoms: C_1  and  C_2
REMARK    2  A    between atoms: C_2  and  C_33
REMARK    3  A    between atoms: C_9  and  C_21
REMARK    4  A    between atoms: C_17  and  C_19
REMARK    5  A    between atoms: C_17  and  C_20
REMARK    6  A    between atoms: N_23  and  N_24
REMARK    7  A    between atoms: C_25  and  C_26
REMARK                            x       y       z     vdW  Elec       q    Type
REMARK                         _______ _______ _______ _____ _____    ______ ____
ROOT
ATOM      1  C   UNL     1       8.080   7.052  -3.049  0.00  0.00    +0.074 C 
ATOM      2  C   UNL     1       7.343   8.329  -2.640  0.00  0.00    +0.166 C 
ATOM      3  O   UNL     1       6.158   8.478  -3.436  0.00  0.00    -0.341 OA
ATOM      4  C   UNL     1       5.033   8.510  -2.525  0.00  0.00    +0.187 C 
ATOM      5  C   UNL     1       5.602   7.778  -1.285  0.00  0.00    +0.191 C 
ATOM      6  O   UNL     1       6.963   8.245  -1.254  0.00  0.00    -0.340 OA
ATOM      7  C   UNL     1       4.865   8.078  -0.001  0.00  0.00    +0.240 C 
ATOM      8  O   UNL     1       4.566   9.471   0.173  0.00  0.00    -0.333 OA
ATOM      9  C   UNL     1       3.827   9.966  -0.925  0.00  0.00    +0.286 C 
ATOM     10  C   UNL     1       4.796   9.961  -2.139  0.00  0.00    +0.209 C 
ATOM     11  O   UNL     1       4.068  10.751  -3.084  0.00  0.00    -0.338 OA
ATOM     12  C   UNL     1       3.499  11.806  -2.269  0.00  0.00    +0.168 C 
ATOM     13  O   UNL     1       3.391  11.328  -0.909  0.00  0.00    -0.318 OA
ATOM     14  C   UNL     1       4.408  13.037  -2.311  0.00  0.00    +0.074 C 
ATOM     15  C   UNL     1       2.111  12.173  -2.796  0.00  0.00    +0.074 C 
ATOM     16  C   UNL     1       8.258   9.537  -2.850  0.00  0.00    +0.074 C 
ENDROOT
BRANCH   7  17
ATOM     17  C   UNL     1       3.573   7.302   0.007  0.00  0.00    +0.264 C 
ATOM     18  O   UNL     1       2.512   7.891   0.019  0.00  0.00    -0.271 OA
ATOM     19  N   UNL     1       3.596   5.955  -0.000  0.00  0.00    -0.205 N 
ATOM     20  H   UNL     1       4.444   5.484  -0.010  0.00  0.00    +0.177 HD
BRANCH  19  21
ATOM     21  N   UNL     1       2.395   5.233   0.007  0.00  0.00    -0.188 NA
ATOM     22  C   UNL     1       2.417   3.936   0.000  0.00  0.00    +0.138 C 
BRANCH  22  23
ATOM     23  C   UNL     1       1.153   3.177   0.008  0.00  0.00    -0.004 A 
ATOM     24  C   UNL     1       1.173   1.780   0.000  0.00  0.00    +0.009 A 
ATOM     25  C   UNL     1      -0.013   1.076   0.008  0.00  0.00    +0.002 A 
ATOM     26  C   UNL     1      -1.221   1.750   0.017  0.00  0.00    +0.015 A 
ATOM     27  C   UNL     1      -1.249   3.134   0.030  0.00  0.00    +0.018 A 
ATOM     28  C   UNL     1      -0.070   3.851   0.022  0.00  0.00    +0.024 A 
ATOM     29 BR   UNL     1      -2.907   4.043   0.050  0.00  0.00    -0.050 Br
ENDBRANCH  22  23
ENDBRANCH  19  21
ENDBRANCH   7  17
TORSDOF 3
