REMARK  Name = ZINC14013598
REMARK  6 active torsions:
REMARK  status: ('A' for Active; 'I' for Inactive)
REMARK    1  A    between atoms: C_1  and  C_2
REMARK    2  A    between atoms: C_5  and  N_9
REMARK    3  A    between atoms: C_7  and  C_8
REMARK    4  A    between atoms: C_21  and  C_23
REMARK    5  A    between atoms: C_23  and  C_24
REMARK    6  A    between atoms: C_29  and  C_32
REMARK                            x       y       z     vdW  Elec       q    Type
REMARK                         _______ _______ _______ _____ _____    ______ ____
ROOT
ATOM      1  N   UNL     1      -2.718   4.057   0.462  0.00  0.00    -0.214 N 
ATOM      2  C   UNL     1      -3.779   3.614  -0.267  0.00  0.00    +0.171 A 
ATOM      3  C   UNL     1      -4.836   4.509  -0.031  0.00  0.00    +0.103 A 
ATOM      4  C   UNL     1      -4.353   5.490   0.861  0.00  0.00    +0.150 A 
ATOM      5  N   UNL     1      -3.112   5.213   1.149  0.00  0.00    -0.172 NA
ATOM      6  C   UNL     1      -6.074   4.285  -0.671  0.00  0.00    +0.266 A 
ATOM      7  O   UNL     1      -7.005   5.048  -0.482  0.00  0.00    -0.267 OA
ATOM      8  N   UNL     1      -6.226   3.206  -1.506  0.00  0.00    -0.283 N 
ATOM      9  C   UNL     1      -5.146   2.388  -1.677  0.00  0.00    +0.174 A 
ATOM     10  N   UNL     1      -3.986   2.581  -1.089  0.00  0.00    -0.203 NA
ATOM     11  S   UNL     1      -5.650   1.100  -2.798  0.00  0.00    -0.085 S 
ATOM     12  C   UNL     1      -7.380   1.622  -3.092  0.00  0.00    +0.103 C 
ATOM     13  C   UNL     1      -7.462   2.881  -2.218  0.00  0.00    +0.112 C 
ENDROOT
BRANCH   1  18
ATOM     14  C   UNL     1       2.406   1.630   0.697  0.00  0.00    +0.044 C 
ATOM     15  C   UNL     1       1.045   2.275   0.634  0.00  0.00    -0.047 A 
ATOM     16  C   UNL     1      -0.087   1.488   0.519  0.00  0.00    +0.006 A 
ATOM     17  C   UNL     1      -1.335   2.076   0.455  0.00  0.00    +0.028 A 
ATOM     18  C   UNL     1      -1.453   3.458   0.520  0.00  0.00    +0.068 A 
ATOM     19  C   UNL     1      -0.315   4.245   0.636  0.00  0.00    +0.031 A 
ATOM     20  C   UNL     1       0.930   3.651   0.692  0.00  0.00    -0.046 A 
ATOM     21  C   UNL     1       2.166   4.505   0.818  0.00  0.00    +0.044 C 
ENDBRANCH   1  18
BRANCH  13  22
ATOM     22  C   UNL     1      -7.832   4.066  -3.112  0.00  0.00    +0.122 C 
BRANCH  22  23
ATOM     23  C   UNL     1      -9.179   3.818  -3.741  0.00  0.00    +0.218 C 
ATOM     24  O   UNL     1      -9.831   2.849  -3.416  0.00  0.00    -0.276 OA
ATOM     25  N   UNL     1      -9.658   4.674  -4.666  0.00  0.00    -0.301 N 
ATOM     26  C   UNL     1      -8.882   5.856  -5.066  0.00  0.00    +0.108 C 
ATOM     27  C   UNL     1      -9.753   7.101  -4.907  0.00  0.00    +0.032 C 
ATOM     28  C   UNL     1     -11.057   6.911  -5.686  0.00  0.00    +0.078 C 
ATOM     29  C   UNL     1     -11.820   5.710  -5.122  0.00  0.00    +0.032 C 
ATOM     30  C   UNL     1     -10.970   4.447  -5.288  0.00  0.00    +0.108 C 
BRANCH  28  31
ATOM     31  C   UNL     1     -11.904   8.150  -5.555  0.00  0.00    +0.214 C 
ATOM     32  O   UNL     1     -13.009   8.080  -5.060  0.00  0.00    -0.276 OA
ATOM     33  N   UNL     1     -11.434   9.337  -5.989  0.00  0.00    -0.329 N 
ATOM     34  H   UNL     1     -10.550   9.393  -6.384  0.00  0.00    +0.145 HD
ATOM     35  H   UNL     1     -11.979  10.135  -5.904  0.00  0.00    +0.145 HD
ENDBRANCH  28  31
ENDBRANCH  22  23
ENDBRANCH  13  22
TORSDOF 4
