REMARK  Name = ZINC02163783
REMARK  10 active torsions:
REMARK  status: ('A' for Active; 'I' for Inactive)
REMARK    1  A    between atoms: C_1  and  C_2
REMARK    2  A    between atoms: C_2  and  C_30
REMARK    3  A    between atoms: C_6  and  C_14
REMARK    4  A    between atoms: C_8  and  C_12
REMARK    5  A    between atoms: C_9  and  N_11
REMARK    6  A    between atoms: C_16  and  O_25
REMARK    7  A    between atoms: C_17  and  O_21
REMARK    8  A    between atoms: O_21  and  C_22
REMARK    9  A    between atoms: C_22  and  C_23
REMARK   10  A    between atoms: O_25  and  C_26
REMARK                            x       y       z     vdW  Elec       q    Type
REMARK                         _______ _______ _______ _____ _____    ______ ____
ROOT
ATOM      1  C   UNL     1       1.967   0.322   2.168  0.00  0.00    +0.012 C 
ATOM      2  C   UNL     1       2.367   0.087   0.711  0.00  0.00    -0.021 C 
ATOM      3  C   UNL     1       2.466   1.428  -0.018  0.00  0.00    +0.081 C 
ATOM      4  C   UNL     1       1.123   2.119   0.003  0.00  0.00    +0.115 C 
ATOM      5  C   UNL     1      -0.017   1.404   0.010  0.00  0.00    +0.046 C 
ATOM      6  C   UNL     1      -1.358   2.096   0.033  0.00  0.00    +0.101 C 
ATOM      7  C   UNL     1      -1.198   3.520   0.486  0.00  0.00    +0.098 C 
ATOM      8  C   UNL     1       0.018   4.117   0.453  0.00  0.00    +0.198 C 
ATOM      9  O   UNL     1       1.105   3.465   0.011  0.00  0.00    -0.445 OA
ATOM     10  C   UNL     1       0.002  -0.004   0.002  0.00  0.00    +0.164 C 
ATOM     11  O   UNL     1      -1.048  -0.615  -0.016  0.00  0.00    -0.292 OA
ATOM     12  C   UNL     1       1.300  -0.766   0.015  0.00  0.00    +0.086 C 
ATOM     13  C   UNL     1       3.715  -0.634   0.657  0.00  0.00    +0.012 C 
ENDROOT
BRANCH   6  14
ATOM     14  C   UNL     1      -1.953   2.080  -1.352  0.00  0.00    -0.030 A 
ATOM     15  C   UNL     1      -3.167   1.457  -1.574  0.00  0.00    +0.054 A 
ATOM     16  C   UNL     1      -3.718   1.446  -2.845  0.00  0.00    +0.163 A 
ATOM     17  C   UNL     1      -3.042   2.053  -3.899  0.00  0.00    +0.177 A 
ATOM     18  C   UNL     1      -1.823   2.672  -3.671  0.00  0.00    +0.063 A 
ATOM     19  C   UNL     1      -1.281   2.684  -2.398  0.00  0.00    +0.023 A 
ATOM     20 BR   UNL     1      -0.900   3.499  -5.099  0.00  0.00    -0.046 Br
BRANCH  16  21
ATOM     21  O   UNL     1      -4.915   0.838  -3.064  0.00  0.00    -0.491 OA
ATOM     22  C   UNL     1      -5.552   0.236  -1.935  0.00  0.00    +0.277 C 
ENDBRANCH  16  21
BRANCH  17  23
ATOM     23  O   UNL     1      -3.576   2.041  -5.149  0.00  0.00    -0.475 OA
BRANCH  23  24
ATOM     24  C   UNL     1      -3.230   0.940  -5.992  0.00  0.00    +0.317 C 
BRANCH  24  25
ATOM     25  C   UNL     1      -3.895   1.092  -7.296  0.00  0.00    -0.065 C 
ATOM     26  C   UNL     1      -4.425   1.213  -8.337  0.00  0.00    +0.007 C 
ENDBRANCH  24  25
ENDBRANCH  23  24
ENDBRANCH  17  23
ENDBRANCH   6  14
BRANCH   8  27
ATOM     27  N   UNL     1       0.141   5.415   0.881  0.00  0.00    -0.328 N 
ATOM     28  H   UNL     1       1.007   5.853   0.862  0.00  0.00    +0.145 HD
ATOM     29  H   UNL     1      -0.638   5.896   1.202  0.00  0.00    +0.145 HD
ENDBRANCH   8  27
BRANCH   7  30
ATOM     30  C   UNL     1      -2.336   4.248   0.959  0.00  0.00    +0.101 C 
ATOM     31  N   UNL     1      -3.239   4.827   1.333  0.00  0.00    -0.191 NA
ENDBRANCH   7  30
TORSDOF 7
