REMARK  Name = ZINC07192602
REMARK  5 active torsions:
REMARK  status: ('A' for Active; 'I' for Inactive)
REMARK    1  A    between atoms: C_1  and  C_2
REMARK    2  A    between atoms: C_5  and  S_7
REMARK    3  A    between atoms: S_7  and  C_8
REMARK    4  A    between atoms: C_8  and  C_9
REMARK    5  A    between atoms: N_14  and  C_15
REMARK                            x       y       z     vdW  Elec       q    Type
REMARK                         _______ _______ _______ _____ _____    ______ ____
ROOT
ATOM      1  C   UNL     1       0.091  -6.720  -0.470  0.00  0.00    +0.231 C 
ATOM      2  O   UNL     1       0.100  -7.130   0.671  0.00  0.00    -0.274 OA
ATOM      3  N   UNL     1       0.099  -7.591  -1.498  0.00  0.00    -0.239 N 
ATOM      4  C   UNL     1       0.117  -8.917  -1.258  0.00  0.00    +0.306 C 
ATOM      5  O   UNL     1       0.127  -9.328  -0.115  0.00  0.00    -0.252 OA
ATOM      6  N   UNL     1       0.126  -9.788  -2.287  0.00  0.00    -0.294 N 
ATOM      7  H   UNL     1       0.091  -7.263  -2.411  0.00  0.00    +0.159 HD
ATOM      8  H   UNL     1       0.118  -9.460  -3.200  0.00  0.00    +0.151 HD
ENDROOT
BRANCH   6   9
ATOM      9  C   UNL     1       0.146 -11.229  -2.027  0.00  0.00    +0.037 C 
ATOM     10  C   UNL     1       1.403 -11.586  -1.230  0.00  0.00    +0.029 C 
ATOM     11  C   UNL     1       1.424 -13.092  -0.958  0.00  0.00    -0.008 C 
ATOM     12  C   UNL     1       1.429 -13.850  -2.287  0.00  0.00    +0.007 C 
ATOM     13  C   UNL     1       0.172 -13.493  -3.083  0.00  0.00    -0.008 C 
ATOM     14  C   UNL     1       0.151 -11.988  -3.355  0.00  0.00    +0.029 C 
ATOM     15  C   UNL     1      -1.069 -13.883  -2.279  0.00  0.00    +0.007 C 
ATOM     16  C   UNL     1      -1.075 -13.125  -0.950  0.00  0.00    -0.008 C 
ATOM     17  C   UNL     1       0.182 -13.482  -0.154  0.00  0.00    +0.007 C 
ATOM     18  C   UNL     1      -1.096 -11.620  -1.222  0.00  0.00    +0.029 C 
ENDBRANCH   6   9
BRANCH   1  19
ATOM     19  C   UNL     1       0.070  -5.237  -0.738  0.00  0.00    +0.172 C 
BRANCH  19  20
ATOM     20  S   UNL     1       0.064  -4.338   0.838  0.00  0.00    -0.088 S 
BRANCH  20  25
ATOM     21  C   UNL     1      -0.018   1.503   0.010  0.00  0.00    +0.075 C 
ATOM     22  C   UNL     1       0.002  -0.004   0.002  0.00  0.00    +0.100 A 
ATOM     23  N   UNL     1       0.010  -0.845  -1.012  0.00  0.00    -0.146 NA
ATOM     24  N   UNL     1       0.027  -2.095  -0.849  0.00  0.00    -0.135 NA
ATOM     25  C   UNL     1       0.039  -2.642   0.360  0.00  0.00    +0.159 A 
ATOM     26  S   UNL     1       0.031  -1.162   1.368  0.00  0.00    -0.044 S 
ENDBRANCH  20  25
ENDBRANCH  19  20
ENDBRANCH   1  19
TORSDOF 4
