REMARK  Name = ZINC02348168
REMARK  12 active torsions:
REMARK  status: ('A' for Active; 'I' for Inactive)
REMARK    1  A    between atoms: C_1  and  C_2
REMARK    2  A    between atoms: C_2  and  N_3
REMARK    3  A    between atoms: N_3  and  C_4
REMARK    4  A    between atoms: N_3  and  C_6
REMARK    5  A    between atoms: C_4  and  C_5
REMARK    6  A    between atoms: C_6  and  C_7
REMARK    7  A    between atoms: C_8  and  C_18
REMARK    8  A    between atoms: N_20  and  N_21
REMARK    9  A    between atoms: C_22  and  C_23
REMARK   10  A    between atoms: C_27  and  O_29
REMARK   11  A    between atoms: O_29  and  C_30
REMARK   12  A    between atoms: C_30  and  C_31
REMARK                            x       y       z     vdW  Elec       q    Type
REMARK                         _______ _______ _______ _____ _____    ______ ____
ROOT
ATOM      1  C   UNL     1       0.523   1.393   2.602  0.00  0.00    +0.285 C 
ATOM      2  O   UNL     1       0.982   0.337   2.211  0.00  0.00    -0.267 OA
ATOM      3  N   UNL     1       1.341   2.342   3.098  0.00  0.00    -0.202 N 
ATOM      4  H   UNL     1       0.975   3.184   3.410  0.00  0.00    +0.178 HD
ENDROOT
BRANCH   1   6
ATOM      5  C   UNL     1      -1.864   0.760   2.055  0.00  0.00    +0.063 A 
ATOM      6  C   UNL     1      -0.931   1.635   2.534  0.00  0.00    +0.170 A 
ATOM      7  N   UNL     1      -1.560   2.754   2.932  0.00  0.00    -0.124 NA
ATOM      8  N   UNL     1      -2.826   2.631   2.732  0.00  0.00    -0.058 NA
ATOM      9  N   UNL     1      -3.065   1.371   2.167  0.00  0.00    -0.194 N 
ATOM     10  C   UNL     1      -4.307   0.845   1.792  0.00  0.00    +0.240 A 
ATOM     11  C   UNL     1      -5.599   1.526   1.916  0.00  0.00    +0.206 A 
ATOM     12  N   UNL     1      -6.527   0.727   1.466  0.00  0.00    -0.032 NA
ATOM     13  O   UNL     1      -5.902  -0.471   1.043  0.00  0.00    -0.239 OA
ATOM     14  N   UNL     1      -4.511  -0.331   1.269  0.00  0.00    -0.027 NA
ATOM     15  N   UNL     1      -5.800   2.803   2.426  0.00  0.00    -0.337 N 
ATOM     16  H   UNL     1      -5.045   3.325   2.739  0.00  0.00    +0.144 HD
ATOM     17  H   UNL     1      -6.696   3.173   2.469  0.00  0.00    +0.144 HD
BRANCH   5  18
ATOM     18  C   UNL     1      -1.605  -0.618   1.503  0.00  0.00    -0.020 C 
BRANCH  18  19
ATOM     19  N   UNL     1      -1.101  -0.508   0.128  0.00  0.00    +0.383 N 
ATOM     20  H   UNL     1      -0.300   0.106   0.111  0.00  0.00    -0.081 HD
BRANCH  19  22
ATOM     21  C   UNL     1       0.478  -2.350   0.460  0.00  0.00    -0.017 C 
ATOM     22  C   UNL     1      -0.709  -1.838  -0.358  0.00  0.00    -0.082 C 
ENDBRANCH  19  22
BRANCH  19  23
ATOM     23  C   UNL     1      -2.155   0.039  -0.737  0.00  0.00    -0.082 C 
ATOM     24  C   UNL     1      -2.159   1.565  -0.634  0.00  0.00    -0.017 C 
ENDBRANCH  19  23
ENDBRANCH  18  19
ENDBRANCH   5  18
ENDBRANCH   1   6
BRANCH   3  25
ATOM     25  N   UNL     1       2.722   2.112   3.163  0.00  0.00    -0.187 NA
ATOM     26  C   UNL     1       3.510   3.026   3.641  0.00  0.00    +0.138 C 
BRANCH  26  27
ATOM     27  C   UNL     1       4.963   2.784   3.709  0.00  0.00    -0.002 A 
ATOM     28  C   UNL     1       5.495   1.574   3.255  0.00  0.00    +0.010 A 
ATOM     29  C   UNL     1       6.854   1.351   3.320  0.00  0.00    +0.004 A 
ATOM     30  C   UNL     1       7.695   2.322   3.834  0.00  0.00    +0.046 A 
ATOM     31  C   UNL     1       7.176   3.527   4.288  0.00  0.00    +0.122 A 
ATOM     32  C   UNL     1       5.813   3.764   4.222  0.00  0.00    +0.055 A 
BRANCH  31  33
ATOM     33  O   UNL     1       8.007   4.477   4.793  0.00  0.00    -0.487 OA
BRANCH  33  34
ATOM     34  C   UNL     1       9.402   4.168   4.826  0.00  0.00    +0.264 C 
BRANCH  34  35
ATOM     35  C   UNL     1      10.160   5.330   5.413  0.00  0.00    -0.010 A 
ATOM     36  C   UNL     1      10.632   6.334   4.588  0.00  0.00    +0.010 A 
ATOM     37  C   UNL     1      11.328   7.401   5.125  0.00  0.00    +0.039 A 
ATOM     38  C   UNL     1      11.551   7.464   6.490  0.00  0.00    +0.123 A 
ATOM     39  C   UNL     1      11.078   6.458   7.315  0.00  0.00    +0.039 A 
ATOM     40  C   UNL     1      10.378   5.395   6.776  0.00  0.00    +0.010 A 
ATOM     41  F   UNL     1      12.231   8.506   7.016  0.00  0.00    -0.205 F 
ENDBRANCH  34  35
ENDBRANCH  33  34
ENDBRANCH  31  33
ENDBRANCH  26  27
ENDBRANCH   3  25
TORSDOF 10
