REMARK  Name = ZINC34374847
REMARK  14 active torsions:
REMARK  status: ('A' for Active; 'I' for Inactive)
REMARK    1  A    between atoms: C_1  and  C_2
REMARK    2  A    between atoms: C_4  and  O_39
REMARK    3  A    between atoms: C_6  and  O_35
REMARK    4  A    between atoms: C_8  and  O_34
REMARK    5  A    between atoms: C_10  and  O_13
REMARK    6  A    between atoms: O_13  and  C_14
REMARK    7  A    between atoms: C_18  and  O_33
REMARK    8  A    between atoms: C_20  and  O_32
REMARK    9  A    between atoms: C_24  and  C_25
REMARK   10  A    between atoms: C_28  and  O_31
REMARK   11  A    between atoms: O_35  and  C_36
REMARK   12  A    between atoms: C_36  and  C_38
REMARK   13  A    between atoms: O_39  and  C_40
REMARK   14  A    between atoms: C_40  and  C_42
REMARK                            x       y       z     vdW  Elec       q    Type
REMARK                         _______ _______ _______ _____ _____    ______ ____
ROOT
ATOM      1  C   UNL     1       2.844  -1.943   2.395  0.00  0.00    +0.214 A 
ATOM      2  C   UNL     1       3.703  -2.505   1.415  0.00  0.00    +0.238 A 
ATOM      3  O   UNL     1       3.266  -3.208   0.518  0.00  0.00    -0.283 OA
ATOM      4  C   UNL     1       5.140  -2.207   1.522  0.00  0.00    +0.109 A 
ATOM      5  C   UNL     1       6.059  -2.719   0.598  0.00  0.00    +0.135 A 
ATOM      6  C   UNL     1       7.401  -2.416   0.732  0.00  0.00    +0.091 A 
ATOM      7  C   UNL     1       7.833  -1.607   1.778  0.00  0.00    +0.124 A 
ATOM      8  C   UNL     1       6.930  -1.097   2.697  0.00  0.00    +0.092 A 
ATOM      9  C   UNL     1       5.579  -1.389   2.579  0.00  0.00    +0.147 A 
ATOM     10  O   UNL     1       4.687  -0.899   3.464  0.00  0.00    -0.451 OA
ATOM     11  C   UNL     1       3.371  -1.158   3.377  0.00  0.00    +0.181 A 
ENDROOT
BRANCH  11  12
ATOM     12  C   UNL     1       2.465  -0.577   4.385  0.00  0.00    +0.021 A 
ATOM     13  C   UNL     1       1.513  -1.381   5.019  0.00  0.00    +0.015 A 
ATOM     14  C   UNL     1       0.669  -0.834   5.959  0.00  0.00    +0.046 A 
ATOM     15  C   UNL     1       0.762   0.515   6.278  0.00  0.00    +0.117 A 
ATOM     16  C   UNL     1       1.706   1.318   5.651  0.00  0.00    +0.046 A 
ATOM     17  C   UNL     1       2.558   0.778   4.713  0.00  0.00    +0.015 A 
BRANCH  15  18
ATOM     18  O   UNL     1      -0.073   1.050   7.206  0.00  0.00    -0.507 OA
ATOM     19  H   UNL     1       0.269   1.015   8.110  0.00  0.00    +0.292 HD
ENDBRANCH  15  18
ENDBRANCH  11  12
BRANCH   7  20
ATOM     20  O   UNL     1       9.154  -1.316   1.901  0.00  0.00    -0.507 OA
ATOM     21  H   UNL     1       9.425  -0.516   1.430  0.00  0.00    +0.292 HD
ENDBRANCH   7  20
BRANCH   5  22
ATOM     22  O   UNL     1       5.636  -3.509  -0.422  0.00  0.00    -0.506 OA
ATOM     23  H   UNL     1       5.402  -3.023  -1.224  0.00  0.00    +0.292 HD
ENDBRANCH   5  22
BRANCH   1  24
ATOM     24  O   UNL     1       1.505  -2.180   2.352  0.00  0.00    -0.453 OA
BRANCH  24  30
ATOM     25  C   UNL     1       0.069   1.937   0.484  0.00  0.00    +0.042 C 
ATOM     26  C   UNL     1       0.048   0.422   0.271  0.00  0.00    +0.164 C 
ATOM     27  C   UNL     1      -1.403  -0.065   0.218  0.00  0.00    +0.248 C 
ATOM     28  C   UNL     1      -1.415  -1.589   0.066  0.00  0.00    +0.254 C 
ATOM     29  C   UNL     1      -0.634  -2.214   1.225  0.00  0.00    +0.227 C 
ATOM     30  C   UNL     1       0.787  -1.644   1.239  0.00  0.00    +0.341 C 
ATOM     31  O   UNL     1       0.726  -0.221   1.352  0.00  0.00    -0.333 OA
BRANCH  29  32
ATOM     32  O   UNL     1      -1.285  -1.908   2.460  0.00  0.00    -0.382 OA
ATOM     33  H   UNL     1      -0.843  -2.274   3.239  0.00  0.00    +0.210 HD
ENDBRANCH  29  32
BRANCH  28  34
ATOM     34  O   UNL     1      -2.764  -2.061   0.087  0.00  0.00    -0.455 OA
BRANCH  34  35
ATOM     35  C   UNL     1      -3.032  -3.174  -0.614  0.00  0.00    +0.304 C 
ATOM     36  O   UNL     1      -2.150  -3.730  -1.225  0.00  0.00    -0.251 OA
ATOM     37  C   UNL     1      -4.432  -3.731  -0.638  0.00  0.00    +0.136 C 
ENDBRANCH  34  35
ENDBRANCH  28  34
BRANCH  27  38
ATOM     38  O   UNL     1      -2.067   0.533  -0.896  0.00  0.00    -0.455 OA
BRANCH  38  39
ATOM     39  C   UNL     1      -2.684   1.706  -0.679  0.00  0.00    +0.304 C 
ATOM     40  O   UNL     1      -2.661   2.207   0.420  0.00  0.00    -0.251 OA
ATOM     41  C   UNL     1      -3.407   2.397  -1.807  0.00  0.00    +0.136 C 
ENDBRANCH  38  39
ENDBRANCH  27  38
ENDBRANCH  24  30
ENDBRANCH   1  24
TORSDOF 11
