REMARK  Name = ZINC09608852
REMARK  12 active torsions:
REMARK  status: ('A' for Active; 'I' for Inactive)
REMARK    1  A    between atoms: C_1  and  C_2
REMARK    2  A    between atoms: C_5  and  C_9
REMARK    3  A    between atoms: C_6  and  C_8
REMARK    4  A    between atoms: C_9  and  S_10
REMARK    5  A    between atoms: S_10  and  C_11
REMARK    6  A    between atoms: C_22  and  C_24
REMARK    7  A    between atoms: C_27  and  O_32
REMARK    8  A    between atoms: C_28  and  O_30
REMARK    9  A    between atoms: O_30  and  C_31
REMARK   10  A    between atoms: O_32  and  C_33
REMARK   11  A    between atoms: C_37  and  C_39
REMARK   12  A    between atoms: C_37  and  C_40
REMARK                            x       y       z     vdW  Elec       q    Type
REMARK                         _______ _______ _______ _____ _____    ______ ____
ROOT
ATOM      1  C   UNL     1      -4.519  -0.226   1.439  0.00  0.00    +0.171 A 
ATOM      2  N   UNL     1      -5.244  -0.673   2.502  0.00  0.00    -0.302 N 
ATOM      3  H   UNL     1      -4.936  -0.502   3.405  0.00  0.00    +0.171 HD
ATOM      4  C   UNL     1      -6.394  -1.351   2.300  0.00  0.00    +0.258 A 
ATOM      5  O   UNL     1      -7.055  -1.750   3.245  0.00  0.00    -0.267 OA
ATOM      6  C   UNL     1      -6.813  -1.591   0.986  0.00  0.00    +0.069 A 
ATOM      7  C   UNL     1      -6.037  -1.118  -0.059  0.00  0.00    +0.135 A 
ATOM      8  N   UNL     1      -4.909  -0.448   0.200  0.00  0.00    -0.208 NA
ATOM      9  N   UNL     1      -6.436  -1.340  -1.362  0.00  0.00    -0.302 N 
ATOM     10  C   UNL     1      -7.735  -1.662  -1.649  0.00  0.00    +0.017 C 
ATOM     11  C   UNL     1      -8.560  -2.137  -0.693  0.00  0.00    +0.024 C 
ATOM     12  C   UNL     1      -8.079  -2.349   0.720  0.00  0.00    +0.093 C 
ATOM     13  C   UNL     1      -9.900  -2.450  -0.983  0.00  0.00    +0.162 C 
ATOM     14  O   UNL     1     -10.615  -2.883  -0.101  0.00  0.00    -0.292 OA
ATOM     15  C   UNL     1     -10.465  -2.262  -2.364  0.00  0.00    +0.086 C 
ATOM     16  C   UNL     1      -9.707  -1.129  -3.063  0.00  0.00    -0.023 C 
ATOM     17  C   UNL     1      -8.217  -1.474  -3.067  0.00  0.00    +0.058 C 
ATOM     18  C   UNL     1      -9.930   0.183  -2.307  0.00  0.00    +0.011 C 
ATOM     19  C   UNL     1     -10.207  -0.985  -4.502  0.00  0.00    +0.011 C 
ATOM     20  H   UNL     1      -5.790  -1.267  -2.081  0.00  0.00    +0.153 HD
ENDROOT
BRANCH  12  21
ATOM     21  C   UNL     1      -7.829  -3.819   0.941  0.00  0.00    -0.032 A 
ATOM     22  C   UNL     1      -6.877  -4.478   0.184  0.00  0.00    +0.008 A 
ATOM     23  C   UNL     1      -6.640  -5.824   0.386  0.00  0.00    +0.050 A 
ATOM     24  C   UNL     1      -7.364  -6.520   1.341  0.00  0.00    +0.162 A 
ATOM     25  C   UNL     1      -8.325  -5.858   2.099  0.00  0.00    +0.162 A 
ATOM     26  C   UNL     1      -8.554  -4.507   1.895  0.00  0.00    +0.054 A 
BRANCH  25  27
ATOM     27  O   UNL     1      -9.039  -6.536   3.037  0.00  0.00    -0.491 OA
ATOM     28  C   UNL     1     -10.009  -5.792   3.777  0.00  0.00    +0.277 C 
ENDBRANCH  25  27
BRANCH  24  29
ATOM     29  O   UNL     1      -7.136  -7.846   1.537  0.00  0.00    -0.491 OA
ATOM     30  C   UNL     1      -6.135  -8.459   0.723  0.00  0.00    +0.277 C 
ENDBRANCH  24  29
ENDBRANCH  12  21
BRANCH   1  31
ATOM     31  S   UNL     1      -3.024   0.661   1.726  0.00  0.00    -0.083 S 
BRANCH  31  32
ATOM     32  C   UNL     1      -2.514   0.980   0.019  0.00  0.00    +0.112 C 
BRANCH  32  37
ATOM     33  C   UNL     1       2.451   3.937  -0.001  0.00  0.00    +0.044 C 
ATOM     34  C   UNL     1       1.156   3.166   0.008  0.00  0.00    -0.050 A 
ATOM     35  C   UNL     1       1.175   1.783   0.000  0.00  0.00    +0.003 A 
ATOM     36  C   UNL     1      -0.013   1.076   0.008  0.00  0.00    +0.005 A 
ATOM     37  C   UNL     1      -1.219   1.751   0.017  0.00  0.00    -0.034 A 
ATOM     38  C   UNL     1      -1.238   3.133   0.030  0.00  0.00    -0.046 A 
ATOM     39  C   UNL     1      -0.050   3.840   0.022  0.00  0.00    +0.007 A 
ATOM     40  C   UNL     1      -2.553   3.868   0.045  0.00  0.00    +0.044 C 
ENDBRANCH  32  37
ENDBRANCH  31  32
ENDBRANCH   1  31
TORSDOF 6
