REMARK  Name = ZINC55174889
REMARK  6 active torsions:
REMARK  status: ('A' for Active; 'I' for Inactive)
REMARK    1  A    between atoms: C_3  and  C_6
REMARK    2  A    between atoms: C_6  and  N_7
REMARK    3  A    between atoms: C_13  and  S_14
REMARK    4  A    between atoms: S_14  and  C_15
REMARK    5  A    between atoms: C_15  and  C_16
REMARK    6  A    between atoms: N_19  and  C_22
REMARK                            x       y       z     vdW  Elec       q    Type
REMARK                         _______ _______ _______ _____ _____    ______ ____
ROOT
ATOM      1  N   UNL     1       4.075   0.660   1.260  0.00  0.00    -0.302 N 
ATOM      2  C   UNL     1       4.334   1.830   1.923  0.00  0.00    +0.112 A 
ATOM      3  C   UNL     1       4.643   1.792   3.249  0.00  0.00    +0.069 A 
ATOM      4  C   UNL     1       4.692   0.542   3.900  0.00  0.00    +0.258 A 
ATOM      5  O   UNL     1       4.971   0.478   5.088  0.00  0.00    -0.267 OA
ATOM      6  N   UNL     1       4.431  -0.578   3.207  0.00  0.00    -0.303 N 
ATOM      7  C   UNL     1       4.125  -0.528   1.927  0.00  0.00    +0.152 A 
ATOM      8  C   UNL     1       4.924   3.051   4.022  0.00  0.00    +0.130 C 
ATOM      9  N   UNL     1       5.280   4.143   3.107  0.00  0.00    -0.280 NA
ATOM     10  C   UNL     1       4.273   4.273   2.040  0.00  0.00    +0.191 C 
ATOM     11  N   UNL     1       4.285   3.031   1.252  0.00  0.00    -0.317 N 
ATOM     12  H   UNL     1       4.464  -1.436   3.657  0.00  0.00    +0.171 HD
ATOM     13  H   UNL     1       4.260   3.058   0.283  0.00  0.00    +0.149 HD
ENDROOT
BRANCH   9  14
ATOM     14  C   UNL     1       5.442   5.409   3.835  0.00  0.00    +0.058 C 
ATOM     15  C   UNL     1       5.817   6.539   2.854  0.00  0.00    +0.019 C 
ATOM     16  C   UNL     1       6.822   7.411   3.646  0.00  0.00    +0.002 C 
ATOM     17  C   UNL     1       7.643   6.359   4.432  0.00  0.00    +0.002 C 
ATOM     18  C   UNL     1       6.603   5.295   4.839  0.00  0.00    +0.019 C 
ENDBRANCH   9  14
BRANCH   1  19
ATOM     19  C   UNL     1       3.739   0.685  -0.166  0.00  0.00    +0.199 C 
BRANCH  19  22
ATOM     20  C   UNL     1       0.201   1.640  -0.558  0.00  0.00    +0.041 A 
ATOM     21  C   UNL     1       1.566   1.977  -0.415  0.00  0.00    +0.046 A 
ATOM     22  C   UNL     1       2.247   0.820  -0.327  0.00  0.00    +0.125 A 
ATOM     23  O   UNL     1       1.371  -0.195  -0.408  0.00  0.00    -0.466 OA
ATOM     24  C   UNL     1       0.129   0.296  -0.548  0.00  0.00    +0.195 A 
ENDBRANCH  19  22
ENDBRANCH   1  19
BRANCH   7  25
ATOM     25  S   UNL     1       3.781  -2.023   1.060  0.00  0.00    -0.074 S 
BRANCH  25  26
ATOM     26  C   UNL     1       3.963  -3.314   2.322  0.00  0.00    +0.195 C 
BRANCH  26  27
ATOM     27  C   UNL     1       3.699  -4.630   1.719  0.00  0.00    +0.074 C 
ATOM     28  N   UNL     1       3.495  -5.646   1.253  0.00  0.00    -0.196 NA
ENDBRANCH  26  27
ENDBRANCH  25  26
ENDBRANCH   7  25
TORSDOF 6
