REMARK  Name = ZINC61700510
REMARK  7 active torsions:
REMARK  status: ('A' for Active; 'I' for Inactive)
REMARK    1  A    between atoms: C_1  and  C_2
REMARK    2  A    between atoms: C_2  and  C_4
REMARK    3  A    between atoms: C_2  and  N_22
REMARK    4  A    between atoms: C_7  and  S_11
REMARK    5  A    between atoms: S_11  and  C_12
REMARK    6  A    between atoms: N_18  and  C_19
REMARK    7  A    between atoms: N_22  and  C_23
REMARK                            x       y       z     vdW  Elec       q    Type
REMARK                         _______ _______ _______ _____ _____    ______ ____
ROOT
ATOM      1  C   UNL     1      -1.411  -0.528   0.025  0.00  0.00    -0.061 A 
ATOM      2  C   UNL     1      -2.080  -0.691   1.224  0.00  0.00    +0.003 A 
ATOM      3  C   UNL     1      -3.376  -1.168   1.234  0.00  0.00    +0.016 A 
ATOM      4  C   UNL     1      -4.008  -1.484   0.038  0.00  0.00    +0.030 A 
ATOM      5  C   UNL     1      -3.333  -1.319  -1.166  0.00  0.00    +0.032 A 
ATOM      6  C   UNL     1      -2.038  -0.836  -1.169  0.00  0.00    +0.018 A 
ATOM      7 BR   UNL     1      -4.187  -1.749  -2.797  0.00  0.00    -0.049 Br
ENDROOT
BRANCH   1   9
ATOM      8  C   UNL     1      -0.013   1.515   0.179  0.00  0.00    -0.009 C 
ATOM      9  C   UNL     1       0.003  -0.007   0.018  0.00  0.00    -0.044 C 
BRANCH   9  10
ATOM     10  N   UNL     1       0.752  -0.609   1.129  0.00  0.00    +0.382 N 
ATOM     11  C   UNL     1       2.160  -0.195   1.052  0.00  0.00    -0.100 C 
ATOM     12  H   UNL     1       0.359  -0.302   2.005  0.00  0.00    -0.085 HD
ATOM     13  H   UNL     1       0.694  -1.615   1.068  0.00  0.00    -0.085 HD
ENDBRANCH   9  10
ENDBRANCH   1   9
BRANCH   4  14
ATOM     14  S   UNL     1      -5.661  -2.094   0.047  0.00  0.00    -0.049 S 
BRANCH  14  15
ATOM     15  C   UNL     1      -5.480  -3.821  -0.253  0.00  0.00    +0.197 A 
ATOM     16  N   UNL     1      -4.351  -4.462  -0.339  0.00  0.00    -0.144 NA
ATOM     17  N   UNL     1      -4.636  -5.813  -0.583  0.00  0.00    -0.226 N 
ATOM     18  H   UNL     1      -3.988  -6.526  -0.693  0.00  0.00    +0.194 HD
ATOM     19  C   UNL     1      -5.979  -5.938  -0.637  0.00  0.00    +0.345 A 
ATOM     20  O   UNL     1      -6.598  -6.969  -0.833  0.00  0.00    -0.245 OA
ATOM     21  N   UNL     1      -6.510  -4.717  -0.430  0.00  0.00    -0.267 N 
BRANCH  21  22
ATOM     22  C   UNL     1      -7.940  -4.398  -0.400  0.00  0.00    +0.094 C 
ATOM     23  C   UNL     1      -8.925  -5.568  -0.417  0.00  0.00    +0.027 C 
ATOM     24  C   UNL     1      -8.756  -4.692  -1.661  0.00  0.00    +0.027 C 
ENDBRANCH  21  22
ENDBRANCH  14  15
ENDBRANCH   4  14
TORSDOF 5
