REMARK  Name = ZINC63503276
REMARK  9 active torsions:
REMARK  status: ('A' for Active; 'I' for Inactive)
REMARK    1  A    between atoms: C_1  and  C_2
REMARK    2  A    between atoms: C_9  and  N_12
REMARK    3  A    between atoms: C_13  and  C_15
REMARK    4  A    between atoms: C_15  and  C_17
REMARK    5  A    between atoms: C_15  and  N_27
REMARK    6  A    between atoms: C_17  and  C_18
REMARK    7  A    between atoms: C_28  and  O_30
REMARK    8  A    between atoms: O_30  and  C_31
REMARK    9  A    between atoms: C_31  and  C_32
REMARK                            x       y       z     vdW  Elec       q    Type
REMARK                         _______ _______ _______ _____ _____    ______ ____
ROOT
ATOM      1  C   UNL     1       2.735  -7.250   3.041  0.00  0.00    +0.166 C 
ENDROOT
BRANCH   1   3
ATOM      2  N   UNL     1       1.160  -6.247   1.419  0.00  0.00    -0.287 N 
ATOM      3  C   UNL     1       1.361  -6.778   2.641  0.00  0.00    +0.236 C 
ATOM      4  O   UNL     1       0.436  -6.877   3.419  0.00  0.00    -0.274 OA
ATOM      5  H   UNL     1       1.900  -6.168   0.797  0.00  0.00    +0.151 HD
BRANCH   2  14
ATOM      6  C   UNL     1      -1.473   0.053  -1.422  0.00  0.00    +0.044 C 
ATOM      7  C   UNL     1      -1.141  -1.395  -1.172  0.00  0.00    -0.049 A 
ATOM      8  C   UNL     1      -0.909  -2.255  -2.230  0.00  0.00    +0.005 A 
ATOM      9  C   UNL     1      -0.605  -3.579  -2.016  0.00  0.00    +0.024 A 
ATOM     10  C   UNL     1      -0.519  -4.106  -0.715  0.00  0.00    +0.043 A 
ATOM     11  C   UNL     1      -0.759  -3.212   0.333  0.00  0.00    +0.032 A 
ATOM     12  C   UNL     1      -1.057  -1.885   0.121  0.00  0.00    +0.020 A 
ATOM     13  S   UNL     1      -0.576  -4.176   1.816  0.00  0.00    -0.082 S 
ATOM     14  C   UNL     1      -0.176  -5.788   1.030  0.00  0.00    +0.224 C 
ATOM     15  N   UNL     1      -0.218  -5.428  -0.394  0.00  0.00    -0.316 N 
ATOM     16  H   UNL     1      -0.044  -6.087  -1.084  0.00  0.00    +0.149 HD
ENDBRANCH   2  14
ENDBRANCH   1   3
BRANCH   1  17
ATOM     17  N   UNL     1       2.691  -7.782   4.405  0.00  0.00    -0.270 N 
ATOM     18  C   UNL     1       3.571  -8.729   4.788  0.00  0.00    +0.401 C 
ATOM     19  O   UNL     1       4.401  -9.140   4.002  0.00  0.00    -0.226 OA
ATOM     20  H   UNL     1       2.029  -7.454   5.033  0.00  0.00    +0.153 HD
BRANCH  18  21
ATOM     21  O   UNL     1       3.531  -9.218   6.042  0.00  0.00    -0.446 OA
BRANCH  21  22
ATOM     22  C   UNL     1       4.494 -10.219   6.379  0.00  0.00    +0.269 C 
BRANCH  22  23
ATOM     23  C   UNL     1       4.296 -10.643   7.811  0.00  0.00    -0.010 A 
ATOM     24  C   UNL     1       4.963  -9.981   8.826  0.00  0.00    +0.007 A 
ATOM     25  C   UNL     1       4.782 -10.370  10.140  0.00  0.00    +0.000 A 
ATOM     26  C   UNL     1       3.934 -11.421  10.440  0.00  0.00    +0.000 A 
ATOM     27  C   UNL     1       3.267 -12.081   9.425  0.00  0.00    +0.000 A 
ATOM     28  C   UNL     1       3.445 -11.690   8.111  0.00  0.00    +0.007 A 
ENDBRANCH  22  23
ENDBRANCH  21  22
ENDBRANCH  18  21
ENDBRANCH   1  17
BRANCH   1  29
ATOM     29  C   UNL     1       3.715  -6.076   2.983  0.00  0.00    +0.065 C 
BRANCH  29  30
ATOM     30  C   UNL     1       3.314  -5.037   3.998  0.00  0.00    -0.039 C 
ATOM     31  C   UNL     1       3.784  -4.908   5.260  0.00  0.00    -0.001 A 
ATOM     32  C   UNL     1       4.771  -5.669   6.035  0.00  0.00    +0.010 A 
ATOM     33  C   UNL     1       5.038  -5.293   7.306  0.00  0.00    +0.001 A 
ATOM     34  C   UNL     1       4.397  -4.197   7.900  0.00  0.00    +0.002 A 
ATOM     35  C   UNL     1       3.479  -3.449   7.252  0.00  0.00    +0.026 A 
ATOM     36  C   UNL     1       3.122  -3.755   5.910  0.00  0.00    +0.043 A 
ATOM     37  N   UNL     1       2.275  -3.192   5.082  0.00  0.00    -0.380 N 
ATOM     38  C   UNL     1       2.308  -3.922   3.810  0.00  0.00    +0.144 C 
ATOM     39  H   UNL     1       1.721  -2.420   5.277  0.00  0.00    +0.160 HD
ENDBRANCH  29  30
ENDBRANCH   1  29
TORSDOF 8
