REMARK  Name = ZINC22311486
REMARK  8 active torsions:
REMARK  status: ('A' for Active; 'I' for Inactive)
REMARK    1  A    between atoms: C_1  and  C_2
REMARK    2  A    between atoms: C_2  and  N_3
REMARK    3  A    between atoms: C_7  and  S_26
REMARK    4  A    between atoms: C_11  and  S_12
REMARK    5  A    between atoms: S_12  and  C_13
REMARK    6  A    between atoms: C_13  and  C_14
REMARK    7  A    between atoms: C_19  and  C_25
REMARK    8  A    between atoms: S_26  and  N_29
REMARK                            x       y       z     vdW  Elec       q    Type
REMARK                         _______ _______ _______ _____ _____    ______ ____
ROOT
ATOM      1  N   UNL     1       0.423  -0.300  -0.614  0.00  0.00    -0.319 N 
ATOM      2  C   UNL     1      -0.258  -0.589  -1.785  0.00  0.00    +0.070 A 
ATOM      3  C   UNL     1      -1.584  -0.486  -2.177  0.00  0.00    +0.030 A 
ATOM      4  C   UNL     1      -1.956  -0.867  -3.449  0.00  0.00    +0.030 A 
ATOM      5  C   UNL     1      -1.012  -1.353  -4.341  0.00  0.00    +0.107 A 
ATOM      6  C   UNL     1       0.309  -1.463  -3.970  0.00  0.00    +0.058 A 
ATOM      7  C   UNL     1       0.703  -1.081  -2.685  0.00  0.00    +0.092 A 
ATOM      8  N   UNL     1       1.898  -1.070  -2.039  0.00  0.00    -0.222 NA
ATOM      9  C   UNL     1       1.738  -0.606  -0.824  0.00  0.00    +0.170 A 
ENDROOT
BRANCH   5  10
ATOM     10  S   UNL     1      -1.507  -1.836  -5.962  0.00  0.00    +0.056 S 
ATOM     11  O   UNL     1      -0.538  -2.767  -6.423  0.00  0.00    -0.153 OA
ATOM     12  O   UNL     1      -2.891  -2.150  -5.887  0.00  0.00    -0.153 OA
BRANCH  10  13
ATOM     13  N   UNL     1      -1.377  -0.499  -6.931  0.00  0.00    -0.204 NA
ATOM     14  H   UNL     1      -1.072   0.342  -6.559  0.00  0.00    +0.144 HD
ATOM     15  H   UNL     1      -1.607  -0.558  -7.872  0.00  0.00    +0.144 HD
ENDBRANCH  10  13
ENDBRANCH   5  10
BRANCH   1  17
ATOM     16  C   UNL     1      -0.122   1.769   0.571  0.00  0.00    +0.027 C 
ATOM     17  C   UNL     1      -0.157   0.240   0.618  0.00  0.00    +0.121 C 
ENDBRANCH   1  17
BRANCH   9  18
ATOM     18  S   UNL     1       3.025  -0.412   0.363  0.00  0.00    -0.081 S 
BRANCH  18  19
ATOM     19  C   UNL     1       4.513  -0.982  -0.504  0.00  0.00    +0.133 C 
BRANCH  19  20
ATOM     20  C   UNL     1       5.704  -0.867   0.412  0.00  0.00    +0.059 A 
ATOM     21  C   UNL     1       6.246  -2.001   0.985  0.00  0.00    +0.094 A 
ATOM     22  C   UNL     1       7.352  -1.869   1.832  0.00  0.00    +0.259 A 
ATOM     23  O   UNL     1       7.854  -2.852   2.353  0.00  0.00    -0.267 OA
ATOM     24  N   UNL     1       7.855  -0.637   2.063  0.00  0.00    -0.265 N 
ATOM     25  C   UNL     1       8.931  -0.492   2.885  0.00  0.00    +0.025 A 
ATOM     26  C   UNL     1       9.452   0.731   3.132  0.00  0.00    +0.021 A 
ATOM     27  C   UNL     1       8.887   1.870   2.541  0.00  0.00    +0.005 A 
ATOM     28  C   UNL     1       7.810   1.735   1.717  0.00  0.00    +0.047 A 
ATOM     29  C   UNL     1       7.282   0.454   1.472  0.00  0.00    +0.141 A 
ATOM     30  N   UNL     1       6.233   0.320   0.663  0.00  0.00    -0.233 NA
ATOM     31  C   UNL     1       9.547  -1.708   3.527  0.00  0.00    +0.064 C 
ENDBRANCH  19  20
ENDBRANCH  18  19
ENDBRANCH   9  18
TORSDOF 6
