REMARK  Name = ZINC20352590
REMARK  8 active torsions:
REMARK  status: ('A' for Active; 'I' for Inactive)
REMARK    1  A    between atoms: C_1  and  C_2
REMARK    2  A    between atoms: C_7  and  N_8
REMARK    3  A    between atoms: N_8  and  C_9
REMARK    4  A    between atoms: C_9  and  C_11
REMARK    5  A    between atoms: C_9  and  C_12
REMARK    6  A    between atoms: N_14  and  N_15
REMARK    7  A    between atoms: C_16  and  C_17
REMARK    8  A    between atoms: C_20  and  O_23
REMARK                            x       y       z     vdW  Elec       q    Type
REMARK                         _______ _______ _______ _____ _____    ______ ____
ROOT
ATOM      1  C   UNL     1       2.204   5.591   0.611  0.00  0.00    +0.252 C 
ATOM      2  O   UNL     1       1.103   5.906   1.012  0.00  0.00    -0.272 OA
ATOM      3  N   UNL     1       3.231   6.458   0.709  0.00  0.00    -0.205 N 
ATOM      4  H   UNL     1       4.229   6.172   0.345  0.00  0.00    +0.177 HD
ENDROOT
BRANCH   1   5
ATOM      5  C   UNL     1       2.422   4.230   0.001  0.00  0.00    +0.155 C 
ATOM      6  C   UNL     1       2.912   4.389  -1.440  0.00  0.00    +0.038 C 
BRANCH   5   7
ATOM      7  N   UNL     1       1.162   3.483   0.009  0.00  0.00    -0.333 N 
ATOM      8  H   UNL     1       0.203   4.022   0.021  0.00  0.00    +0.147 HD
BRANCH   7  15
ATOM      9  C   UNL     1      -1.331   2.114   0.020  0.00  0.00    +0.045 C 
ATOM     10  C   UNL     1      -0.017   1.377   0.010  0.00  0.00    -0.029 A 
ATOM     11  C   UNL     1       0.002  -0.004   0.002  0.00  0.00    +0.019 A 
ATOM     12  C   UNL     1       1.208  -0.681  -0.013  0.00  0.00    +0.014 A 
ATOM     13  C   UNL     1       2.400   0.023  -0.021  0.00  0.00    +0.016 A 
ATOM     14  C   UNL     1       2.387   1.404  -0.014  0.00  0.00    +0.024 A 
ATOM     15  C   UNL     1       1.177   2.086   0.002  0.00  0.00    +0.031 A 
ATOM     16  I   UNL     1       1.232  -2.776  -0.025  0.00  0.00    -0.044 I 
ENDBRANCH   7  15
ENDBRANCH   5   7
ENDBRANCH   1   5
BRANCH   3  17
ATOM     17  N   UNL     1       3.028   7.723   1.276  0.00  0.00    -0.188 NA
ATOM     18  C   UNL     1       4.017   8.558   1.371  0.00  0.00    +0.138 C 
BRANCH  18  19
ATOM     19  C   UNL     1       3.803   9.889   1.967  0.00  0.00    -0.005 A 
ATOM     20  C   UNL     1       2.535  10.256   2.425  0.00  0.00    +0.013 A 
ATOM     21  C   UNL     1       2.341  11.500   2.986  0.00  0.00    +0.046 A 
ATOM     22  C   UNL     1       3.401  12.392   3.087  0.00  0.00    +0.117 A 
ATOM     23  C   UNL     1       4.662  12.033   2.628  0.00  0.00    +0.046 A 
ATOM     24  C   UNL     1       4.867  10.789   2.071  0.00  0.00    +0.013 A 
BRANCH  22  25
ATOM     25  O   UNL     1       3.204  13.619   3.635  0.00  0.00    -0.507 OA
ATOM     26  H   UNL     1       4.043  14.326   3.716  0.00  0.00    +0.292 HD
ENDBRANCH  22  25
ENDBRANCH  18  19
ENDBRANCH   3  17
TORSDOF 6
