REMARK  Name = ZINC02375802
REMARK  6 active torsions:
REMARK  status: ('A' for Active; 'I' for Inactive)
REMARK    1  A    between atoms: C_4  and  C_7
REMARK    2  A    between atoms: C_7  and  S_8
REMARK    3  A    between atoms: S_8  and  C_9
REMARK    4  A    between atoms: C_22  and  S_25
REMARK    5  A    between atoms: S_25  and  C_26
REMARK    6  A    between atoms: C_26  and  C_27
REMARK                            x       y       z     vdW  Elec       q    Type
REMARK                         _______ _______ _______ _____ _____    ______ ____
ROOT
ATOM      1  C   UNL     1      -7.002   0.436   0.614  0.00  0.00    +0.178 A 
ATOM      2  N   UNL     1      -6.156   0.750   1.568  0.00  0.00    -0.216 NA
ATOM      3  C   UNL     1      -4.856   0.921   1.336  0.00  0.00    +0.115 A 
ATOM      4  C   UNL     1      -4.297   0.776   0.059  0.00  0.00    +0.056 A 
ATOM      5  C   UNL     1      -2.856   0.994  -0.039  0.00  0.00    -0.024 A 
ATOM      6  C   UNL     1      -2.205   1.312   1.101  0.00  0.00    -0.004 A 
ATOM      7  S   UNL     1      -3.461   1.338   2.352  0.00  0.00    -0.073 S 
ATOM      8  C   UNL     1      -0.738   1.584   1.267  0.00  0.00    +0.043 C 
ATOM      9  C   UNL     1      -0.013   1.086   0.008  0.00  0.00    +0.005 C 
ATOM     10  C   UNL     1      -0.759   1.596  -1.228  0.00  0.00    +0.005 C 
ATOM     11  C   UNL     1      -2.101   0.874  -1.360  0.00  0.00    +0.037 C 
ATOM     12  C   UNL     1      -5.255   0.420  -1.010  0.00  0.00    +0.174 A 
ATOM     13  N   UNL     1      -6.584   0.265  -0.679  0.00  0.00    -0.248 N 
ATOM     14  C   UNL     1      -7.215  -0.056  -1.849  0.00  0.00    +0.198 A 
ATOM     15  N   UNL     1      -6.300  -0.082  -2.790  0.00  0.00    -0.122 NA
ATOM     16  N   UNL     1      -5.144   0.199  -2.296  0.00  0.00    -0.128 NA
ENDROOT
BRANCH   1  17
ATOM     17  S   UNL     1      -8.707   0.229   1.006  0.00  0.00    -0.083 S 
BRANCH  17  18
ATOM     18  C   UNL     1      -8.664   0.565   2.784  0.00  0.00    +0.112 C 
BRANCH  18  22
ATOM     19  C   UNL     1     -12.606   0.218   4.394  0.00  0.00    +0.000 A 
ATOM     20  C   UNL     1     -11.778  -0.888   4.348  0.00  0.00    +0.000 A 
ATOM     21  C   UNL     1     -10.503  -0.776   3.827  0.00  0.00    +0.004 A 
ATOM     22  C   UNL     1     -10.055   0.443   3.352  0.00  0.00    -0.037 A 
ATOM     23  C   UNL     1     -10.881   1.550   3.402  0.00  0.00    +0.004 A 
ATOM     24  C   UNL     1     -12.158   1.436   3.918  0.00  0.00    +0.000 A 
ENDBRANCH  18  22
ENDBRANCH  17  18
ENDBRANCH   1  17
BRANCH  14  25
ATOM     25  S   UNL     1      -8.936  -0.376  -2.056  0.00  0.00    -0.076 S 
BRANCH  25  26
ATOM     26  C   UNL     1      -9.106  -0.733  -3.826  0.00  0.00    +0.172 C 
BRANCH  26  27
ATOM     27  C   UNL     1     -10.550  -1.027  -4.143  0.00  0.00    +0.221 C 
ATOM     28  O   UNL     1     -11.382  -0.999  -3.261  0.00  0.00    -0.275 OA
ATOM     29  N   UNL     1     -10.916  -1.322  -5.406  0.00  0.00    -0.329 N 
ATOM     30  H   UNL     1     -10.251  -1.344  -6.111  0.00  0.00    +0.145 HD
ATOM     31  H   UNL     1     -11.846  -1.511  -5.609  0.00  0.00    +0.145 HD
ENDBRANCH  26  27
ENDBRANCH  25  26
ENDBRANCH  14  25
TORSDOF 6
