REMARK  Name = ZINC12443373
REMARK  8 active torsions:
REMARK  status: ('A' for Active; 'I' for Inactive)
REMARK    1  A    between atoms: C_1  and  C_2
REMARK    2  A    between atoms: C_10  and  C_12
REMARK    3  A    between atoms: C_12  and  N_52
REMARK    4  A    between atoms: C_13  and  N_52
REMARK    5  A    between atoms: C_14  and  N_52
REMARK    6  A    between atoms: N_17  and  S_22
REMARK    7  A    between atoms: C_19  and  O_21
REMARK    8  A    between atoms: S_22  and  C_25
REMARK                            x       y       z     vdW  Elec       q    Type
REMARK                         _______ _______ _______ _____ _____    ______ ____
ROOT
ATOM      1  C   UNL     1      -2.838   2.099  -2.702  0.00  0.00    -0.022 C 
ATOM      2  C   UNL     1      -1.913   1.069  -2.002  0.00  0.00    +0.097 C 
ATOM      3  N   UNL     1      -0.897   1.885  -1.312  0.00  0.00    -0.176 NA
ATOM      4  C   UNL     1      -0.791   3.183  -1.996  0.00  0.00    +0.139 C 
ATOM      5  C   UNL     1      -1.817   3.178  -3.150  0.00  0.00    +0.118 C 
ENDROOT
BRANCH   1   7
ATOM      6  C   UNL     1      -4.159   2.525  -4.686  0.00  0.00    -0.095 C 
ATOM      7  N   UNL     1      -3.490   1.484  -3.877  0.00  0.00    +0.387 N 
ATOM      8  H   UNL     1      -2.776   1.022  -4.452  0.00  0.00    -0.081 HD
BRANCH   7   9
ATOM      9  C   UNL     1      -4.477   0.475  -3.437  0.00  0.00    -0.003 C 
BRANCH   9  19
ATOM     10  C   UNL     1      -4.075  -4.002  -6.864  0.00  0.00    +0.046 C 
ATOM     11  C   UNL     1      -5.099  -2.916  -7.073  0.00  0.00    -0.025 A 
ATOM     12  C   UNL     1      -5.983  -2.992  -8.129  0.00  0.00    +0.005 A 
ATOM     13  C   UNL     1      -6.929  -1.996  -8.327  0.00  0.00    +0.002 A 
ATOM     14  C   UNL     1      -7.001  -0.925  -7.481  0.00  0.00    +0.030 A 
ATOM     15  C   UNL     1      -6.116  -0.828  -6.404  0.00  0.00    +0.089 A 
ATOM     16  C   UNL     1      -5.158  -1.836  -6.203  0.00  0.00    +0.069 A 
ATOM     17  N   UNL     1      -4.441  -1.463  -5.084  0.00  0.00    -0.343 N 
ATOM     18  H   UNL     1      -3.679  -1.964  -4.674  0.00  0.00    +0.167 HD
ATOM     19  C   UNL     1      -4.964  -0.287  -4.642  0.00  0.00    +0.091 A 
ATOM     20  N   UNL     1      -5.941   0.086  -5.415  0.00  0.00    -0.234 NA
ENDBRANCH   9  19
ENDBRANCH   7   9
ENDBRANCH   1   7
BRANCH   3  21
ATOM     21  S   UNL     1      -0.017   1.417   0.010  0.00  0.00    +0.061 S 
ATOM     22  O   UNL     1       0.002  -0.004   0.002  0.00  0.00    -0.153 OA
ATOM     23  O   UNL     1       1.172   2.195   0.003  0.00  0.00    -0.153 OA
BRANCH  21  24
ATOM     24  C   UNL     1      -0.927   1.900   1.439  0.00  0.00    +0.105 A 
ATOM     25  C   UNL     1      -0.717   3.145   2.004  0.00  0.00    +0.028 A 
ATOM     26  C   UNL     1      -1.434   3.526   3.123  0.00  0.00    +0.002 A 
ATOM     27  C   UNL     1      -2.354   2.659   3.683  0.00  0.00    +0.000 A 
ATOM     28  C   UNL     1      -2.559   1.412   3.121  0.00  0.00    +0.002 A 
ATOM     29  C   UNL     1      -1.846   1.033   2.000  0.00  0.00    +0.028 A 
ENDBRANCH  21  24
ENDBRANCH   3  21
BRANCH   5  30
ATOM     30  O   UNL     1      -2.446   4.455  -3.272  0.00  0.00    -0.392 OA
ATOM     31  H   UNL     1      -1.836   5.176  -3.476  0.00  0.00    +0.210 HD
ENDBRANCH   5  30
TORSDOF 6
