REMARK  Name = ZINC04183341
REMARK  4 active torsions:
REMARK  status: ('A' for Active; 'I' for Inactive)
REMARK    1  A    between atoms: C_6  and  C_7
REMARK    2  A    between atoms: C_7  and  N_8
REMARK    3  A    between atoms: C_12  and  C_13
REMARK    4  A    between atoms: C_16  and  C_19
REMARK                            x       y       z     vdW  Elec       q    Type
REMARK                         _______ _______ _______ _____ _____    ______ ____
ROOT
ATOM      1  N   UNL     1      -3.382   2.264   0.090  0.00  0.00    -0.216 N 
ATOM      2  C   UNL     1      -2.546   1.206   0.109  0.00  0.00    +0.269 C 
ATOM      3  O   UNL     1      -2.854   0.032   0.187  0.00  0.00    -0.268 OA
ATOM      4  C   UNL     1      -1.182   1.761   0.020  0.00  0.00    +0.098 C 
ATOM      5  C   UNL     1      -0.013   1.076   0.008  0.00  0.00    +0.036 C 
ATOM      6  N   UNL     1      -1.355   3.147  -0.054  0.00  0.00    -0.265 N 
ATOM      7  C   UNL     1      -2.674   3.400  -0.010  0.00  0.00    +0.313 C 
ATOM      8  O   UNL     1      -3.163   4.513  -0.054  0.00  0.00    -0.252 OA
ATOM      9  H   UNL     1      -0.648   3.808  -0.125  0.00  0.00    +0.157 HD
ENDROOT
BRANCH   5  10
ATOM     10  C   UNL     1       1.265   1.800   0.077  0.00  0.00    -0.023 A 
ATOM     11  C   UNL     1       2.430   1.215  -0.434  0.00  0.00    +0.009 A 
ATOM     12  C   UNL     1       3.615   1.891  -0.375  0.00  0.00    +0.016 A 
ATOM     13  C   UNL     1       3.668   3.162   0.206  0.00  0.00    +0.063 A 
ATOM     14  C   UNL     1       2.506   3.744   0.721  0.00  0.00    +0.016 A 
ATOM     15  C   UNL     1       1.318   3.072   0.658  0.00  0.00    +0.009 A 
BRANCH  13  16
ATOM     16  C   UNL     1       4.951   3.889   0.274  0.00  0.00    +0.387 C 
ATOM     17  O   UNL     1       4.997   4.994   0.778  0.00  0.00    -0.241 OA
ATOM     18  O   UNL     1       6.071   3.329  -0.223  0.00  0.00    -0.241 OA
ENDBRANCH  13  16
ENDBRANCH   5  10
BRANCH   1  19
ATOM     19  C   UNL     1      -4.843   2.185   0.160  0.00  0.00    +0.153 C 
BRANCH  19  25
ATOM     20  C   UNL     1      -5.739   3.216  -1.937  0.00  0.00    +0.006 A 
ATOM     21  C   UNL     1      -6.252   3.114  -3.217  0.00  0.00    +0.020 A 
ATOM     22  C   UNL     1      -6.443   1.869  -3.788  0.00  0.00    +0.041 A 
ATOM     23  C   UNL     1      -6.116   0.726  -3.081  0.00  0.00    +0.020 A 
ATOM     24  C   UNL     1      -5.598   0.829  -1.803  0.00  0.00    +0.006 A 
ATOM     25  C   UNL     1      -5.407   2.074  -1.233  0.00  0.00    -0.029 A 
ATOM     26 CL   UNL     1      -7.093   1.740  -5.393  0.00  0.00    -0.084 Cl
ENDBRANCH  19  25
ENDBRANCH   1  19
TORSDOF 4
