REMARK  Name = ZINC58357050
REMARK  5 active torsions:
REMARK  status: ('A' for Active; 'I' for Inactive)
REMARK    1  A    between atoms: C_6  and  C_7
REMARK    2  A    between atoms: C_7  and  C_13
REMARK    3  A    between atoms: C_13  and  N_14
REMARK    4  A    between atoms: C_15  and  C_17
REMARK    5  A    between atoms: C_20  and  N_22
REMARK                            x       y       z     vdW  Elec       q    Type
REMARK                         _______ _______ _______ _____ _____    ______ ____
ROOT
ATOM      1  C   UNL     1      -1.341  -0.826   0.044  0.00  0.00    +0.016 C 
ATOM      2  C   UNL     1      -1.592  -1.815   1.186  0.00  0.00    +0.041 C 
ATOM      3  C   UNL     1      -3.015  -2.368   1.069  0.00  0.00    +0.160 C 
ATOM      4  O   UNL     1      -3.948  -1.286   1.096  0.00  0.00    -0.380 OA
ATOM      5  C   UNL     1      -3.792  -0.354   0.025  0.00  0.00    +0.160 C 
ATOM      6  C   UNL     1      -2.401   0.280   0.100  0.00  0.00    +0.041 C 
ENDROOT
BRANCH   1  12
ATOM      7  C   UNL     1       0.879  -0.672   1.186  0.00  0.00    +0.008 A 
ATOM      8  C   UNL     1       2.138  -0.118   1.329  0.00  0.00    +0.050 A 
ATOM      9  C   UNL     1       2.550   0.895   0.478  0.00  0.00    +0.166 A 
ATOM     10  C   UNL     1       1.694   1.352  -0.521  0.00  0.00    +0.167 A 
ATOM     11  C   UNL     1       0.434   0.792  -0.658  0.00  0.00    +0.053 A 
ATOM     12  C   UNL     1       0.029  -0.218   0.195  0.00  0.00    -0.036 A 
ATOM     13  O   UNL     1       2.325   2.341  -1.218  0.00  0.00    -0.453 OA
ATOM     14  C   UNL     1       3.416   2.766  -0.380  0.00  0.00    +0.466 C 
ATOM     15  O   UNL     1       3.718   1.598   0.406  0.00  0.00    -0.453 OA
ENDBRANCH   1  12
BRANCH   1  16
ATOM     16  C   UNL     1      -1.433  -1.555  -1.298  0.00  0.00    +0.115 C 
BRANCH  16  17
ATOM     17  N   UNL     1      -0.380  -2.571  -1.374  0.00  0.00    -0.314 N 
ATOM     18  C   UNL     1      -0.242  -3.317  -2.488  0.00  0.00    +0.218 C 
ATOM     19  O   UNL     1      -0.990  -3.147  -3.428  0.00  0.00    -0.275 OA
ATOM     20  H   UNL     1       0.218  -2.707  -0.622  0.00  0.00    +0.149 HD
BRANCH  18  21
ATOM     21  C   UNL     1       0.841  -4.362  -2.566  0.00  0.00    +0.106 C 
ATOM     22  C   UNL     1       0.407  -5.829  -2.581  0.00  0.00    +0.047 C 
ATOM     23  C   UNL     1       0.944  -5.177  -3.857  0.00  0.00    +0.182 C 
BRANCH  23  24
ATOM     24  N   UNL     1      -0.018  -4.881  -4.922  0.00  0.00    +0.026 N 
ATOM     25  O   UNL     1       0.374  -4.513  -6.005  0.00  0.00    -0.131 OA
ATOM     26  O   UNL     1      -1.203  -5.006  -4.719  0.00  0.00    -0.131 OA
ENDBRANCH  23  24
ENDBRANCH  18  21
ENDBRANCH  16  17
ENDBRANCH   1  16
TORSDOF 5
