REMARK  Name = ZINC36383805
REMARK  8 active torsions:
REMARK  status: ('A' for Active; 'I' for Inactive)
REMARK    1  A    between atoms: C_1  and  C_2
REMARK    2  A    between atoms: C_2  and  O_3
REMARK    3  A    between atoms: O_3  and  C_4
REMARK    4  A    between atoms: C_4  and  C_6
REMARK    5  A    between atoms: C_7  and  C_19
REMARK    6  A    between atoms: C_12  and  C_14
REMARK    7  A    between atoms: C_19  and  N_20
REMARK    8  A    between atoms: C_28  and  C_30
REMARK                            x       y       z     vdW  Elec       q    Type
REMARK                         _______ _______ _______ _____ _____    ______ ____
ROOT
ATOM      1  C   UNL     1       1.607  -2.373   2.358  0.00  0.00    +0.082 C 
ATOM      2  C   UNL     1       1.524  -3.690   2.643  0.00  0.00    +0.038 C 
ATOM      3  N   UNL     1       2.058  -4.198   3.792  0.00  0.00    -0.271 N 
ATOM      4  C   UNL     1       2.691  -3.455   4.709  0.00  0.00    +0.304 C 
ATOM      5  O   UNL     1       3.134  -3.998   5.702  0.00  0.00    -0.252 OA
ATOM      6  N   UNL     1       2.853  -2.125   4.566  0.00  0.00    -0.285 N 
ATOM      7  C   UNL     1       2.317  -1.479   3.355  0.00  0.00    +0.179 C 
ATOM      8  H   UNL     1       1.974  -5.151   3.954  0.00  0.00    +0.156 HD
ATOM      9  H   UNL     1       3.314  -1.605   5.242  0.00  0.00    +0.151 HD
ENDROOT
BRANCH   7  10
ATOM     10  C   UNL     1       3.458  -0.801   2.641  0.00  0.00    +0.130 A 
ATOM     11  C   UNL     1       3.452   0.458   2.167  0.00  0.00    +0.047 A 
ATOM     12  C   UNL     1       4.717   0.678   1.576  0.00  0.00    +0.041 A 
ATOM     13  C   UNL     1       5.420  -0.459   1.723  0.00  0.00    +0.195 A 
ATOM     14  O   UNL     1       4.654  -1.350   2.374  0.00  0.00    -0.466 OA
ENDBRANCH   7  10
BRANCH   1  15
ATOM     15  C   UNL     1       1.054  -1.845   1.168  0.00  0.00    +0.339 C 
ATOM     16  O   UNL     1       0.605  -2.595   0.321  0.00  0.00    -0.245 OA
BRANCH  15  17
ATOM     17  O   UNL     1       1.025  -0.510   0.971  0.00  0.00    -0.462 OA
BRANCH  17  19
ATOM     18  C   UNL     1       0.507   1.481  -0.297  0.00  0.00    +0.048 C 
ATOM     19  C   UNL     1       0.452  -0.048  -0.254  0.00  0.00    +0.229 C 
ENDBRANCH  17  19
ENDBRANCH  15  17
ENDBRANCH   1  15
BRANCH   2  20
ATOM     20  C   UNL     1       0.830  -4.615   1.676  0.00  0.00    +0.136 C 
BRANCH  20  21
ATOM     21  N   UNL     1       0.373  -5.815   2.388  0.00  0.00    -0.285 NA
ATOM     22  C   UNL     1      -0.740  -5.498   3.294  0.00  0.00    +0.091 C 
ATOM     23  C   UNL     1      -0.907  -6.651   4.298  0.00  0.00    +0.058 C 
ATOM     24  C   UNL     1      -0.871  -7.932   3.529  0.00  0.00    -0.004 A 
ATOM     25  C   UNL     1      -0.460  -8.095   2.240  0.00  0.00    -0.015 A 
ATOM     26  C   UNL     1      -0.517  -9.390   1.729  0.00  0.00    +0.013 A 
ATOM     27  C   UNL     1      -0.961 -10.406   2.505  0.00  0.00    +0.046 A 
ATOM     28  S   UNL     1      -1.331  -9.564   4.038  0.00  0.00    -0.101 S 
ATOM     29  C   UNL     1       0.029  -6.888   1.446  0.00  0.00    +0.125 C 
BRANCH  29  30
ATOM     30  C   UNL     1       1.248  -7.268   0.646  0.00  0.00    +0.011 A 
ATOM     31  C   UNL     1       1.344  -7.569  -0.672  0.00  0.00    +0.013 A 
ATOM     32  C   UNL     1       2.581  -7.893  -1.198  0.00  0.00    +0.008 A 
ATOM     33  C   UNL     1       3.661  -7.899  -0.379  0.00  0.00    +0.045 A 
ATOM     34  S   UNL     1       2.941  -7.432   1.187  0.00  0.00    -0.100 S 
ENDBRANCH  29  30
ENDBRANCH  20  21
ENDBRANCH   2  20
TORSDOF 7
