REMARK  Name = ZINC08868538
REMARK  6 active torsions:
REMARK  status: ('A' for Active; 'I' for Inactive)
REMARK    1  A    between atoms: C_4  and  C_7
REMARK    2  A    between atoms: C_7  and  C_8
REMARK    3  A    between atoms: C_8  and  C_9
REMARK    4  A    between atoms: C_10  and  C_27
REMARK    5  A    between atoms: C_10  and  C_31
REMARK    6  A    between atoms: N_18  and  C_21
REMARK                            x       y       z     vdW  Elec       q    Type
REMARK                         _______ _______ _______ _____ _____    ______ ____
ROOT
ATOM      1  C   UNL     1       2.374   6.107  -0.383  0.00  0.00    +0.075 C 
ATOM      2  C   UNL     1       4.744   5.686  -0.211  0.00  0.00    +0.264 C 
ATOM      3  C   UNL     1       4.393   4.250  -0.474  0.00  0.00    +0.098 A 
ATOM      4  C   UNL     1       5.403   3.301  -0.709  0.00  0.00    +0.262 A 
ATOM      5  O   UNL     1       6.575   3.638  -0.708  0.00  0.00    -0.267 OA
ATOM      6  N   UNL     1       5.066   2.016  -0.935  0.00  0.00    -0.274 N 
ATOM      7  H   UNL     1       5.782   1.339  -1.104  0.00  0.00    +0.173 HD
ATOM      8  C   UNL     1       3.775   1.635  -0.935  0.00  0.00    +0.335 A 
ATOM      9  O   UNL     1       3.495   0.469  -1.138  0.00  0.00    -0.246 OA
ATOM     10  N   UNL     1       2.789   2.525  -0.714  0.00  0.00    -0.250 N 
ATOM     11  C   UNL     1       3.091   3.846  -0.489  0.00  0.00    +0.124 A 
ATOM     12  N   UNL     1       2.093   4.768  -0.269  0.00  0.00    -0.290 N 
ATOM     13  H   UNL     1       1.198   4.474  -0.039  0.00  0.00    +0.155 HD
ATOM     14  N   UNL     1       3.590   6.641  -0.371  0.00  0.00    -0.352 N 
ATOM     15  H   UNL     1       3.735   7.652  -0.467  0.00  0.00    +0.162 HD
ENDROOT
BRANCH  10  16
ATOM     16  C   UNL     1       1.453   2.104  -0.720  0.00  0.00    +0.053 A 
ATOM     17  C   UNL     1       0.720   2.131  -1.898  0.00  0.00    +0.026 A 
ATOM     18  C   UNL     1      -0.597   1.715  -1.900  0.00  0.00    +0.002 A 
ATOM     19  C   UNL     1      -1.186   1.273  -0.730  0.00  0.00    +0.000 A 
ATOM     20  C   UNL     1      -0.458   1.245   0.446  0.00  0.00    +0.002 A 
ATOM     21  C   UNL     1       0.860   1.659   0.454  0.00  0.00    +0.026 A 
ENDBRANCH  10  16
BRANCH   2  22
ATOM     22  C   UNL     1       5.284   5.819   1.214  0.00  0.00    +0.426 C 
ATOM     23  F   UNL     1       6.426   5.022   1.356  0.00  0.00    -0.167 F 
ATOM     24  F   UNL     1       5.613   7.155   1.466  0.00  0.00    -0.167 F 
ATOM     25  F   UNL     1       4.307   5.399   2.124  0.00  0.00    -0.167 F 
ENDBRANCH   2  22
BRANCH   2  26
ATOM     26  C   UNL     1       5.826   6.127  -1.199  0.00  0.00    +0.426 C 
ATOM     27  F   UNL     1       5.499   5.674  -2.481  0.00  0.00    -0.167 F 
ATOM     28  F   UNL     1       5.911   7.524  -1.205  0.00  0.00    -0.167 F 
ATOM     29  F   UNL     1       7.058   5.587  -0.813  0.00  0.00    -0.167 F 
ENDBRANCH   2  26
BRANCH   1  30
ATOM     30  C   UNL     1       1.237   7.084  -0.536  0.00  0.00    +0.074 C 
BRANCH  30  31
ATOM     31  C   UNL     1       1.796   8.504  -0.643  0.00  0.00    +0.042 C 
BRANCH  31  35
ATOM     32  C   UNL     1      -1.427  11.274  -1.077  0.00  0.00    +0.000 A 
ATOM     33  C   UNL     1      -0.967  10.940   0.183  0.00  0.00    +0.000 A 
ATOM     34  C   UNL     1       0.075  10.043   0.323  0.00  0.00    +0.003 A 
ATOM     35  C   UNL     1       0.659   9.481  -0.796  0.00  0.00    -0.047 A 
ATOM     36  C   UNL     1       0.203   9.819  -2.057  0.00  0.00    +0.003 A 
ATOM     37  C   UNL     1      -0.843  10.711  -2.197  0.00  0.00    +0.000 A 
ENDBRANCH  31  35
ENDBRANCH  30  31
ENDBRANCH   1  30
TORSDOF 6
