REMARK  Name = ZINC36648963
REMARK  13 active torsions:
REMARK  status: ('A' for Active; 'I' for Inactive)
REMARK    1  A    between atoms: C_1  and  C_2
REMARK    2  A    between atoms: C_2  and  N_3
REMARK    3  A    between atoms: N_3  and  C_4
REMARK    4  A    between atoms: N_3  and  C_6
REMARK    5  A    between atoms: C_4  and  C_5
REMARK    6  A    between atoms: C_6  and  C_7
REMARK    7  A    between atoms: C_7  and  N_8
REMARK    8  A    between atoms: N_17  and  C_18
REMARK    9  A    between atoms: C_18  and  C_20
REMARK   10  A    between atoms: C_20  and  N_21
REMARK   11  A    between atoms: C_26  and  C_33
REMARK   12  A    between atoms: C_29  and  C_31
REMARK   13  A    between atoms: C_29  and  C_32
REMARK                            x       y       z     vdW  Elec       q    Type
REMARK                         _______ _______ _______ _____ _____    ______ ____
ROOT
ATOM      1  N   UNL     1       1.516  -3.264  -0.633  0.00  0.00    -0.314 N 
ATOM      2  C   UNL     1       2.685  -3.685  -0.007  0.00  0.00    +0.068 A 
ATOM      3  C   UNL     1       3.655  -3.022   0.732  0.00  0.00    +0.028 A 
ATOM      4  C   UNL     1       4.731  -3.722   1.239  0.00  0.00    +0.002 A 
ATOM      5  C   UNL     1       4.848  -5.084   1.014  0.00  0.00    +0.002 A 
ATOM      6  C   UNL     1       3.889  -5.752   0.280  0.00  0.00    +0.028 A 
ATOM      7  C   UNL     1       2.803  -5.058  -0.235  0.00  0.00    +0.066 A 
ATOM      8  N   UNL     1       1.702  -5.442  -0.994  0.00  0.00    -0.326 N 
ATOM      9  C   UNL     1       0.935  -4.344  -1.219  0.00  0.00    +0.201 A 
ATOM     10  N   UNL     1      -0.204  -4.327  -1.907  0.00  0.00    -0.145 NA
ATOM     11  H   UNL     1       1.514  -6.341  -1.306  0.00  0.00    +0.169 HD
ENDROOT
BRANCH  10  12
ATOM     12  C   UNL     1      -0.746  -5.468  -2.323  0.00  0.00    +0.257 C 
ATOM     13  O   UNL     1      -0.254  -6.530  -1.995  0.00  0.00    -0.272 OA
BRANCH  12  14
ATOM     14  C   UNL     1      -1.971  -5.444  -3.201  0.00  0.00    +0.215 C 
BRANCH  14  15
ATOM     15  N   UNL     1      -2.370  -6.817  -3.520  0.00  0.00    -0.215 N 
ATOM     16  C   UNL     1      -1.922  -7.508  -4.589  0.00  0.00    +0.247 C 
ATOM     17  O   UNL     1      -1.143  -7.125  -5.435  0.00  0.00    -0.273 OA
ATOM     18  C   UNL     1      -2.595  -8.858  -4.508  0.00  0.00    +0.113 C 
ATOM     19  C   UNL     1      -3.469  -9.091  -5.735  0.00  0.00    +0.038 C 
ATOM     20  C   UNL     1      -4.165 -10.449  -5.619  0.00  0.00    -0.011 C 
ATOM     21  C   UNL     1      -3.111 -11.553  -5.506  0.00  0.00    +0.009 C 
ATOM     22  C   UNL     1      -2.258 -11.319  -4.257  0.00  0.00    -0.032 C 
ATOM     23  C   UNL     1      -1.554  -9.964  -4.368  0.00  0.00    +0.041 C 
ATOM     24  C   UNL     1      -1.211 -12.429  -4.139  0.00  0.00    +0.011 C 
ATOM     25  C   UNL     1      -3.154 -11.328  -3.018  0.00  0.00    +0.011 C 
ATOM     26  C   UNL     1      -5.025 -10.690  -6.861  0.00  0.00    +0.007 C 
ATOM     27  N   UNL     1      -3.421  -8.773  -3.296  0.00  0.00    -0.285 N 
ATOM     28  C   UNL     1      -3.219  -7.544  -2.784  0.00  0.00    +0.310 C 
ATOM     29  O   UNL     1      -3.752  -7.139  -1.769  0.00  0.00    -0.252 OA
ATOM     30  H   UNL     1      -3.995  -9.466  -2.935  0.00  0.00    +0.151 HD
ENDBRANCH  14  15
ENDBRANCH  12  14
ENDBRANCH  10  12
BRANCH   1  31
ATOM     31  C   UNL     1       0.998  -1.894  -0.653  0.00  0.00    +0.106 C 
BRANCH  31  32
ATOM     32  C   UNL     1       0.082  -1.678   0.553  0.00  0.00    -0.057 C 
BRANCH  32  33
ATOM     33  N   UNL     1      -0.438  -0.304   0.533  0.00  0.00    +0.380 N 
ATOM     34  H   UNL     1       0.332   0.346   0.492  0.00  0.00    -0.082 HD
BRANCH  33  36
ATOM     35  C   UNL     1      -1.746   1.338  -0.727  0.00  0.00    -0.017 C 
ATOM     36  C   UNL     1      -1.296  -0.122  -0.645  0.00  0.00    -0.082 C 
ENDBRANCH  33  36
BRANCH  33  37
ATOM     37  C   UNL     1      -1.221  -0.060   1.752  0.00  0.00    -0.082 C 
ATOM     38  C   UNL     1      -0.302  -0.136   2.973  0.00  0.00    -0.017 C 
ENDBRANCH  33  37
ENDBRANCH  32  33
ENDBRANCH  31  32
ENDBRANCH   1  31
TORSDOF 8
