REMARK  Name = ZINC03331132
REMARK  11 active torsions:
REMARK  status: ('A' for Active; 'I' for Inactive)
REMARK    1  A    between atoms: C_1  and  C_2
REMARK    2  A    between atoms: C_2  and  C_4
REMARK    3  A    between atoms: C_2  and  N_51
REMARK    4  A    between atoms: C_7  and  S_16
REMARK    5  A    between atoms: N_8  and  C_9
REMARK    6  A    between atoms: S_16  and  C_17
REMARK    7  A    between atoms: C_17  and  C_18
REMARK    8  A    between atoms: N_20  and  C_21
REMARK    9  A    between atoms: C_26  and  C_27
REMARK   10  A    between atoms: C_30  and  N_51
REMARK   11  A    between atoms: C_31  and  N_51
REMARK                            x       y       z     vdW  Elec       q    Type
REMARK                         _______ _______ _______ _____ _____    ______ ____
ROOT
ATOM      1  C   UNL     1      -9.615   0.447   0.677  0.00  0.00    +0.125 A 
ATOM      2  N   UNL     1      -8.719  -0.496   0.590  0.00  0.00    -0.135 NA
ATOM      3  N   UNL     1      -7.545   0.018   0.484  0.00  0.00    -0.122 NA
ATOM      4  C   UNL     1      -7.628   1.328   0.497  0.00  0.00    +0.197 A 
ATOM      5  N   UNL     1      -8.952   1.644   0.626  0.00  0.00    -0.275 N 
ENDROOT
BRANCH   5   6
ATOM      6  C   UNL     1      -9.515   2.928   0.691  0.00  0.00    +0.050 A 
ATOM      7  C   UNL     1     -10.157   3.348   1.847  0.00  0.00    +0.028 A 
ATOM      8  C   UNL     1     -10.706   4.614   1.909  0.00  0.00    +0.022 A 
ATOM      9  C   UNL     1     -10.625   5.459   0.817  0.00  0.00    +0.041 A 
ATOM     10  C   UNL     1      -9.990   5.040  -0.339  0.00  0.00    +0.022 A 
ATOM     11  C   UNL     1      -9.435   3.777  -0.404  0.00  0.00    +0.028 A 
ATOM     12 CL   UNL     1     -11.321   7.047   0.896  0.00  0.00    -0.084 Cl
ENDBRANCH   5   6
BRANCH   1  14
ATOM     13  C   UNL     1     -11.432  -0.187   2.240  0.00  0.00    -0.005 C 
ATOM     14  C   UNL     1     -11.103   0.254   0.813  0.00  0.00    -0.003 C 
BRANCH  14  17
ATOM     15  C   UNL     1     -10.997  -2.090   0.215  0.00  0.00    -0.096 C 
ATOM     16  C   UNL     1     -13.019  -0.825  -0.201  0.00  0.00    -0.096 C 
ATOM     17  N   UNL     1     -11.543  -0.768  -0.160  0.00  0.00    +0.382 N 
ATOM     18  H   UNL     1     -11.193  -0.515  -1.091  0.00  0.00    -0.082 HD
ENDBRANCH  14  17
ENDBRANCH   1  14
BRANCH   4  19
ATOM     19  S   UNL     1      -6.285   2.463   0.380  0.00  0.00    -0.076 S 
BRANCH  19  20
ATOM     20  C   UNL     1      -4.903   1.303   0.247  0.00  0.00    +0.173 C 
BRANCH  20  21
ATOM     21  C   UNL     1      -3.611   2.071   0.132  0.00  0.00    +0.228 C 
ATOM     22  O   UNL     1      -3.624   3.284   0.139  0.00  0.00    -0.275 OA
ATOM     23  N   UNL     1      -2.442   1.411   0.021  0.00  0.00    -0.284 N 
ATOM     24  H   UNL     1      -2.436   0.443  -0.051  0.00  0.00    +0.155 HD
BRANCH  23  25
ATOM     25  C   UNL     1      -1.240   2.118   0.009  0.00  0.00    +0.052 A 
ATOM     26  C   UNL     1      -1.173   3.368  -0.589  0.00  0.00    +0.044 A 
ATOM     27  C   UNL     1       0.020   4.064  -0.605  0.00  0.00    +0.043 A 
ATOM     28  C   UNL     1       1.156   3.524  -0.020  0.00  0.00    +0.021 A 
ATOM     29  C   UNL     1       1.105   2.286   0.583  0.00  0.00    +0.022 A 
ATOM     30  C   UNL     1      -0.095   1.571   0.606  0.00  0.00    +0.073 A 
ATOM     31 CL   UNL     1       0.099   5.625  -1.361  0.00  0.00    -0.083 Cl
BRANCH  30  32
ATOM     32  C   UNL     1      -0.153   0.283   1.232  0.00  0.00    +0.101 C 
ATOM     33  N   UNL     1      -0.200  -0.737   1.728  0.00  0.00    -0.191 NA
ENDBRANCH  30  32
ENDBRANCH  23  25
ENDBRANCH  20  21
ENDBRANCH  19  20
ENDBRANCH   4  19
TORSDOF 8
