REMARK  Name = ZINC04755364
REMARK  8 active torsions:
REMARK  status: ('A' for Active; 'I' for Inactive)
REMARK    1  A    between atoms: C_1  and  C_2
REMARK    2  A    between atoms: N_7  and  C_8
REMARK    3  A    between atoms: C_8  and  C_10
REMARK    4  A    between atoms: C_8  and  C_18
REMARK    5  A    between atoms: C_13  and  S_16
REMARK    6  A    between atoms: S_16  and  C_17
REMARK    7  A    between atoms: C_24  and  C_29
REMARK    8  A    between atoms: C_27  and  O_28
REMARK                            x       y       z     vdW  Elec       q    Type
REMARK                         _______ _______ _______ _____ _____    ______ ____
ROOT
ATOM      1  C   UNL     1       1.361  -2.216  -0.036  0.00  0.00    +0.136 C 
ENDROOT
BRANCH   1   2
ATOM      2  C   UNL     1       1.605  -0.745   0.175  0.00  0.00    +0.021 A 
ATOM      3  C   UNL     1       2.904  -0.248   0.106  0.00  0.00    +0.010 A 
ATOM      4  C   UNL     1       3.158   1.077   0.292  0.00  0.00    +0.010 A 
ATOM      5  C   UNL     1       2.098   1.959   0.558  0.00  0.00    +0.004 A 
ATOM      6  C   UNL     1       2.321   3.334   0.756  0.00  0.00    +0.012 A 
ATOM      7  C   UNL     1       1.243   4.132   1.011  0.00  0.00    +0.023 A 
ATOM      8  C   UNL     1      -0.034   3.577   1.069  0.00  0.00    +0.039 A 
ATOM      9  N   UNL     1      -0.238   2.296   0.878  0.00  0.00    -0.248 NA
ATOM     10  C   UNL     1       0.774   1.461   0.630  0.00  0.00    +0.113 A 
ATOM     11  C   UNL     1       0.549   0.082   0.432  0.00  0.00    +0.148 A 
ATOM     12  C   UNL     1      -1.212   4.474   1.351  0.00  0.00    +0.065 C 
BRANCH  11  13
ATOM     13  O   UNL     1      -0.712  -0.420   0.497  0.00  0.00    -0.504 OA
ATOM     14  H   UNL     1      -1.177  -0.424  -0.350  0.00  0.00    +0.292 HD
ENDBRANCH  11  13
ENDBRANCH   1   2
BRANCH   1  21
ATOM     15  C   UNL     1       5.193  -5.376   3.533  0.00  0.00    +0.063 C 
ATOM     16  C   UNL     1       4.004  -4.504   3.224  0.00  0.00    +0.014 A 
ATOM     17  C   UNL     1       3.157  -4.120   4.244  0.00  0.00    +0.021 A 
ATOM     18  C   UNL     1       2.062  -3.316   3.953  0.00  0.00    +0.005 A 
ATOM     19  C   UNL     1       1.859  -2.928   2.641  0.00  0.00    +0.041 A 
ATOM     20  C   UNL     1       2.752  -3.352   1.663  0.00  0.00    +0.097 A 
ATOM     21  N   UNL     1       2.559  -2.969   0.341  0.00  0.00    -0.320 N 
ATOM     22  H   UNL     1       3.219  -3.201  -0.332  0.00  0.00    +0.148 HD
ATOM     23  N   UNL     1       3.831  -4.146   1.923  0.00  0.00    -0.347 N 
ATOM     24  H   UNL     1       4.473  -4.454   1.183  0.00  0.00    +0.167 HD
ENDBRANCH   1  21
BRANCH   1  25
ATOM     25  C   UNL     1       1.044  -2.470  -1.488  0.00  0.00    -0.023 A 
ATOM     26  C   UNL     1       2.057  -2.442  -2.429  0.00  0.00    +0.007 A 
ATOM     27  C   UNL     1       1.771  -2.679  -3.760  0.00  0.00    +0.015 A 
ATOM     28  C   UNL     1       0.463  -2.934  -4.153  0.00  0.00    +0.008 A 
ATOM     29  C   UNL     1      -0.552  -2.957  -3.204  0.00  0.00    +0.015 A 
ATOM     30  C   UNL     1      -0.259  -2.724  -1.875  0.00  0.00    +0.007 A 
BRANCH  28  31
ATOM     31  S   UNL     1       0.093  -3.230  -5.850  0.00  0.00    -0.129 S 
ATOM     32  C   UNL     1       1.702  -3.100  -6.679  0.00  0.00    +0.090 C 
ENDBRANCH  28  31
ENDBRANCH   1  25
TORSDOF 5
