REMARK  Name = ZINC04788079
REMARK  7 active torsions:
REMARK  status: ('A' for Active; 'I' for Inactive)
REMARK    1  A    between atoms: C_1  and  C_2
REMARK    2  A    between atoms: C_2  and  C_3
REMARK    3  A    between atoms: C_2  and  C_4
REMARK    4  A    between atoms: C_7  and  C_10
REMARK    5  A    between atoms: C_10  and  N_11
REMARK    6  A    between atoms: C_14  and  C_18
REMARK    7  A    between atoms: C_14  and  C_19
REMARK                            x       y       z     vdW  Elec       q    Type
REMARK                         _______ _______ _______ _____ _____    ______ ____
ROOT
ATOM      1  N   UNL     1      -0.202  -1.259   1.900  0.00  0.00    -0.220 N 
ATOM      2  C   UNL     1       0.715  -0.534   1.230  0.00  0.00    +0.251 C 
ATOM      3  O   UNL     1       1.871  -0.347   1.543  0.00  0.00    -0.272 OA
ATOM      4  C   UNL     1       0.002  -0.004   0.002  0.00  0.00    +0.135 C 
ATOM      5  N   UNL     1      -1.363  -0.542   0.135  0.00  0.00    -0.281 N 
ATOM      6  C   UNL     1      -1.384  -1.260   1.273  0.00  0.00    +0.310 C 
ATOM      7  O   UNL     1      -2.367  -1.844   1.685  0.00  0.00    -0.252 OA
ATOM      8  C   UNL     1      -0.019   1.526   0.010  0.00  0.00    +0.047 C 
ATOM      9  H   UNL     1      -2.102  -0.404  -0.477  0.00  0.00    +0.152 HD
ENDROOT
BRANCH   4  10
ATOM     10  C   UNL     1       0.657  -0.517  -1.255  0.00  0.00    -0.012 A 
ATOM     11  C   UNL     1       2.019  -0.754  -1.275  0.00  0.00    +0.010 A 
ATOM     12  C   UNL     1       2.624  -1.225  -2.425  0.00  0.00    +0.050 A 
ATOM     13  C   UNL     1       1.866  -1.461  -3.561  0.00  0.00    +0.166 A 
ATOM     14  C   UNL     1       0.494  -1.222  -3.540  0.00  0.00    +0.167 A 
ATOM     15  C   UNL     1      -0.106  -0.755  -2.382  0.00  0.00    +0.055 A 
ATOM     16  O   UNL     1      -0.021  -1.528  -4.767  0.00  0.00    -0.453 OA
ATOM     17  C   UNL     1       1.109  -1.567  -5.659  0.00  0.00    +0.466 C 
ATOM     18  O   UNL     1       2.211  -1.917  -4.801  0.00  0.00    -0.453 OA
ENDBRANCH   4  10
BRANCH   1  19
ATOM     19  C   UNL     1       0.061  -1.960   3.159  0.00  0.00    +0.153 C 
BRANCH  19  23
ATOM     20  C   UNL     1      -0.774   0.645   6.440  0.00  0.00    -0.045 A 
ATOM     21  C   UNL     1      -1.770  -0.165   5.930  0.00  0.00    +0.004 A 
ATOM     22  C   UNL     1      -1.500  -1.008   4.868  0.00  0.00    +0.005 A 
ATOM     23  C   UNL     1      -0.233  -1.040   4.317  0.00  0.00    -0.030 A 
ATOM     24  C   UNL     1       0.765  -0.234   4.830  0.00  0.00    +0.005 A 
ATOM     25  C   UNL     1       0.493   0.613   5.889  0.00  0.00    +0.004 A 
BRANCH  20  27
ATOM     26  C   UNL     1      -0.162   1.207   8.777  0.00  0.00    +0.012 C 
ATOM     27  C   UNL     1      -1.069   1.565   7.597  0.00  0.00    +0.013 C 
ATOM     28  C   UNL     1      -0.811   3.013   7.176  0.00  0.00    +0.012 C 
ENDBRANCH  20  27
ENDBRANCH  19  23
ENDBRANCH   1  19
TORSDOF 4
