REMARK  Name = ZINC39740966
REMARK  2 active torsions:
REMARK  status: ('A' for Active; 'I' for Inactive)
REMARK    1  A    between atoms: C_4  and  C_7
REMARK    2  A    between atoms: C_9  and  C_20
REMARK                            x       y       z     vdW  Elec       q    Type
REMARK                         _______ _______ _______ _____ _____    ______ ____
ROOT
ATOM      1  C   UNL     1       3.711  -0.707  -0.038  0.00  0.00    +0.173 C 
ATOM      2  C   UNL     1       4.016  -1.224  -1.429  0.00  0.00    +0.051 C 
ATOM      3  N   UNL     1       4.079  -2.530  -1.333  0.00  0.00    -0.343 N 
ATOM      4  C   UNL     1       3.864  -2.964  -0.094  0.00  0.00    +0.127 C 
ATOM      5  N   UNL     1       3.631  -1.935   0.775  0.00  0.00    -0.219 NA
ATOM      6  C   UNL     1       3.876  -4.330   0.281  0.00  0.00    +0.056 C 
ATOM      7  C   UNL     1       4.131  -5.327  -0.675  0.00  0.00    +0.015 C 
ATOM      8  C   UNL     1       4.141  -6.639  -0.304  0.00  0.00    +0.001 C 
ATOM      9  C   UNL     1       3.901  -7.009   1.015  0.00  0.00    +0.004 C 
ATOM     10  C   UNL     1       3.649  -6.068   1.970  0.00  0.00    +0.046 C 
ATOM     11  C   UNL     1       3.635  -4.708   1.627  0.00  0.00    +0.127 C 
ATOM     12  O   UNL     1       3.415  -3.856   2.480  0.00  0.00    -0.506 OA
ATOM     13  H   UNL     1       3.264  -4.215   3.365  0.00  0.00    +0.292 HD
ATOM     14  H   UNL     1       4.262  -3.116  -2.084  0.00  0.00    +0.167 HD
ENDROOT
BRANCH   1  18
ATOM     15  C   UNL     1      -0.017   1.378   0.010  0.00  0.00    +0.000 A 
ATOM     16  C   UNL     1       1.171   2.086   0.002  0.00  0.00    +0.000 A 
ATOM     17  C   UNL     1       2.377   1.411  -0.013  0.00  0.00    +0.006 A 
ATOM     18  C   UNL     1       2.396   0.029  -0.020  0.00  0.00    -0.020 A 
ATOM     19  C   UNL     1       1.208  -0.679  -0.012  0.00  0.00    +0.006 A 
ATOM     20  C   UNL     1       0.002  -0.004   0.002  0.00  0.00    +0.000 A 
ENDBRANCH   1  18
BRANCH   2  21
ATOM     21  C   UNL     1       4.203  -0.421  -2.644  0.00  0.00    -0.004 A 
ATOM     22  C   UNL     1       4.109   0.976  -2.587  0.00  0.00    +0.010 A 
ATOM     23  C   UNL     1       4.286   1.721  -3.732  0.00  0.00    +0.001 A 
ATOM     24  C   UNL     1       4.556   1.094  -4.937  0.00  0.00    +0.000 A 
ATOM     25  C   UNL     1       4.650  -0.286  -5.002  0.00  0.00    +0.001 A 
ATOM     26  C   UNL     1       4.482  -1.047  -3.866  0.00  0.00    +0.010 A 
ENDBRANCH   2  21
TORSDOF 2
