REMARK  Name = ZINC08412373
REMARK  6 active torsions:
REMARK  status: ('A' for Active; 'I' for Inactive)
REMARK    1  A    between atoms: C_3  and  N_20
REMARK    2  A    between atoms: C_6  and  N_7
REMARK    3  A    between atoms: C_11  and  N_59
REMARK    4  A    between atoms: C_15  and  N_59
REMARK    5  A    between atoms: C_24  and  N_62
REMARK    6  A    between atoms: C_28  and  N_62
REMARK                            x       y       z     vdW  Elec       q    Type
REMARK                         _______ _______ _______ _____ _____    ______ ____
ROOT
ATOM      1  C   UNL     1      -3.595   2.165   0.200  0.00  0.00    +0.026 A 
ATOM      2  C   UNL     1      -2.425   1.434   0.190  0.00  0.00    +0.026 A 
ATOM      3  C   UNL     1      -1.206   2.077   0.019  0.00  0.00    +0.044 A 
ATOM      4  C   UNL     1      -1.165   3.456  -0.136  0.00  0.00    +0.026 A 
ATOM      5  C   UNL     1      -2.336   4.187  -0.130  0.00  0.00    +0.026 A 
ATOM      6  C   UNL     1      -3.554   3.544   0.040  0.00  0.00    +0.044 A 
ENDROOT
BRANCH   6   7
ATOM      7  N   UNL     1      -4.744   4.287   0.050  0.00  0.00    -0.212 N 
ATOM      8  C   UNL     1      -5.056   5.143   1.031  0.00  0.00    +0.225 C 
ATOM      9  O   UNL     1      -4.371   5.375   2.004  0.00  0.00    -0.275 OA
ATOM     10  C   UNL     1      -6.399   5.773   0.734  0.00  0.00    +0.090 C 
ATOM     11  C   UNL     1      -6.814   5.127  -0.604  0.00  0.00    +0.026 C 
ATOM     12  C   UNL     1      -5.659   4.203  -0.924  0.00  0.00    +0.213 C 
ATOM     13  O   UNL     1      -5.576   3.497  -1.906  0.00  0.00    -0.277 OA
BRANCH  11  14
ATOM     14  N   UNL     1      -8.064   4.362  -0.436  0.00  0.00    +0.389 N 
ATOM     15  H   UNL     1      -8.667   4.843   0.242  0.00  0.00    -0.084 HD
ATOM     16  H   UNL     1      -7.843   3.421  -0.091  0.00  0.00    -0.084 HD
BRANCH  14  17
ATOM     17  C   UNL     1      -8.774   4.253  -1.725  0.00  0.00    -0.071 C 
ATOM     18  C   UNL     1      -9.689   5.479  -1.931  0.00  0.00    -0.016 C 
ATOM     19  C   UNL     1     -10.951   4.898  -2.617  0.00  0.00    -0.002 C 
ATOM     20  C   UNL     1     -11.130   3.533  -1.907  0.00  0.00    -0.002 C 
ATOM     21  C   UNL     1      -9.690   3.017  -1.710  0.00  0.00    -0.016 C 
ENDBRANCH  14  17
ENDBRANCH  11  14
ENDBRANCH   6   7
BRANCH   3  22
ATOM     22  N   UNL     1      -0.016   1.334   0.009  0.00  0.00    -0.212 N 
ATOM     23  C   UNL     1       0.738   1.189  -1.087  0.00  0.00    +0.225 C 
ATOM     24  O   UNL     1       0.492   1.661  -2.176  0.00  0.00    -0.275 OA
ATOM     25  C   UNL     1       1.945   0.340  -0.752  0.00  0.00    +0.090 C 
ATOM     26  C   UNL     1       1.756   0.017   0.744  0.00  0.00    +0.026 C 
ATOM     27  C   UNL     1       0.462   0.717   1.097  0.00  0.00    +0.213 C 
ATOM     28  O   UNL     1      -0.060   0.720   2.192  0.00  0.00    -0.277 OA
BRANCH  26  29
ATOM     29  N   UNL     1       2.875   0.567   1.532  0.00  0.00    +0.389 N 
ATOM     30  H   UNL     1       2.680   1.550   1.756  0.00  0.00    -0.084 HD
ATOM     31  H   UNL     1       3.739   0.506   0.981  0.00  0.00    -0.084 HD
BRANCH  29  32
ATOM     32  C   UNL     1       3.042  -0.193   2.785  0.00  0.00    -0.071 C 
ATOM     33  C   UNL     1       2.148   0.405   3.890  0.00  0.00    -0.016 C 
ATOM     34  C   UNL     1       3.003   0.287   5.176  0.00  0.00    -0.002 C 
ATOM     35  C   UNL     1       4.432   0.602   4.666  0.00  0.00    -0.002 C 
ATOM     36  C   UNL     1       4.494  -0.069   3.278  0.00  0.00    -0.016 C 
ENDBRANCH  29  32
ENDBRANCH  26  29
ENDBRANCH   3  22
TORSDOF 6
