REMARK  Name = ZINC63426812
REMARK  9 active torsions:
REMARK  status: ('A' for Active; 'I' for Inactive)
REMARK    1  A    between atoms: C_1  and  C_2
REMARK    2  A    between atoms: C_2  and  N_18
REMARK    3  A    between atoms: N_9  and  C_12
REMARK    4  A    between atoms: N_18  and  C_19
REMARK    5  A    between atoms: C_19  and  C_21
REMARK    6  A    between atoms: C_19  and  C_31
REMARK    7  A    between atoms: C_21  and  C_22
REMARK    8  A    between atoms: C_31  and  O_33
REMARK    9  A    between atoms: O_33  and  C_34
REMARK                            x       y       z     vdW  Elec       q    Type
REMARK                         _______ _______ _______ _____ _____    ______ ____
ROOT
ATOM      1  C   UNL     1      -1.113   1.339   0.277  0.00  0.00    +0.061 C 
ATOM      2  C   UNL     1      -1.177  -0.159   0.428  0.00  0.00    +0.019 C 
ATOM      3  C   UNL     1      -0.512  -0.778   1.471  0.00  0.00    +0.116 C 
ATOM      4  C   UNL     1       0.154   0.003   2.529  0.00  0.00    +0.258 C 
ATOM      5  O   UNL     1       0.136   1.219   2.513  0.00  0.00    -0.270 OA
ATOM      6  N   UNL     1       0.783  -0.668   3.516  0.00  0.00    -0.235 N 
ATOM      7  C   UNL     1       0.810  -2.008   3.546  0.00  0.00    +0.320 C 
ATOM      8  O   UNL     1       1.394  -2.551   4.463  0.00  0.00    -0.251 OA
ATOM      9  N   UNL     1       0.227  -2.780   2.618  0.00  0.00    -0.190 N 
ATOM     10  C   UNL     1      -0.443  -2.246   1.576  0.00  0.00    +0.265 C 
ATOM     11  O   UNL     1      -0.973  -2.958   0.743  0.00  0.00    -0.269 OA
ATOM     12  H   UNL     1       1.227  -0.169   4.220  0.00  0.00    +0.159 HD
ENDROOT
BRANCH   9  13
ATOM     13  C   UNL     1       0.311  -4.174   2.736  0.00  0.00    +0.046 A 
ATOM     14  C   UNL     1       1.325  -4.867   2.088  0.00  0.00    +0.024 A 
ATOM     15  C   UNL     1       1.405  -6.241   2.207  0.00  0.00    +0.002 A 
ATOM     16  C   UNL     1       0.477  -6.926   2.970  0.00  0.00    +0.000 A 
ATOM     17  C   UNL     1      -0.533  -6.238   3.616  0.00  0.00    +0.002 A 
ATOM     18  C   UNL     1      -0.616  -4.864   3.505  0.00  0.00    +0.024 A 
ENDBRANCH   9  13
BRANCH   2  19
ATOM     19  N   UNL     1      -1.882  -0.897  -0.453  0.00  0.00    -0.334 N 
ATOM     20  H   UNL     1      -1.945  -1.858  -0.340  0.00  0.00    +0.147 HD
BRANCH  19  21
ATOM     21  C   UNL     1      -2.553  -0.246  -1.581  0.00  0.00    +0.184 C 
BRANCH  21  22
ATOM     22  C   UNL     1      -1.578  -0.082  -2.719  0.00  0.00    +0.328 C 
ATOM     23  O   UNL     1      -0.440  -0.469  -2.599  0.00  0.00    -0.249 OA
BRANCH  22  24
ATOM     24  O   UNL     1      -1.975   0.494  -3.864  0.00  0.00    -0.467 OA
ATOM     25  C   UNL     1      -0.999   0.617  -4.901  0.00  0.00    +0.280 C 
ENDBRANCH  22  24
ENDBRANCH  21  22
BRANCH  21  26
ATOM     26  C   UNL     1      -3.732  -1.107  -2.039  0.00  0.00    +0.066 C 
BRANCH  26  27
ATOM     27  C   UNL     1      -4.764  -1.170  -0.943  0.00  0.00    -0.039 C 
ATOM     28  C   UNL     1      -5.860  -0.388  -0.813  0.00  0.00    -0.001 A 
ATOM     29  C   UNL     1      -6.398   0.713  -1.621  0.00  0.00    +0.010 A 
ATOM     30  C   UNL     1      -7.541   1.318  -1.227  0.00  0.00    +0.001 A 
ATOM     31  C   UNL     1      -8.224   0.921  -0.069  0.00  0.00    +0.002 A 
ATOM     32  C   UNL     1      -7.793  -0.082   0.724  0.00  0.00    +0.026 A 
ATOM     33  C   UNL     1      -6.600  -0.788   0.405  0.00  0.00    +0.043 A 
ATOM     34  N   UNL     1      -5.986  -1.779   1.004  0.00  0.00    -0.380 N 
ATOM     35  C   UNL     1      -4.788  -2.124   0.230  0.00  0.00    +0.144 C 
ATOM     36  H   UNL     1      -6.277  -2.215   1.821  0.00  0.00    +0.160 HD
ENDBRANCH  26  27
ENDBRANCH  21  26
ENDBRANCH  19  21
ENDBRANCH   2  19
TORSDOF 7
