REMARK  Name = ZINC58168411
REMARK  9 active torsions:
REMARK  status: ('A' for Active; 'I' for Inactive)
REMARK    1  A    between atoms: C_1  and  C_2
REMARK    2  A    between atoms: C_7  and  C_9
REMARK    3  A    between atoms: C_7  and  N_29
REMARK    4  A    between atoms: C_9  and  N_10
REMARK    5  A    between atoms: C_11  and  C_13
REMARK    6  A    between atoms: N_16  and  C_22
REMARK    7  A    between atoms: C_17  and  C_18
REMARK    8  A    between atoms: N_29  and  C_30
REMARK    9  A    between atoms: N_29  and  C_31
REMARK                            x       y       z     vdW  Elec       q    Type
REMARK                         _______ _______ _______ _____ _____    ______ ____
ROOT
ATOM      1  N   UNL     1       1.173  -3.642   1.825  0.00  0.00    -0.313 N 
ATOM      2  C   UNL     1       1.456  -4.335   2.946  0.00  0.00    +0.248 C 
ATOM      3  O   UNL     1       1.777  -3.745   3.960  0.00  0.00    -0.270 OA
ATOM      4  H   UNL     1       0.916  -4.112   1.016  0.00  0.00    +0.149 HD
ENDROOT
BRANCH   2   5
ATOM      5  C   UNL     1       1.376  -5.806   2.942  0.00  0.00    +0.086 A 
ATOM      6  C   UNL     1       1.026  -6.625   1.845  0.00  0.00    +0.148 A 
ATOM      7  N   UNL     1       1.070  -7.869   2.237  0.00  0.00    -0.174 NA
ATOM      8  N   UNL     1       1.446  -7.906   3.585  0.00  0.00    -0.227 N 
ATOM      9  C   UNL     1       1.637  -6.644   4.009  0.00  0.00    +0.159 A 
BRANCH   8  10
ATOM     10  C   UNL     1       1.601  -9.063   4.361  0.00  0.00    +0.066 A 
ATOM     11  C   UNL     1       2.584  -9.117   5.340  0.00  0.00    +0.029 A 
ATOM     12  C   UNL     1       2.735 -10.259   6.103  0.00  0.00    +0.022 A 
ATOM     13  C   UNL     1       1.908 -11.348   5.891  0.00  0.00    +0.041 A 
ATOM     14  C   UNL     1       0.928 -11.296   4.916  0.00  0.00    +0.022 A 
ATOM     15  C   UNL     1       0.768 -10.155   4.155  0.00  0.00    +0.029 A 
ATOM     16 CL   UNL     1       2.101 -12.782   6.851  0.00  0.00    -0.084 Cl
ENDBRANCH   8  10
BRANCH   9  17
ATOM     17  C   UNL     1       2.054  -6.221   5.394  0.00  0.00    +0.435 C 
ATOM     18  F   UNL     1       3.450  -6.157   5.461  0.00  0.00    -0.164 F 
ATOM     19  F   UNL     1       1.516  -4.962   5.680  0.00  0.00    -0.164 F 
ATOM     20  F   UNL     1       1.585  -7.152   6.327  0.00  0.00    -0.164 F 
ENDBRANCH   9  17
ENDBRANCH   2   5
BRANCH   1  21
ATOM     21  C   UNL     1       1.252  -2.179   1.828  0.00  0.00    +0.092 C 
BRANCH  21  27
ATOM     22  C   UNL     1       0.739   1.929  -0.971  0.00  0.00    +0.007 C 
ATOM     23  C   UNL     1       0.792   0.400  -0.994  0.00  0.00    -0.015 C 
ATOM     24  C   UNL     1      -0.520  -0.148  -1.558  0.00  0.00    +0.003 C 
ATOM     25  C   UNL     1      -0.467  -1.677  -1.581  0.00  0.00    -0.001 C 
ATOM     26  C   UNL     1      -0.264  -2.202  -0.158  0.00  0.00    -0.010 C 
ATOM     27  C   UNL     1       1.049  -1.654   0.405  0.00  0.00    -0.050 C 
ATOM     28  C   UNL     1       0.995  -0.125   0.428  0.00  0.00    -0.007 C 
BRANCH  27  29
ATOM     29  N   UNL     1       2.166  -2.092  -0.442  0.00  0.00    +0.381 N 
ATOM     30  C   UNL     1       3.436  -1.692   0.176  0.00  0.00    -0.096 C 
ATOM     31  C   UNL     1       2.129  -3.554  -0.584  0.00  0.00    -0.096 C 
ATOM     32  H   UNL     1       2.085  -1.664  -1.353  0.00  0.00    -0.082 HD
ENDBRANCH  27  29
ENDBRANCH  21  27
ENDBRANCH   1  21
TORSDOF 6
