REMARK  Name = ZINC19799325
REMARK  7 active torsions:
REMARK  status: ('A' for Active; 'I' for Inactive)
REMARK    1  A    between atoms: C_1  and  C_2
REMARK    2  A    between atoms: C_5  and  O_13
REMARK    3  A    between atoms: C_6  and  C_8
REMARK    4  A    between atoms: O_13  and  C_14
REMARK    5  A    between atoms: C_14  and  C_15
REMARK    6  A    between atoms: N_17  and  N_18
REMARK    7  A    between atoms: C_19  and  C_20
REMARK                            x       y       z     vdW  Elec       q    Type
REMARK                         _______ _______ _______ _____ _____    ______ ____
ROOT
ATOM      1  C   UNL     1       1.709   8.588   0.030  0.00  0.00    +0.270 C 
ATOM      2  O   UNL     1       2.813   8.084   0.016  0.00  0.00    -0.270 OA
ATOM      3  N   UNL     1       0.611   7.806   0.036  0.00  0.00    -0.204 N 
ATOM      4  H   UNL     1      -0.389   8.262   0.048  0.00  0.00    +0.177 HD
ENDROOT
BRANCH   3   5
ATOM      5  N   UNL     1       0.745   6.411   0.028  0.00  0.00    -0.187 NA
ATOM      6  C   UNL     1      -0.312   5.657   0.035  0.00  0.00    +0.145 C 
BRANCH   6   7
ATOM      7  C   UNL     1      -0.172   4.191   0.026  0.00  0.00    +0.077 A 
ATOM      8  C   UNL     1      -1.272   3.386   0.032  0.00  0.00    +0.209 A 
ATOM      9  O   UNL     1      -1.187   2.055   0.019  0.00  0.00    -0.462 OA
ATOM     10  C   UNL     1      -0.017   1.387   0.010  0.00  0.00    +0.138 A 
ATOM     11  C   UNL     1       0.002  -0.004   0.002  0.00  0.00    +0.047 A 
ATOM     12  C   UNL     1       1.205  -0.677  -0.013  0.00  0.00    +0.004 A 
ATOM     13  C   UNL     1       2.406   0.017  -0.021  0.00  0.00    +0.001 A 
ATOM     14  C   UNL     1       2.411   1.395  -0.013  0.00  0.00    +0.015 A 
ATOM     15  C   UNL     1       1.200   2.087   0.002  0.00  0.00    +0.065 A 
ATOM     16  C   UNL     1       1.162   3.562   0.010  0.00  0.00    +0.201 A 
ATOM     17  O   UNL     1       2.182   4.228   0.004  0.00  0.00    -0.286 OA
ENDBRANCH   6   7
ENDBRANCH   3   5
BRANCH   1  18
ATOM     18  C   UNL     1       1.565  10.088   0.038  0.00  0.00    +0.326 C 
BRANCH  18  19
ATOM     19  O   UNL     1       2.861  10.690   0.029  0.00  0.00    -0.482 OA
BRANCH  19  24
ATOM     20  C   UNL     1       3.050  16.328   0.055  0.00  0.00    +0.044 C 
ATOM     21  C   UNL     1       3.007  14.822   0.048  0.00  0.00    -0.050 A 
ATOM     22  C   UNL     1       1.788  14.166   0.056  0.00  0.00    +0.007 A 
ATOM     23  C   UNL     1       1.737  12.786   0.044  0.00  0.00    +0.046 A 
ATOM     24  C   UNL     1       2.910  12.047   0.035  0.00  0.00    +0.132 A 
ATOM     25  C   UNL     1       4.145  12.707   0.026  0.00  0.00    +0.062 A 
ATOM     26  C   UNL     1       4.184  14.102   0.033  0.00  0.00    +0.018 A 
BRANCH  25  27
ATOM     27  C   UNL     1       5.401  11.929   0.010  0.00  0.00    +0.171 A 
ATOM     28  C   UNL     1       6.460  12.096  -0.842  0.00  0.00    +0.072 A 
ATOM     29  C   UNL     1       7.383  11.112  -0.430  0.00  0.00    +0.157 A 
ATOM     30  N   UNL     1       6.830  10.476   0.564  0.00  0.00    -0.086 NA
ATOM     31  O   UNL     1       5.733  10.912   0.825  0.00  0.00    -0.355 OA
ENDBRANCH  25  27
ENDBRANCH  19  24
ENDBRANCH  18  19
ENDBRANCH   1  18
TORSDOF 6
