REMARK  Name = ZINC40586277
REMARK  8 active torsions:
REMARK  status: ('A' for Active; 'I' for Inactive)
REMARK    1  A    between atoms: C_1  and  C_2
REMARK    2  A    between atoms: C_4  and  C_26
REMARK    3  A    between atoms: C_7  and  N_8
REMARK    4  A    between atoms: C_10  and  N_22
REMARK    5  A    between atoms: C_11  and  N_15
REMARK    6  A    between atoms: N_15  and  C_16
REMARK    7  A    between atoms: C_26  and  C_28
REMARK    8  A    between atoms: C_26  and  C_30
REMARK                            x       y       z     vdW  Elec       q    Type
REMARK                         _______ _______ _______ _____ _____    ______ ____
ROOT
ATOM      1  N   UNL     1       0.795  -0.958   2.759  0.00  0.00    -0.297 N 
ATOM      2  C   UNL     1       0.543  -1.600   3.963  0.00  0.00    +0.159 A 
ATOM      3  C   UNL     1       0.616  -0.902   5.164  0.00  0.00    +0.206 A 
ATOM      4  C   UNL     1       0.354  -1.591   6.344  0.00  0.00    +0.159 A 
ATOM      5  N   UNL     1       0.045  -2.885   6.282  0.00  0.00    -0.218 NA
ATOM      6  C   UNL     1      -0.014  -3.511   5.124  0.00  0.00    +0.225 A 
ATOM      7  N   UNL     1       0.222  -2.892   3.985  0.00  0.00    -0.218 NA
ATOM      8  H   UNL     1       0.936   0.002   2.741  0.00  0.00    +0.154 HD
ENDROOT
BRANCH   1  15
ATOM      9  C   UNL     1       0.074   0.350   0.338  0.00  0.00    +0.045 C 
ATOM     10  C   UNL     1       0.502  -1.094   0.366  0.00  0.00    -0.029 A 
ATOM     11  C   UNL     1       0.557  -1.822  -0.806  0.00  0.00    +0.011 A 
ATOM     12  C   UNL     1       0.950  -3.147  -0.782  0.00  0.00    -0.008 A 
ATOM     13  C   UNL     1       1.288  -3.750   0.418  0.00  0.00    +0.047 A 
ATOM     14  C   UNL     1       1.234  -3.027   1.595  0.00  0.00    +0.043 A 
ATOM     15  C   UNL     1       0.845  -1.694   1.571  0.00  0.00    +0.037 A 
ATOM     16 CL   UNL     1       1.780  -5.414   0.444  0.00  0.00    -0.083 Cl
BRANCH  12  17
ATOM     17  C   UNL     1       1.009  -3.938  -2.063  0.00  0.00    +0.153 C 
BRANCH  17  18
ATOM     18  C   UNL     1      -0.381  -4.092  -2.623  0.00  0.00    -0.026 A 
ATOM     19  C   UNL     1      -1.034  -2.999  -3.162  0.00  0.00    +0.006 A 
ATOM     20  C   UNL     1      -2.309  -3.139  -3.676  0.00  0.00    +0.020 A 
ATOM     21  C   UNL     1      -2.933  -4.374  -3.651  0.00  0.00    +0.041 A 
ATOM     22  C   UNL     1      -2.279  -5.468  -3.111  0.00  0.00    +0.020 A 
ATOM     23  C   UNL     1      -1.002  -5.327  -2.603  0.00  0.00    +0.006 A 
ATOM     24 CL   UNL     1      -4.535  -4.551  -4.296  0.00  0.00    -0.084 Cl
ENDBRANCH  17  18
BRANCH  17  25
ATOM     25  C   UNL     1       1.855  -3.230  -3.038  0.00  0.00    +0.075 C 
ATOM     26  N   UNL     1       2.508  -2.684  -3.790  0.00  0.00    -0.196 NA
ENDBRANCH  17  25
ENDBRANCH  12  17
ENDBRANCH   1  15
BRANCH   3  27
ATOM     27  N   UNL     1       0.965   0.537   5.187  0.00  0.00    +0.063 N 
ATOM     28  O   UNL     1       0.092   1.371   5.114  0.00  0.00    -0.126 OA
ATOM     29  O   UNL     1       2.121   0.878   5.277  0.00  0.00    -0.126 OA
ENDBRANCH   3  27
BRANCH   4  30
ATOM     30  N   UNL     1       0.415  -0.940   7.568  0.00  0.00    -0.297 N 
ATOM     31  H   UNL     1       0.655  -0.001   7.607  0.00  0.00    +0.154 HD
BRANCH  30  32
ATOM     32  C   UNL     1       0.130  -1.635   8.742  0.00  0.00    +0.035 A 
ATOM     33  C   UNL     1       0.461  -2.984   8.873  0.00  0.00    +0.041 A 
ATOM     34  C   UNL     1       0.162  -3.635  10.051  0.00  0.00    +0.084 A 
ATOM     35  N   UNL     1      -0.427  -2.999  11.045  0.00  0.00    -0.367 N 
ATOM     36  C   UNL     1      -0.756  -1.724  10.960  0.00  0.00    +0.084 A 
ATOM     37  C   UNL     1      -0.487  -0.999   9.818  0.00  0.00    +0.041 A 
ATOM     38  H   UNL     1      -0.625  -3.483  11.863  0.00  0.00    +0.165 HD
ENDBRANCH  30  32
ENDBRANCH   4  30
TORSDOF 7
