REMARK  Name = ZINC21971046
REMARK  7 active torsions:
REMARK  status: ('A' for Active; 'I' for Inactive)
REMARK    1  A    between atoms: C_1  and  C_2
REMARK    2  A    between atoms: C_5  and  C_8
REMARK    3  A    between atoms: N_14  and  C_15
REMARK    4  A    between atoms: C_15  and  C_16
REMARK    5  A    between atoms: C_16  and  C_17
REMARK    6  A    between atoms: N_19  and  N_20
REMARK    7  A    between atoms: C_21  and  C_23
REMARK                            x       y       z     vdW  Elec       q    Type
REMARK                         _______ _______ _______ _____ _____    ______ ____
ROOT
ATOM      1  C   UNL     1      -7.070   1.309  -0.105  0.00  0.00    +0.231 C 
ATOM      2  O   UNL     1      -6.806   2.492  -0.066  0.00  0.00    -0.274 OA
ATOM      3  N   UNL     1      -6.078   0.397  -0.114  0.00  0.00    -0.234 N 
ATOM      4  H   UNL     1      -6.317  -0.676  -0.150  0.00  0.00    +0.173 HD
ENDROOT
BRANCH   3   5
ATOM      5  N   UNL     1      -4.741   0.816  -0.077  0.00  0.00    -0.230 N 
ATOM      6  C   UNL     1      -3.749  -0.096  -0.086  0.00  0.00    +0.267 C 
ATOM      7  O   UNL     1      -4.014  -1.283  -0.126  0.00  0.00    -0.268 OA
ATOM      8  H   UNL     1      -4.502   1.889  -0.042  0.00  0.00    +0.173 HD
BRANCH   6   9
ATOM      9  C   UNL     1      -2.351   0.343  -0.048  0.00  0.00    +0.076 A 
ATOM     10  C   UNL     1      -1.197  -0.420  -0.049  0.00  0.00    +0.024 A 
ATOM     11  C   UNL     1       0.026   0.241  -0.001  0.00  0.00    -0.036 A 
ATOM     12  C   UNL     1      -0.020   1.592   0.015  0.00  0.00    -0.006 A 
ATOM     13  S   UNL     1      -1.690   2.001   0.013  0.00  0.00    -0.088 S 
ATOM     14  C   UNL     1       1.166   2.531   0.014  0.00  0.00    +0.043 C 
ATOM     15  C   UNL     1       1.881   2.361   1.365  0.00  0.00    +0.005 C 
ATOM     16  C   UNL     1       2.740   1.119   1.353  0.00  0.00    +0.001 C 
ATOM     17  C   UNL     1       2.013  -0.201   1.394  0.00  0.00    +0.005 C 
ATOM     18  C   UNL     1       1.349  -0.530   0.056  0.00  0.00    +0.036 C 
ENDBRANCH   6   9
ENDBRANCH   3   5
BRANCH   1  19
ATOM     19  C   UNL     1      -8.508   0.859  -0.145  0.00  0.00    +0.119 C 
BRANCH  19  20
ATOM     20  C   UNL     1      -9.426   2.082  -0.126  0.00  0.00    +0.135 C 
BRANCH  20  27
ATOM     21  C   UNL     1     -11.602   1.519  -1.298  0.00  0.00    +0.163 A 
ATOM     22  N   UNL     1     -12.785   1.103  -0.945  0.00  0.00    -0.153 NA
ATOM     23  N   UNL     1     -12.797   0.959   0.450  0.00  0.00    -0.254 N 
ATOM     24  H   UNL     1     -13.710   0.618   0.960  0.00  0.00    +0.191 HD
ATOM     25  C   UNL     1     -11.573   1.300   0.903  0.00  0.00    +0.176 A 
ATOM     26  S   UNL     1     -11.063   1.295   2.537  0.00  0.00    -0.011 S 
ATOM     27  N   UNL     1     -10.824   1.644  -0.164  0.00  0.00    -0.303 N 
BRANCH  21  32
ATOM     28  C   UNL     1      -9.899   2.635  -6.681  0.00  0.00    +0.044 C 
ATOM     29  C   UNL     1     -10.345   2.343  -5.272  0.00  0.00    -0.050 A 
ATOM     30  C   UNL     1     -11.693   2.341  -4.962  0.00  0.00    +0.004 A 
ATOM     31  C   UNL     1     -12.108   2.074  -3.674  0.00  0.00    +0.012 A 
ATOM     32  C   UNL     1     -11.164   1.806  -2.682  0.00  0.00    +0.019 A 
ATOM     33  C   UNL     1      -9.806   1.815  -2.999  0.00  0.00    +0.012 A 
ATOM     34  C   UNL     1      -9.404   2.078  -4.293  0.00  0.00    +0.004 A 
ENDBRANCH  21  32
ENDBRANCH  20  27
ENDBRANCH  19  20
ENDBRANCH   1  19
TORSDOF 6
