REMARK  Name = ZINC03594884
REMARK  5 active torsions:
REMARK  status: ('A' for Active; 'I' for Inactive)
REMARK    1  A    between atoms: C_4  and  C_7
REMARK    2  A    between atoms: C_7  and  C_8
REMARK    3  A    between atoms: C_7  and  N_14
REMARK    4  A    between atoms: C_15  and  C_17
REMARK    5  A    between atoms: C_17  and  N_18
REMARK                            x       y       z     vdW  Elec       q    Type
REMARK                         _______ _______ _______ _____ _____    ______ ____
ROOT
ATOM      1  N   UNL     1      -5.956   1.941   1.057  0.00  0.00    -0.303 N 
ATOM      2  C   UNL     1      -4.811   1.366   0.637  0.00  0.00    +0.232 C 
ATOM      3  O   UNL     1      -3.911   2.054   0.203  0.00  0.00    -0.274 OA
ATOM      4  H   UNL     1      -6.676   1.391   1.404  0.00  0.00    +0.150 HD
ENDROOT
BRANCH   1   5
ATOM      5  C   UNL     1      -6.113   3.396   0.990  0.00  0.00    +0.134 C 
BRANCH   5   9
ATOM      6  C   UNL     1      -7.467   4.504  -2.907  0.00  0.00    +0.000 A 
ATOM      7  C   UNL     1      -6.520   5.274  -2.260  0.00  0.00    +0.000 A 
ATOM      8  C   UNL     1      -6.081   4.916  -0.999  0.00  0.00    +0.006 A 
ATOM      9  C   UNL     1      -6.591   3.787  -0.385  0.00  0.00    -0.023 A 
ATOM     10  C   UNL     1      -7.534   3.013  -1.035  0.00  0.00    +0.006 A 
ATOM     11  C   UNL     1      -7.976   3.374  -2.294  0.00  0.00    +0.000 A 
ENDBRANCH   5   9
BRANCH   5  12
ATOM     12  C   UNL     1      -7.121   3.840   2.017  0.00  0.00    -0.023 A 
ATOM     13  C   UNL     1      -8.264   3.092   2.234  0.00  0.00    +0.006 A 
ATOM     14  C   UNL     1      -9.187   3.497   3.179  0.00  0.00    +0.000 A 
ATOM     15  C   UNL     1      -8.972   4.656   3.902  0.00  0.00    +0.000 A 
ATOM     16  C   UNL     1      -7.832   5.407   3.683  0.00  0.00    +0.000 A 
ATOM     17  C   UNL     1      -6.907   4.999   2.740  0.00  0.00    +0.006 A 
ENDBRANCH   5  12
ENDBRANCH   1   5
BRANCH   2  18
ATOM     18  C   UNL     1      -4.650  -0.131   0.706  0.00  0.00    +0.213 C 
BRANCH  18  19
ATOM     19  N   UNL     1      -3.329  -0.503   0.194  0.00  0.00    -0.215 N 
ATOM     20  C   UNL     1      -2.219  -0.603   0.958  0.00  0.00    +0.251 C 
ATOM     21  O   UNL     1      -2.128  -0.411   2.152  0.00  0.00    -0.272 OA
ATOM     22  C   UNL     1      -1.120  -1.006   0.010  0.00  0.00    +0.138 C 
ATOM     23  C   UNL     1      -0.496  -2.346   0.419  0.00  0.00    +0.045 C 
ATOM     24  C   UNL     1       0.974  -2.169  -0.023  0.00  0.00    +0.038 C 
ATOM     25  C   UNL     1       1.215  -0.674  -0.014  0.00  0.00    -0.042 A 
ATOM     26  C   UNL     1       0.002  -0.004   0.002  0.00  0.00    -0.012 A 
ATOM     27  C   UNL     1      -0.017   1.381   0.010  0.00  0.00    +0.006 A 
ATOM     28  C   UNL     1       1.166   2.094   0.002  0.00  0.00    +0.000 A 
ATOM     29  C   UNL     1       2.375   1.425  -0.013  0.00  0.00    +0.000 A 
ATOM     30  C   UNL     1       2.398   0.044  -0.021  0.00  0.00    +0.004 A 
ATOM     31  N   UNL     1      -1.775  -1.099  -1.295  0.00  0.00    -0.281 N 
ATOM     32  C   UNL     1      -3.070  -0.787  -1.089  0.00  0.00    +0.310 C 
ATOM     33  O   UNL     1      -3.909  -0.765  -1.968  0.00  0.00    -0.252 OA
ATOM     34  H   UNL     1      -1.360  -1.338  -2.139  0.00  0.00    +0.152 HD
ENDBRANCH  18  19
ENDBRANCH   2  18
TORSDOF 5
