REMARK  Name = ZINC31818694
REMARK  3 active torsions:
REMARK  status: ('A' for Active; 'I' for Inactive)
REMARK    1  A    between atoms: C_1  and  C_2
REMARK    2  A    between atoms: C_18  and  C_20
REMARK    3  A    between atoms: C_25  and  C_26
REMARK                            x       y       z     vdW  Elec       q    Type
REMARK                         _______ _______ _______ _____ _____    ______ ____
ROOT
ATOM      1  C   UNL     1      -0.018   1.503   0.010  0.00  0.00    +0.068 C 
ATOM      2  C   UNL     1       0.002  -0.004   0.002  0.00  0.00    +0.066 A 
ATOM      3  C   UNL     1       0.008  -0.810  -1.127  0.00  0.00    +0.023 A 
ATOM      4  C   UNL     1       0.032  -2.116  -0.714  0.00  0.00    +0.134 A 
ATOM      5  N   UNL     1       0.032  -2.117   0.636  0.00  0.00    -0.198 N 
ATOM      6  N   UNL     1       0.023  -0.779   1.062  0.00  0.00    -0.168 NA
ATOM      7  C   UNL     1       0.044  -3.247   1.461  0.00  0.00    +0.178 A 
ATOM      8  C   UNL     1       0.548  -3.159   2.758  0.00  0.00    +0.055 A 
ATOM      9  C   UNL     1       0.539  -4.304   3.537  0.00  0.00    +0.077 A 
ATOM     10  C   UNL     1       0.028  -5.472   2.976  0.00  0.00    +0.289 A 
ATOM     11  O   UNL     1      -0.002  -6.619   3.701  0.00  0.00    -0.264 OA
ATOM     12  N   UNL     1      -0.429  -5.461   1.735  0.00  0.00    -0.105 NA
ATOM     13  N   UNL     1      -0.427  -4.399   1.014  0.00  0.00    -0.126 NA
ATOM     14  N   UNL     1       0.064  -3.175  -1.620  0.00  0.00    -0.270 N 
ATOM     15  C   UNL     1       0.274  -2.892  -2.923  0.00  0.00    +0.219 C 
ATOM     16  O   UNL     1       0.118  -3.767  -3.747  0.00  0.00    -0.275 OA
ATOM     17  C   UNL     1       0.694  -1.524  -3.383  0.00  0.00    +0.109 C 
ATOM     18  C   UNL     1      -0.013  -0.426  -2.584  0.00  0.00    +0.063 C 
ATOM     19  H   UNL     1      -0.061  -4.090  -1.322  0.00  0.00    +0.156 HD
ENDROOT
BRANCH  18  20
ATOM     20  C   UNL     1       0.707   0.884  -2.775  0.00  0.00    -0.028 A 
ATOM     21  C   UNL     1       2.040   0.997  -2.427  0.00  0.00    +0.005 A 
ATOM     22  C   UNL     1       2.700   2.199  -2.602  0.00  0.00    +0.000 A 
ATOM     23  C   UNL     1       2.027   3.288  -3.124  0.00  0.00    +0.001 A 
ATOM     24  C   UNL     1       0.695   3.175  -3.472  0.00  0.00    +0.012 A 
ATOM     25  C   UNL     1       0.035   1.972  -3.302  0.00  0.00    +0.059 A 
BRANCH  25  26
ATOM     26  C   UNL     1      -1.417   1.847  -3.686  0.00  0.00    +0.418 C 
ATOM     27  F   UNL     1      -1.872   3.069  -4.192  0.00  0.00    -0.166 F 
ATOM     28  F   UNL     1      -1.556   0.857  -4.665  0.00  0.00    -0.166 F 
ATOM     29  F   UNL     1      -2.169   1.499  -2.560  0.00  0.00    -0.166 F 
ENDBRANCH  25  26
ENDBRANCH  18  20
TORSDOF 2
