REMARK  Name = ZINC20091557
REMARK  7 active torsions:
REMARK  status: ('A' for Active; 'I' for Inactive)
REMARK    1  A    between atoms: C_1  and  C_2
REMARK    2  A    between atoms: C_2  and  C_3
REMARK    3  A    between atoms: C_3  and  C_4
REMARK    4  A    between atoms: C_4  and  S_5
REMARK    5  A    between atoms: S_5  and  C_6
REMARK    6  A    between atoms: C_11  and  C_21
REMARK    7  A    between atoms: C_25  and  N_27
REMARK                            x       y       z     vdW  Elec       q    Type
REMARK                         _______ _______ _______ _____ _____    ______ ____
ROOT
ATOM      1  C   UNL     1       2.799   3.482   0.133  0.00  0.00    +0.210 A 
ATOM      2  N   UNL     1       1.478   3.286   0.258  0.00  0.00    -0.187 NA
ATOM      3  C   UNL     1       1.197   2.038   0.002  0.00  0.00    +0.219 A 
ATOM      4  N   UNL     1       2.353   1.399  -0.305  0.00  0.00    -0.220 N 
ATOM      5  N   UNL     1       3.370   2.348  -0.210  0.00  0.00    -0.141 NA
ATOM      6  C   UNL     1       2.420  -0.013  -0.658  0.00  0.00    +0.176 C 
ATOM      7  C   UNL     1       1.119  -0.699  -0.301  0.00  0.00    +0.041 C 
ATOM      8  C   UNL     1       0.002  -0.004   0.002  0.00  0.00    +0.020 C 
ATOM      9  N   UNL     1      -0.017   1.370   0.010  0.00  0.00    -0.287 N 
ATOM     10  C   UNL     1      -1.283  -0.716   0.355  0.00  0.00    +0.052 C 
ATOM     11  C   UNL     1      -1.352  -2.052  -0.389  0.00  0.00    +0.014 C 
ATOM     12  C   UNL     1      -0.130  -2.887   0.007  0.00  0.00    +0.080 C 
ATOM     13  C   UNL     1       1.117  -2.105  -0.301  0.00  0.00    +0.163 C 
ATOM     14  O   UNL     1       2.144  -2.702  -0.557  0.00  0.00    -0.292 OA
ATOM     15  H   UNL     1      -0.957   1.940   0.022  0.00  0.00    +0.155 HD
ENDROOT
BRANCH   6  16
ATOM     16  C   UNL     1       2.665  -0.146  -2.139  0.00  0.00    -0.016 A 
ATOM     17  C   UNL     1       1.751   0.369  -3.040  0.00  0.00    +0.006 A 
ATOM     18  C   UNL     1       1.978   0.252  -4.398  0.00  0.00    +0.003 A 
ATOM     19  C   UNL     1       3.114  -0.389  -4.856  0.00  0.00    +0.033 A 
ATOM     20  C   UNL     1       4.025  -0.908  -3.956  0.00  0.00    +0.127 A 
ATOM     21  C   UNL     1       3.800  -0.787  -2.598  0.00  0.00    +0.038 A 
BRANCH  20  22
ATOM     22  N   UNL     1       5.241  -1.595  -4.447  0.00  0.00    +0.056 N 
ATOM     23  O   UNL     1       6.044  -2.053  -3.654  0.00  0.00    -0.126 OA
ATOM     24  O   UNL     1       5.439  -1.701  -5.644  0.00  0.00    -0.126 OA
ENDBRANCH  20  22
ENDBRANCH   6  16
BRANCH   1  25
ATOM     25  S   UNL     1       3.634   5.013   0.386  0.00  0.00    -0.084 S 
BRANCH  25  26
ATOM     26  C   UNL     1       2.309   6.168   0.833  0.00  0.00    +0.077 C 
BRANCH  26  27
ATOM     27  C   UNL     1       2.903   7.555   1.084  0.00  0.00    +0.011 C 
BRANCH  27  29
ATOM     28  C   UNL     1       2.380   9.916   1.712  0.00  0.00    +0.004 C 
ATOM     29  C   UNL     1       1.785   8.529   1.461  0.00  0.00    -0.003 C 
ENDBRANCH  27  29
ENDBRANCH  26  27
ENDBRANCH  25  26
ENDBRANCH   1  25
TORSDOF 6
