REMARK  Name = ZINC36055761
REMARK  8 active torsions:
REMARK  status: ('A' for Active; 'I' for Inactive)
REMARK    1  A    between atoms: C_1  and  C_2
REMARK    2  A    between atoms: C_2  and  C_4
REMARK    3  A    between atoms: C_2  and  N_13
REMARK    4  A    between atoms: C_8  and  N_10
REMARK    5  A    between atoms: N_13  and  C_14
REMARK    6  A    between atoms: C_15  and  C_17
REMARK    7  A    between atoms: C_21  and  C_26
REMARK    8  A    between atoms: C_26  and  C_27
REMARK                            x       y       z     vdW  Elec       q    Type
REMARK                         _______ _______ _______ _____ _____    ______ ____
ROOT
ATOM      1  C   UNL     1      -3.292  -1.346   1.478  0.00  0.00    +0.169 C 
ATOM      2  C   UNL     1      -3.638  -2.617   0.704  0.00  0.00    +0.101 C 
ATOM      3  S   UNL     1      -5.329  -3.115   1.161  0.00  0.00    -0.145 S 
ATOM      4  C   UNL     1      -5.173  -3.390   2.952  0.00  0.00    +0.136 C 
ATOM      5  C   UNL     1      -4.361  -2.275   3.546  0.00  0.00    +0.227 C 
ATOM      6  O   UNL     1      -4.473  -2.091   4.740  0.00  0.00    -0.275 OA
ATOM      7  N   UNL     1      -3.538  -1.480   2.896  0.00  0.00    -0.302 N 
ATOM      8  H   UNL     1      -3.014  -0.888   3.459  0.00  0.00    +0.150 HD
ENDROOT
BRANCH   1  11
ATOM      9  N   UNL     1      -1.435  -0.440   0.119  0.00  0.00    -0.296 N 
ATOM     10  C   UNL     1      -2.416  -0.112  -0.918  0.00  0.00    +0.132 C 
ATOM     11  C   UNL     1      -1.835  -1.027   1.264  0.00  0.00    +0.237 C 
ATOM     12  O   UNL     1      -1.022  -1.298   2.123  0.00  0.00    -0.274 OA
BRANCH   9  14
ATOM     13  C   UNL     1       0.133   1.351  -0.443  0.00  0.00    +0.033 C 
ATOM     14  C   UNL     1      -0.018  -0.129  -0.089  0.00  0.00    +0.103 C 
BRANCH  14  15
ATOM     15  C   UNL     1       0.521  -0.973  -1.216  0.00  0.00    -0.025 A 
ATOM     16  C   UNL     1      -0.091  -0.944  -2.455  0.00  0.00    +0.005 A 
ATOM     17  C   UNL     1       0.403  -1.718  -3.488  0.00  0.00    +0.003 A 
ATOM     18  C   UNL     1       1.510  -2.520  -3.282  0.00  0.00    +0.033 A 
ATOM     19  C   UNL     1       2.122  -2.548  -2.044  0.00  0.00    +0.127 A 
ATOM     20  C   UNL     1       1.631  -1.771  -1.012  0.00  0.00    +0.038 A 
BRANCH  19  21
ATOM     21  N   UNL     1       3.307  -3.408  -1.824  0.00  0.00    +0.056 N 
ATOM     22  O   UNL     1       3.739  -4.085  -2.727  0.00  0.00    -0.126 OA
ATOM     23  O   UNL     1       3.843  -3.432  -0.740  0.00  0.00    -0.126 OA
ENDBRANCH  19  21
ENDBRANCH  14  15
ENDBRANCH   9  14
ENDBRANCH   1  11
BRANCH   4  24
ATOM     24  C   UNL     1      -6.564  -3.410   3.591  0.00  0.00    +0.058 C 
BRANCH  24  25
ATOM     25  C   UNL     1      -7.337  -4.595   3.073  0.00  0.00    -0.046 A 
ATOM     26  C   UNL     1      -8.110  -4.471   1.933  0.00  0.00    +0.006 A 
ATOM     27  C   UNL     1      -8.819  -5.558   1.457  0.00  0.00    +0.038 A 
ATOM     28  C   UNL     1      -8.756  -6.770   2.122  0.00  0.00    +0.123 A 
ATOM     29  C   UNL     1      -7.982  -6.893   3.263  0.00  0.00    +0.038 A 
ATOM     30  C   UNL     1      -7.269  -5.807   3.734  0.00  0.00    +0.006 A 
ATOM     31  F   UNL     1      -9.449  -7.833   1.657  0.00  0.00    -0.205 F 
ENDBRANCH  24  25
ENDBRANCH   4  24
TORSDOF 6
