REMARK  Name = ZINC04990877
REMARK  11 active torsions:
REMARK  status: ('A' for Active; 'I' for Inactive)
REMARK    1  A    between atoms: C_3  and  C_6
REMARK    2  A    between atoms: C_6  and  C_7
REMARK    3  A    between atoms: C_6  and  C_14
REMARK    4  A    between atoms: C_6  and  O_28
REMARK    5  A    between atoms: C_7  and  C_8
REMARK    6  A    between atoms: C_8  and  N_65
REMARK    7  A    between atoms: C_14  and  C_15
REMARK    8  A    between atoms: C_14  and  C_22
REMARK    9  A    between atoms: C_14  and  O_27
REMARK   10  A    between atoms: C_15  and  C_16
REMARK   11  A    between atoms: C_16  and  N_67
REMARK                            x       y       z     vdW  Elec       q    Type
REMARK                         _______ _______ _______ _____ _____    ______ ____
ROOT
ATOM      1  C   UNL     1       1.241   5.755   0.350  0.00  0.00    +0.128 C 
ENDROOT
BRANCH   1   4
ATOM      2  C   UNL     1       2.908   7.046   3.523  0.00  0.00    +0.008 A 
ATOM      3  C   UNL     1       2.203   6.176   2.712  0.00  0.00    +0.014 A 
ATOM      4  C   UNL     1       1.970   6.523   1.422  0.00  0.00    +0.024 A 
ATOM      5  S   UNL     1       2.750   8.126   1.324  0.00  0.00    -0.099 S 
ATOM      6  C   UNL     1       3.334   8.225   3.008  0.00  0.00    +0.045 A 
ENDBRANCH   1   4
BRANCH   1   7
ATOM      7  O   UNL     1       0.654   4.582   0.919  0.00  0.00    -0.380 OA
ATOM      8  H   UNL     1       0.168   4.038   0.284  0.00  0.00    +0.211 HD
ENDBRANCH   1   7
BRANCH   1   9
ATOM      9  C   UNL     1       0.142   6.635  -0.250  0.00  0.00    +0.025 C 
BRANCH   9  10
ATOM     10  C   UNL     1      -0.773   7.141   0.867  0.00  0.00    -0.076 C 
BRANCH  10  16
ATOM     11  C   UNL     1      -1.262   9.211  -0.288  0.00  0.00    -0.079 C 
ATOM     12  C   UNL     1      -2.365   9.994  -1.005  0.00  0.00    -0.019 C 
ATOM     13  C   UNL     1      -3.470  10.342  -0.003  0.00  0.00    -0.004 C 
ATOM     14  C   UNL     1      -4.008   9.051   0.620  0.00  0.00    -0.019 C 
ATOM     15  C   UNL     1      -2.858   8.296   1.290  0.00  0.00    -0.079 C 
ATOM     16  N   UNL     1      -1.840   7.969   0.269  0.00  0.00    +0.380 N 
ATOM     17  H   UNL     1      -2.287   7.441  -0.490  0.00  0.00    -0.082 HD
ENDBRANCH  10  16
ENDBRANCH   9  10
ENDBRANCH   1   9
BRANCH   1  18
ATOM     18  C   UNL     1       2.227   5.351  -0.748  0.00  0.00    +0.128 C 
BRANCH  18  19
ATOM     19  C   UNL     1       3.287   4.452  -0.164  0.00  0.00    +0.024 A 
ATOM     20  C   UNL     1       4.617   4.677  -0.029  0.00  0.00    +0.014 A 
ATOM     21  C   UNL     1       5.408   3.698   0.542  0.00  0.00    +0.008 A 
ATOM     22  C   UNL     1       4.830   2.542   0.950  0.00  0.00    +0.045 A 
ATOM     23  S   UNL     1       3.116   2.818   0.534  0.00  0.00    -0.099 S 
ENDBRANCH  18  19
BRANCH  18  24
ATOM     24  O   UNL     1       2.841   6.521  -1.291  0.00  0.00    -0.380 OA
ATOM     25  H   UNL     1       2.217   7.146  -1.685  0.00  0.00    +0.211 HD
ENDBRANCH  18  24
BRANCH  18  26
ATOM     26  C   UNL     1       1.480   4.605  -1.855  0.00  0.00    +0.025 C 
BRANCH  26  27
ATOM     27  C   UNL     1       2.482   4.093  -2.891  0.00  0.00    -0.076 C 
BRANCH  27  33
ATOM     28  C   UNL     1       1.136   2.156  -3.436  0.00  0.00    -0.079 C 
ATOM     29  C   UNL     1       0.280   1.516  -4.532  0.00  0.00    -0.019 C 
ATOM     30  C   UNL     1       1.166   1.184  -5.735  0.00  0.00    -0.004 C 
ATOM     31  C   UNL     1       1.848   2.464  -6.226  0.00  0.00    -0.019 C 
ATOM     32  C   UNL     1       2.658   3.077  -5.082  0.00  0.00    -0.079 C 
ATOM     33  N   UNL     1       1.744   3.396  -3.964  0.00  0.00    +0.380 N 
ATOM     34  H   UNL     1       0.998   4.011  -4.310  0.00  0.00    -0.082 HD
ENDBRANCH  27  33
ENDBRANCH  26  27
ENDBRANCH  18  26
ENDBRANCH   1  18
TORSDOF 11
