REMARK  Name = ZINC13621179
REMARK  13 active torsions:
REMARK  status: ('A' for Active; 'I' for Inactive)
REMARK    1  A    between atoms: C_1  and  C_2
REMARK    2  A    between atoms: C_2  and  O_3
REMARK    3  A    between atoms: O_3  and  C_4
REMARK    4  A    between atoms: C_7  and  C_10
REMARK    5  A    between atoms: C_11  and  C_12
REMARK    6  A    between atoms: N_14  and  C_15
REMARK    7  A    between atoms: C_15  and  N_17
REMARK    8  A    between atoms: N_17  and  N_18
REMARK    9  A    between atoms: C_19  and  C_21
REMARK   10  A    between atoms: C_24  and  N_27
REMARK   11  A    between atoms: C_28  and  C_30
REMARK   12  A    between atoms: C_30  and  C_31
REMARK   13  A    between atoms: C_30  and  C_32
REMARK                            x       y       z     vdW  Elec       q    Type
REMARK                         _______ _______ _______ _____ _____    ______ ____
ROOT
ATOM      1  N   UNL     1       0.149   9.832   0.513  0.00  0.00    -0.245 N 
ATOM      2  H   UNL     1      -0.678  10.332   0.589  0.00  0.00    +0.172 HD
ENDROOT
BRANCH   1   3
ATOM      3  N   UNL     1       0.117   8.435   0.414  0.00  0.00    -0.231 N 
ATOM      4  C   UNL     1      -1.064   7.786   0.423  0.00  0.00    +0.260 C 
ATOM      5  O   UNL     1      -2.102   8.413   0.518  0.00  0.00    -0.269 OA
ATOM      6  H   UNL     1       0.945   7.935   0.338  0.00  0.00    +0.173 HD
BRANCH   4   7
ATOM      7  C   UNL     1      -1.098   6.314   0.318  0.00  0.00    +0.038 A 
ATOM      8  C   UNL     1      -2.322   5.640   0.327  0.00  0.00    +0.015 A 
ATOM      9  C   UNL     1      -2.350   4.267   0.229  0.00  0.00    +0.024 A 
ATOM     10  C   UNL     1      -1.162   3.551   0.119  0.00  0.00    +0.033 A 
ATOM     11  C   UNL     1       0.058   4.219   0.115  0.00  0.00    +0.024 A 
ATOM     12  C   UNL     1       0.093   5.592   0.208  0.00  0.00    +0.015 A 
BRANCH  10  13
ATOM     13  N   UNL     1      -1.195   2.161   0.019  0.00  0.00    -0.285 N 
ATOM     14  C   UNL     1      -0.267   1.516  -0.716  0.00  0.00    +0.220 C 
ATOM     15  O   UNL     1       0.535   2.149  -1.370  0.00  0.00    -0.275 OA
ATOM     16  H   UNL     1      -1.884   1.657   0.480  0.00  0.00    +0.155 HD
BRANCH  14  17
ATOM     17  C   UNL     1      -0.231   0.010  -0.731  0.00  0.00    +0.069 C 
ATOM     18  C   UNL     1      -1.565  -0.527  -1.255  0.00  0.00    +0.017 C 
ATOM     19  C   UNL     1       0.903  -0.464  -1.643  0.00  0.00    +0.017 C 
ENDBRANCH  14  17
ENDBRANCH  10  13
ENDBRANCH   4   7
ENDBRANCH   1   3
BRANCH   1  20
ATOM     20  C   UNL     1       1.330  10.482   0.504  0.00  0.00    +0.153 C 
ATOM     21  S   UNL     1       1.370  12.189   0.626  0.00  0.00    -0.017 S 
BRANCH  20  24
ATOM     22  C   UNL     1       3.661  10.436   0.390  0.00  0.00    +0.242 C 
ATOM     23  O   UNL     1       3.689  11.649   0.476  0.00  0.00    -0.270 OA
ATOM     24  N   UNL     1       2.480   9.787   0.399  0.00  0.00    -0.263 N 
ATOM     25  H   UNL     1       2.458   8.819   0.330  0.00  0.00    +0.157 HD
BRANCH  22  27
ATOM     26  C   UNL     1       6.092  10.333   0.267  0.00  0.00    +0.013 C 
ATOM     27  C   UNL     1       4.908   9.682   0.276  0.00  0.00    +0.068 C 
BRANCH  26  31
ATOM     28  C   UNL     1       9.711   8.146  -0.064  0.00  0.00    +0.121 A 
ATOM     29  C   UNL     1       9.746   9.532   0.035  0.00  0.00    +0.046 A 
ATOM     30  C   UNL     1       8.574  10.247   0.142  0.00  0.00    +0.011 A 
ATOM     31  C   UNL     1       7.346   9.575   0.152  0.00  0.00    -0.025 A 
ATOM     32  C   UNL     1       7.317   8.178   0.058  0.00  0.00    +0.011 A 
ATOM     33  C   UNL     1       8.494   7.474  -0.054  0.00  0.00    +0.046 A 
BRANCH  28  34
ATOM     34  O   UNL     1      10.869   7.446  -0.170  0.00  0.00    -0.492 OA
BRANCH  34  36
ATOM     35  C   UNL     1      12.160   5.414  -0.378  0.00  0.00    +0.048 C 
ATOM     36  C   UNL     1      10.762   6.024  -0.268  0.00  0.00    +0.225 C 
ENDBRANCH  34  36
ENDBRANCH  28  34
ENDBRANCH  26  31
ENDBRANCH  22  27
ENDBRANCH  20  24
ENDBRANCH   1  20
TORSDOF 10
