REMARK  Name = ZINC38610236
REMARK  6 active torsions:
REMARK  status: ('A' for Active; 'I' for Inactive)
REMARK    1  A    between atoms: C_1  and  O_2
REMARK    2  A    between atoms: O_2  and  C_3
REMARK    3  A    between atoms: C_3  and  C_5
REMARK    4  A    between atoms: C_7  and  N_16
REMARK    5  A    between atoms: C_17  and  O_19
REMARK    6  A    between atoms: O_19  and  C_20
REMARK                            x       y       z     vdW  Elec       q    Type
REMARK                         _______ _______ _______ _____ _____    ______ ____
ROOT
ATOM      1  C   UNL     1       0.666  -2.015   1.153  0.00  0.00    +0.234 C 
ATOM      2  C   UNL     1      -0.572  -2.643   1.754  0.00  0.00    +0.056 C 
ATOM      3  C   UNL     1      -0.131  -3.374   2.843  0.00  0.00    +0.019 A 
ATOM      4  C   UNL     1      -0.810  -4.173   3.795  0.00  0.00    +0.026 A 
ATOM      5  C   UNL     1      -0.107  -4.788   4.779  0.00  0.00    +0.019 A 
ATOM      6  C   UNL     1       1.280  -4.654   4.882  0.00  0.00    +0.017 A 
ATOM      7  C   UNL     1       1.994  -3.906   4.007  0.00  0.00    +0.027 A 
ATOM      8  C   UNL     1       1.331  -3.231   2.950  0.00  0.00    +0.045 A 
ATOM      9  N   UNL     1       1.789  -2.456   1.985  0.00  0.00    -0.367 N 
ATOM     10 BR   UNL     1      -1.028  -5.852   6.043  0.00  0.00    -0.050 Br
ATOM     11  H   UNL     1       2.719  -2.216   1.849  0.00  0.00    +0.161 HD
ENDROOT
BRANCH   2  12
ATOM     12  N   UNL     1      -1.855  -2.514   1.314  0.00  0.00    -0.251 N 
ATOM     13  C   UNL     1      -2.107  -1.908   0.137  0.00  0.00    +0.410 C 
ATOM     14  O   UNL     1      -1.187  -1.570  -0.581  0.00  0.00    -0.226 OA
ATOM     15  H   UNL     1      -2.587  -2.859   1.849  0.00  0.00    +0.158 HD
BRANCH  13  16
ATOM     16  O   UNL     1      -3.377  -1.677  -0.243  0.00  0.00    -0.411 OA
BRANCH  16  17
ATOM     17  C   UNL     1      -3.583  -0.972  -1.386  0.00  0.00    +0.133 A 
ATOM     18  C   UNL     1      -3.387  -1.575  -2.620  0.00  0.00    +0.046 A 
ATOM     19  C   UNL     1      -3.597  -0.856  -3.781  0.00  0.00    +0.004 A 
ATOM     20  C   UNL     1      -4.003   0.464  -3.714  0.00  0.00    +0.000 A 
ATOM     21  C   UNL     1      -4.199   1.068  -2.486  0.00  0.00    +0.004 A 
ATOM     22  C   UNL     1      -3.996   0.351  -1.322  0.00  0.00    +0.046 A 
ENDBRANCH  16  17
ENDBRANCH  13  16
ENDBRANCH   2  12
BRANCH   1  23
ATOM     23  C   UNL     1       0.554  -0.512   1.186  0.00  0.00    +0.335 C 
ATOM     24  O   UNL     1       0.997   0.106   2.124  0.00  0.00    -0.248 OA
BRANCH  23  26
ATOM     25  C   UNL     1      -0.108   1.563   0.269  0.00  0.00    +0.280 C 
ATOM     26  O   UNL     1      -0.038   0.139   0.172  0.00  0.00    -0.466 OA
ENDBRANCH  23  26
ENDBRANCH   1  23
TORSDOF 5
