REMARK  Name = ZINC19331156
REMARK  6 active torsions:
REMARK  status: ('A' for Active; 'I' for Inactive)
REMARK    1  A    between atoms: C_1  and  C_2
REMARK    2  A    between atoms: C_2  and  C_3
REMARK    3  A    between atoms: C_2  and  N_4
REMARK    4  A    between atoms: C_16  and  C_30
REMARK    5  A    between atoms: C_20  and  C_24
REMARK    6  A    between atoms: C_22  and  O_23
REMARK                            x       y       z     vdW  Elec       q    Type
REMARK                         _______ _______ _______ _____ _____    ______ ____
ROOT
ATOM      1  N   UNL     1      -0.017   1.379   0.010  0.00  0.00    -0.268 N 
ATOM      2  C   UNL     1       0.002  -0.004   0.002  0.00  0.00    +0.040 A 
ATOM      3  C   UNL     1      -1.063  -0.906   0.009  0.00  0.00    +0.024 A 
ATOM      4  C   UNL     1      -0.751  -2.256  -0.002  0.00  0.00    +0.002 A 
ATOM      5  C   UNL     1       0.553  -2.705  -0.017  0.00  0.00    +0.000 A 
ATOM      6  C   UNL     1       1.624  -1.817  -0.024  0.00  0.00    +0.006 A 
ATOM      7  C   UNL     1       1.321  -0.473  -0.014  0.00  0.00    -0.014 A 
ATOM      8  C   UNL     1       2.197   0.741  -0.014  0.00  0.00    +0.095 C 
ATOM      9  C   UNL     1       1.227   1.903   0.001  0.00  0.00    +0.228 C 
ATOM     10  O   UNL     1       1.514   3.081   0.003  0.00  0.00    -0.275 OA
ATOM     11  N   UNL     1       3.026   0.790  -1.223  0.00  0.00    +0.402 N 
ATOM     12  C   UNL     1       3.804   2.054  -1.267  0.00  0.00    -0.060 C 
ATOM     13  C   UNL     1       4.704   2.107  -0.026  0.00  0.00    +0.021 C 
ATOM     14  C   UNL     1       3.826   2.023   1.228  0.00  0.00    +0.096 C 
ATOM     15  N   UNL     1       3.045   0.776   1.182  0.00  0.00    -0.299 NA
ATOM     16  C   UNL     1       3.940  -0.393   1.213  0.00  0.00    +0.096 C 
ATOM     17  C   UNL     1       4.821  -0.380  -0.042  0.00  0.00    +0.021 C 
ATOM     18  C   UNL     1       3.920  -0.379  -1.282  0.00  0.00    -0.060 C 
ATOM     19  C   UNL     1       5.658   0.906  -0.042  0.00  0.00    +0.134 C 
ATOM     20  H   UNL     1       2.360   0.753  -2.097  0.00  0.00    -0.078 HD
ENDROOT
BRANCH  17  21
ATOM     21  C   UNL     1       5.726  -1.584  -0.064  0.00  0.00    -0.039 A 
ATOM     22  C   UNL     1       5.676  -2.506   0.965  0.00  0.00    +0.004 A 
ATOM     23  C   UNL     1       6.503  -3.613   0.943  0.00  0.00    +0.000 A 
ATOM     24  C   UNL     1       7.388  -3.793  -0.104  0.00  0.00    +0.000 A 
ATOM     25  C   UNL     1       7.442  -2.869  -1.130  0.00  0.00    +0.000 A 
ATOM     26  C   UNL     1       6.612  -1.764  -1.110  0.00  0.00    +0.004 A 
ENDBRANCH  17  21
BRANCH  13  27
ATOM     27  C   UNL     1       5.493   3.391  -0.017  0.00  0.00    -0.039 A 
ATOM     28  C   UNL     1       5.341   4.303  -1.045  0.00  0.00    +0.004 A 
ATOM     29  C   UNL     1       6.062   5.483  -1.034  0.00  0.00    +0.000 A 
ATOM     30  C   UNL     1       6.941   5.746  -0.001  0.00  0.00    +0.000 A 
ATOM     31  C   UNL     1       7.097   4.832   1.025  0.00  0.00    +0.000 A 
ATOM     32  C   UNL     1       6.373   3.654   1.016  0.00  0.00    +0.004 A 
ENDBRANCH  13  27
BRANCH   1  34
ATOM     33  C   UNL     1      -2.071   1.864  -1.227  0.00  0.00    +0.028 C 
ATOM     34  C   UNL     1      -1.242   2.182   0.020  0.00  0.00    +0.075 C 
ATOM     35  C   UNL     1      -2.058   1.851   1.272  0.00  0.00    +0.028 C 
ENDBRANCH   1  34
BRANCH  19  36
ATOM     36  O   UNL     1       6.489   0.938   1.120  0.00  0.00    -0.390 OA
ATOM     37  H   UNL     1       7.240   0.150   1.281  0.00  0.00    +0.210 HD
ENDBRANCH  19  36
TORSDOF 4
