REMARK  Name = ZINC00291140
REMARK  3 active torsions:
REMARK  status: ('A' for Active; 'I' for Inactive)
REMARK    1  A    between atoms: C_6  and  C_11
REMARK    2  A    between atoms: N_12  and  N_13
REMARK    3  A    between atoms: C_14  and  C_16
REMARK                            x       y       z     vdW  Elec       q    Type
REMARK                         _______ _______ _______ _____ _____    ______ ____
ROOT
ATOM      1  N   UNL     1      -3.604  -0.827   0.032  0.00  0.00    -0.204 N 
ATOM      2  C   UNL     1      -4.778  -0.164   0.047  0.00  0.00    +0.276 C 
ATOM      3  O   UNL     1      -4.789   1.049   0.054  0.00  0.00    -0.270 OA
ATOM      4  H   UNL     1      -3.595  -1.797   0.027  0.00  0.00    +0.177 HD
ENDROOT
BRANCH   2   5
ATOM      5  C   UNL     1      -6.075  -0.930   0.056  0.00  0.00    +0.297 C 
ATOM      6  C   UNL     1      -6.212  -1.702   1.375  0.00  0.00    +0.283 C 
ATOM      7  O   UNL     1      -7.459  -2.405   1.355  0.00  0.00    -0.484 OA
ATOM      8  C   UNL     1      -8.551  -1.703   0.946  0.00  0.00    +0.162 A 
ATOM      9  C   UNL     1      -9.819  -2.187   1.234  0.00  0.00    +0.049 A 
ATOM     10  C   UNL     1     -10.937  -1.489   0.820  0.00  0.00    +0.004 A 
ATOM     11  C   UNL     1     -10.796  -0.306   0.119  0.00  0.00    +0.004 A 
ATOM     12  C   UNL     1      -9.536   0.183  -0.170  0.00  0.00    +0.049 A 
ATOM     13  C   UNL     1      -8.409  -0.513   0.243  0.00  0.00    +0.163 A 
ATOM     14  O   UNL     1      -7.175  -0.018  -0.046  0.00  0.00    -0.472 OA
ENDBRANCH   2   5
BRANCH   1  16
ATOM     15  C   UNL     1      -1.268  -0.753   0.010  0.00  0.00    +0.138 C 
ATOM     16  N   UNL     1      -2.398  -0.115   0.025  0.00  0.00    -0.188 NA
BRANCH  15  22
ATOM     17  C   UNL     1       4.769   1.488  -0.037  0.00  0.00    +0.001 A 
ATOM     18  C   UNL     1       4.802   0.095  -0.045  0.00  0.00    +0.001 A 
ATOM     19  C   UNL     1       3.652  -0.632  -0.038  0.00  0.00    +0.008 A 
ATOM     20  C   UNL     1       2.410   0.029  -0.021  0.00  0.00    -0.017 A 
ATOM     21  C   UNL     1       1.206  -0.691  -0.014  0.00  0.00    +0.018 A 
ATOM     22  C   UNL     1       0.002  -0.004   0.002  0.00  0.00    -0.005 A 
ATOM     23  C   UNL     1      -0.017   1.403   0.010  0.00  0.00    +0.010 A 
ATOM     24  C   UNL     1       1.139   2.115   0.003  0.00  0.00    +0.009 A 
ATOM     25  C   UNL     1       2.377   1.446  -0.013  0.00  0.00    -0.018 A 
ATOM     26  C   UNL     1       3.586   2.162  -0.021  0.00  0.00    +0.008 A 
ENDBRANCH  15  22
ENDBRANCH   1  16
TORSDOF 3
