REMARK  Name = ZINC02291088
REMARK  5 active torsions:
REMARK  status: ('A' for Active; 'I' for Inactive)
REMARK    1  A    between atoms: C_9  and  C_22
REMARK    2  A    between atoms: C_10  and  N_21
REMARK    3  A    between atoms: N_11  and  C_14
REMARK    4  A    between atoms: N_24  and  C_25
REMARK    5  A    between atoms: C_25  and  C_26
REMARK                            x       y       z     vdW  Elec       q    Type
REMARK                         _______ _______ _______ _____ _____    ______ ____
ROOT
ATOM      1  C   UNL     1       1.013   7.111   5.772  0.00  0.00    +0.002 A 
ATOM      2  C   UNL     1       0.118   7.114   6.841  0.00  0.00    +0.002 A 
ATOM      3  C   UNL     1      -0.749   6.082   7.031  0.00  0.00    +0.030 A 
ATOM      4  C   UNL     1      -0.748   4.994   6.139  0.00  0.00    +0.092 A 
ATOM      5  C   UNL     1       0.162   4.991   5.052  0.00  0.00    +0.090 A 
ATOM      6  C   UNL     1       1.043   6.077   4.889  0.00  0.00    +0.030 A 
ATOM      7  N   UNL     1       0.182   3.968   4.189  0.00  0.00    -0.241 NA
ATOM      8  C   UNL     1      -0.650   2.960   4.357  0.00  0.00    +0.123 A 
ATOM      9  C   UNL     1      -0.906   1.704   3.634  0.00  0.00    +0.104 A 
ATOM     10  C   UNL     1      -1.930   1.056   4.315  0.00  0.00    +0.117 A 
ATOM     11  N   UNL     1      -2.322   1.791   5.395  0.00  0.00    -0.280 N 
ATOM     12  C   UNL     1      -1.591   2.960   5.480  0.00  0.00    +0.166 A 
ATOM     13  N   UNL     1      -1.598   3.975   6.318  0.00  0.00    -0.225 NA
ENDROOT
BRANCH  11  14
ATOM     14  C   UNL     1      -3.330   1.414   6.292  0.00  0.00    +0.050 A 
ATOM     15  C   UNL     1      -3.017   1.143   7.617  0.00  0.00    +0.027 A 
ATOM     16  C   UNL     1      -4.014   0.777   8.500  0.00  0.00    +0.017 A 
ATOM     17  C   UNL     1      -5.322   0.669   8.063  0.00  0.00    +0.018 A 
ATOM     18  C   UNL     1      -5.636   0.934   6.741  0.00  0.00    +0.017 A 
ATOM     19  C   UNL     1      -4.644   1.306   5.856  0.00  0.00    +0.027 A 
ATOM     20 BR   UNL     1      -6.683   0.160   9.273  0.00  0.00    -0.050 Br
ENDBRANCH  11  14
BRANCH   9  21
ATOM     21  C   UNL     1      -0.222   1.232   2.431  0.00  0.00    +0.250 C 
ATOM     22  O   UNL     1       0.779   0.545   2.530  0.00  0.00    -0.270 OA
ATOM     23  N   UNL     1      -0.698   1.558   1.213  0.00  0.00    -0.309 N 
ATOM     24  H   UNL     1      -1.495   2.106   1.135  0.00  0.00    +0.149 HD
BRANCH  23  25
ATOM     25  C   UNL     1      -0.013   1.086   0.008  0.00  0.00    +0.136 C 
BRANCH  25  26
ATOM     26  C   UNL     1      -0.753   1.593  -1.232  0.00  0.00    +0.135 C 
ATOM     27  C   UNL     1      -0.121   1.004  -2.513  0.00  0.00    +0.035 C 
ATOM     28  C   UNL     1      -0.201   2.160  -3.535  0.00  0.00    +0.031 C 
ATOM     29  C   UNL     1      -0.872   3.309  -2.751  0.00  0.00    +0.160 C 
ATOM     30  O   UNL     1      -0.592   3.022  -1.364  0.00  0.00    -0.375 OA
ENDBRANCH  25  26
ENDBRANCH  23  25
ENDBRANCH   9  21
BRANCH  10  31
ATOM     31  N   UNL     1      -2.468  -0.152   3.955  0.00  0.00    -0.343 N 
ATOM     32  H   UNL     1      -2.134  -0.618   3.173  0.00  0.00    +0.144 HD
ATOM     33  H   UNL     1      -3.183  -0.541   4.482  0.00  0.00    +0.144 HD
ENDBRANCH  10  31
TORSDOF 5
