REMARK  Name = ZINC39631862
REMARK  13 active torsions:
REMARK  status: ('A' for Active; 'I' for Inactive)
REMARK    1  A    between atoms: C_1  and  C_2
REMARK    2  A    between atoms: C_2  and  C_4
REMARK    3  A    between atoms: C_2  and  N_11
REMARK    4  A    between atoms: C_4  and  C_5
REMARK    5  A    between atoms: C_5  and  C_6
REMARK    6  A    between atoms: C_6  and  C_7
REMARK    7  A    between atoms: C_7  and  C_8
REMARK    8  A    between atoms: C_7  and  C_9
REMARK    9  A    between atoms: C_7  and  O_10
REMARK   10  A    between atoms: C_12  and  C_14
REMARK   11  A    between atoms: C_25  and  C_27
REMARK   12  A    between atoms: C_31  and  O_32
REMARK   13  A    between atoms: O_32  and  C_33
REMARK                            x       y       z     vdW  Elec       q    Type
REMARK                         _______ _______ _______ _____ _____    ______ ____
ROOT
ATOM      1  C   UNL     1       0.796  -1.140   3.582  0.00  0.00    +0.100 C 
ATOM      2  C   UNL     1       1.984  -0.210   3.915  0.00  0.00    +0.121 C 
ATOM      3  N   UNL     1       1.448   0.738   4.919  0.00  0.00    -0.296 N 
ATOM      4  C   UNL     1       0.580  -0.095   5.786  0.00  0.00    +0.115 C 
ATOM      5  C   UNL     1      -0.121  -1.064   4.814  0.00  0.00    -0.004 C 
ATOM      6  C   UNL     1      -0.263  -2.442   5.453  0.00  0.00    -0.010 C 
ATOM      7  C   UNL     1      -1.226  -2.353   6.640  0.00  0.00    -0.082 C 
ATOM      8  N   UNL     1      -2.532  -1.870   6.178  0.00  0.00    +0.379 N 
ATOM      9  C   UNL     1      -2.403  -0.506   5.649  0.00  0.00    -0.082 C 
ATOM     10  C   UNL     1      -1.490  -0.517   4.420  0.00  0.00    -0.010 C 
ATOM     11  C   UNL     1       1.694   2.059   5.022  0.00  0.00    +0.251 C 
ATOM     12  O   UNL     1       2.357   2.623   4.172  0.00  0.00    -0.270 OA
ATOM     13  H   UNL     1      -2.877  -2.479   5.451  0.00  0.00    -0.086 HD
ATOM     14  H   UNL     1      -3.182  -1.870   6.950  0.00  0.00    -0.086 HD
ENDROOT
BRANCH  11  15
ATOM     15  C   UNL     1       1.161   2.820   6.162  0.00  0.00    +0.087 A 
ATOM     16  C   UNL     1       1.051   2.259   7.416  0.00  0.00    +0.063 A 
ATOM     17  S   UNL     1       0.406   3.484   8.363  0.00  0.00    -0.081 S 
ATOM     18  C   UNL     1       0.259   4.775   7.147  0.00  0.00    +0.120 A 
ATOM     19  C   UNL     1       0.734   4.193   6.023  0.00  0.00    +0.158 A 
ATOM     20 CL   UNL     1      -0.342   6.390   7.356  0.00  0.00    -0.072 Cl
BRANCH  19  21
ATOM     21  O   UNL     1       0.800   4.857   4.835  0.00  0.00    -0.492 OA
ATOM     22  C   UNL     1      -0.344   4.778   3.983  0.00  0.00    +0.277 C 
ENDBRANCH  19  21
ENDBRANCH  11  15
BRANCH   1  24
ATOM     23  N   UNL     1      -0.546  -1.523   1.540  0.00  0.00    -0.312 N 
ATOM     24  C   UNL     1       0.071  -0.646   2.356  0.00  0.00    +0.218 C 
ATOM     25  O   UNL     1       0.043   0.540   2.105  0.00  0.00    -0.275 OA
ATOM     26  H   UNL     1      -0.524  -2.472   1.741  0.00  0.00    +0.149 HD
BRANCH  23  28
ATOM     27  C   UNL     1      -0.258  -0.893  -0.805  0.00  0.00    +0.028 C 
ATOM     28  C   UNL     1      -1.251  -1.044   0.348  0.00  0.00    +0.070 C 
BRANCH  28  29
ATOM     29  C   UNL     1      -2.337  -2.049  -0.041  0.00  0.00    +0.022 C 
BRANCH  29  30
ATOM     30  C   UNL     1      -3.397  -2.107   1.060  0.00  0.00    +0.005 C 
BRANCH  30  31
ATOM     31  C   UNL     1      -4.482  -3.112   0.671  0.00  0.00    +0.034 C 
BRANCH  31  32
ATOM     32  C   UNL     1      -5.543  -3.171   1.772  0.00  0.00    +0.061 C 
ATOM     33  C   UNL     1      -6.561  -4.264   1.443  0.00  0.00    +0.041 C 
ATOM     34  C   UNL     1      -4.871  -3.486   3.111  0.00  0.00    +0.041 C 
BRANCH  32  35
ATOM     35  O   UNL     1      -6.209  -1.910   1.859  0.00  0.00    -0.389 OA
ATOM     36  H   UNL     1      -6.658  -1.645   1.045  0.00  0.00    +0.210 HD
ENDBRANCH  32  35
ENDBRANCH  31  32
ENDBRANCH  30  31
ENDBRANCH  29  30
ENDBRANCH  28  29
ENDBRANCH  23  28
ENDBRANCH   1  24
TORSDOF 9
