REMARK  Name = ZINC25464068
REMARK  6 active torsions:
REMARK  status: ('A' for Active; 'I' for Inactive)
REMARK    1  A    between atoms: C_1  and  C_2
REMARK    2  A    between atoms: C_2  and  C_27
REMARK    3  A    between atoms: N_5  and  C_9
REMARK    4  A    between atoms: C_9  and  C_10
REMARK    5  A    between atoms: C_15  and  N_18
REMARK    6  A    between atoms: C_19  and  C_21
REMARK                            x       y       z     vdW  Elec       q    Type
REMARK                         _______ _______ _______ _____ _____    ______ ____
ROOT
ATOM      1  C   UNL     1       5.654   9.385   1.294  0.00  0.00    +0.234 C 
ATOM      2  O   UNL     1       5.492  10.430   0.700  0.00  0.00    -0.274 OA
ATOM      3  N   UNL     1       5.308   8.220   0.712  0.00  0.00    -0.300 N 
ATOM      4  C   UNL     1       4.732   8.199  -0.640  0.00  0.00    +0.109 C 
ATOM      5  C   UNL     1       3.411   7.426  -0.602  0.00  0.00    +0.041 C 
ATOM      6  C   UNL     1       3.652   6.039  -0.000  0.00  0.00    +0.076 C 
ATOM      7  C   UNL     1       4.167   6.186   1.433  0.00  0.00    +0.041 C 
ATOM      8  C   UNL     1       5.498   6.945   1.418  0.00  0.00    +0.109 C 
ENDROOT
BRANCH   6   9
ATOM      9  N   UNL     1       2.397   5.285   0.007  0.00  0.00    -0.308 N 
ATOM     10  C   UNL     1       2.420   3.937   0.000  0.00  0.00    +0.244 C 
ATOM     11  O   UNL     1       3.483   3.348  -0.012  0.00  0.00    -0.270 OA
ATOM     12  H   UNL     1       1.435   5.818   0.018  0.00  0.00    +0.149 HD
BRANCH  10  13
ATOM     13  C   UNL     1       1.153   3.176   0.008  0.00  0.00    +0.037 A 
ATOM     14  C   UNL     1       1.174   1.780   0.000  0.00  0.00    +0.013 A 
ATOM     15  C   UNL     1      -0.013   1.076   0.008  0.00  0.00    +0.001 A 
ATOM     16  C   UNL     1      -1.221   1.750   0.017  0.00  0.00    +0.000 A 
ATOM     17  C   UNL     1      -1.248   3.133   0.030  0.00  0.00    +0.001 A 
ATOM     18  C   UNL     1      -0.070   3.849   0.022  0.00  0.00    +0.013 A 
ENDBRANCH  10  13
ENDBRANCH   6   9
BRANCH   1  19
ATOM     19  C   UNL     1       6.242   9.390   2.681  0.00  0.00    +0.213 C 
BRANCH  19  24
ATOM     20  C   UNL     1       5.653  14.020   3.219  0.00  0.00    +0.047 C 
ATOM     21  C   UNL     1       6.383  12.883   3.936  0.00  0.00    +0.135 C 
ATOM     22  C   UNL     1       5.658  11.568   3.727  0.00  0.00    +0.251 C 
ATOM     23  O   UNL     1       4.526  11.294   4.066  0.00  0.00    -0.272 OA
ATOM     24  N   UNL     1       6.532  10.768   3.084  0.00  0.00    -0.215 N 
ATOM     25  C   UNL     1       7.698  11.386   2.865  0.00  0.00    +0.310 C 
ATOM     26  O   UNL     1       8.643  10.867   2.306  0.00  0.00    -0.252 OA
ATOM     27  N   UNL     1       7.705  12.649   3.331  0.00  0.00    -0.281 N 
ATOM     28  H   UNL     1       8.460  13.449   3.331  0.00  0.00    +0.152 HD
BRANCH  21  29
ATOM     29  C   UNL     1       6.519  13.185   5.406  0.00  0.00    -0.015 A 
ATOM     30  C   UNL     1       5.560  12.736   6.295  0.00  0.00    +0.009 A 
ATOM     31  C   UNL     1       5.686  13.008   7.644  0.00  0.00    +0.039 A 
ATOM     32  C   UNL     1       6.768  13.740   8.104  0.00  0.00    +0.123 A 
ATOM     33  C   UNL     1       7.725  14.193   7.212  0.00  0.00    +0.039 A 
ATOM     34  C   UNL     1       7.599  13.915   5.864  0.00  0.00    +0.009 A 
ATOM     35  F   UNL     1       6.889  14.011   9.422  0.00  0.00    -0.205 F 
ENDBRANCH  21  29
ENDBRANCH  19  24
ENDBRANCH   1  19
TORSDOF 5
