REMARK  Name = ZINC52599818
REMARK  4 active torsions:
REMARK  status: ('A' for Active; 'I' for Inactive)
REMARK    1  A    between atoms: C_3  and  C_13
REMARK    2  A    between atoms: C_5  and  N_7
REMARK    3  A    between atoms: C_13  and  N_14
REMARK    4  A    between atoms: C_21  and  C_23
REMARK                            x       y       z     vdW  Elec       q    Type
REMARK                         _______ _______ _______ _____ _____    ______ ____
ROOT
ATOM      1  N   UNL     1       4.103   2.437   1.357  0.00  0.00    -0.295 N 
ATOM      2  C   UNL     1       5.241   3.119   1.595  0.00  0.00    +0.303 C 
ATOM      3  O   UNL     1       5.909   3.530   0.667  0.00  0.00    -0.253 OA
ATOM      4  N   UNL     1       5.638   3.344   2.863  0.00  0.00    -0.278 N 
ATOM      5  C   UNL     1       4.931   2.898   4.077  0.00  0.00    +0.110 C 
ATOM      6  C   UNL     1       6.025   2.831   5.172  0.00  0.00    +0.021 C 
ATOM      7  C   UNL     1       6.905   4.056   4.807  0.00  0.00    +0.029 C 
ATOM      8  C   UNL     1       6.852   4.069   3.265  0.00  0.00    +0.114 C 
ATOM      9  H   UNL     1       3.570   2.108   2.098  0.00  0.00    +0.151 HD
ENDROOT
BRANCH   8  10
ATOM     10  C   UNL     1       6.787   5.491   2.770  0.00  0.00    +0.010 A 
ATOM     11  C   UNL     1       7.777   6.265   2.263  0.00  0.00    +0.013 A 
ATOM     12  C   UNL     1       7.483   7.556   1.866  0.00  0.00    +0.008 A 
ATOM     13  C   UNL     1       6.213   8.011   1.997  0.00  0.00    +0.045 A 
ATOM     14  S   UNL     1       5.383   6.591   2.691  0.00  0.00    -0.100 S 
ENDBRANCH   8  10
BRANCH   1  15
ATOM     15  C   UNL     1       3.671   2.192  -0.022  0.00  0.00    +0.141 C 
BRANCH  15  18
ATOM     16  C   UNL     1      -0.017   1.377   0.010  0.00  0.00    +0.002 A 
ATOM     17  C   UNL     1       1.171   2.086   0.002  0.00  0.00    +0.005 A 
ATOM     18  C   UNL     1       2.380   1.415  -0.013  0.00  0.00    -0.029 A 
ATOM     19  C   UNL     1       2.405   0.034  -0.021  0.00  0.00    +0.028 A 
ATOM     20  C   UNL     1       1.215  -0.681  -0.013  0.00  0.00    +0.040 A 
ATOM     21  C   UNL     1       0.002  -0.004   0.002  0.00  0.00    +0.023 A 
BRANCH  20  22
ATOM     22  N   UNL     1       1.237  -2.080  -0.021  0.00  0.00    -0.234 N 
ATOM     23  C   UNL     1       0.059  -2.969  -0.021  0.00  0.00    +0.158 C 
ATOM     24  C   UNL     1       0.677  -4.332  -0.414  0.00  0.00    +0.253 C 
ATOM     25  O   UNL     1       2.049  -4.168  -0.004  0.00  0.00    -0.448 OA
ATOM     26  C   UNL     1       2.337  -2.856  -0.037  0.00  0.00    +0.407 C 
ATOM     27  O   UNL     1       3.470  -2.417  -0.073  0.00  0.00    -0.226 OA
ENDBRANCH  20  22
ENDBRANCH  15  18
ENDBRANCH   1  15
TORSDOF 4
