REMARK  Name = ZINC09060530
REMARK  10 active torsions:
REMARK  status: ('A' for Active; 'I' for Inactive)
REMARK    1  A    between atoms: C_1  and  C_2
REMARK    2  A    between atoms: C_3  and  C_33
REMARK    3  A    between atoms: C_6  and  N_7
REMARK    4  A    between atoms: N_7  and  S_8
REMARK    5  A    between atoms: S_8  and  C_11
REMARK    6  A    between atoms: C_14  and  N_17
REMARK    7  A    between atoms: N_17  and  C_18
REMARK    8  A    between atoms: C_18  and  C_32
REMARK    9  A    between atoms: C_20  and  C_31
REMARK   10  A    between atoms: N_22  and  C_25
REMARK                            x       y       z     vdW  Elec       q    Type
REMARK                         _______ _______ _______ _____ _____    ______ ____
ROOT
ATOM      1  C   UNL     1       0.269  -1.669   4.932  0.00  0.00    +0.111 A 
ATOM      2  C   UNL     1      -0.915  -1.310   5.550  0.00  0.00    +0.031 A 
ATOM      3  C   UNL     1      -0.903  -0.419   6.605  0.00  0.00    +0.025 A 
ATOM      4  C   UNL     1       0.300   0.117   7.046  0.00  0.00    +0.031 A 
ATOM      5  C   UNL     1       1.488  -0.245   6.423  0.00  0.00    +0.025 A 
ATOM      6  C   UNL     1       1.469  -1.141   5.372  0.00  0.00    +0.031 A 
ENDROOT
BRANCH   1   7
ATOM      7  S   UNL     1       0.249  -2.806   3.586  0.00  0.00    +0.094 S 
ATOM      8  O   UNL     1       1.428  -2.563   2.832  0.00  0.00    -0.148 OA
ATOM      9  O   UNL     1      -1.050  -2.735   3.014  0.00  0.00    -0.148 OA
BRANCH   7  10
ATOM     10  N   UNL     1       0.401  -4.325   4.227  0.00  0.00    -0.057 NA
BRANCH  10  16
ATOM     11  C   UNL     1       0.672  -7.214   5.203  0.00  0.00    +0.051 C 
ATOM     12  C   UNL     1       0.534  -6.725   3.784  0.00  0.00    +0.037 A 
ATOM     13  C   UNL     1       0.501  -7.528   2.636  0.00  0.00    +0.085 A 
ATOM     14  N   UNL     1       0.372  -6.749   1.597  0.00  0.00    -0.081 NA
ATOM     15  O   UNL     1       0.320  -5.410   2.054  0.00  0.00    -0.336 OA
ATOM     16  C   UNL     1       0.416  -5.428   3.394  0.00  0.00    +0.262 A 
ATOM     17  C   UNL     1       0.596  -9.031   2.607  0.00  0.00    +0.069 C 
ENDBRANCH  10  16
ENDBRANCH   7  10
ENDBRANCH   1   7
BRANCH   4  18
ATOM     18  N   UNL     1       0.316   1.019   8.113  0.00  0.00    -0.317 N 
ATOM     19  H   UNL     1       1.161   1.330   8.473  0.00  0.00    +0.152 HD
BRANCH  18  20
ATOM     20  C   UNL     1      -0.845   1.457   8.644  0.00  0.00    +0.019 C 
ATOM     21  C   UNL     1      -1.123   1.234   9.982  0.00  0.00    +0.078 C 
ATOM     22  C   UNL     1      -2.368   1.539  10.702  0.00  0.00    +0.070 C 
ATOM     23  N   UNL     1      -2.208   1.172  11.936  0.00  0.00    -0.176 NA
ATOM     24  N   UNL     1      -0.940   0.629  12.143  0.00  0.00    -0.156 N 
ATOM     25  C   UNL     1      -0.239   0.636  10.991  0.00  0.00    +0.274 C 
ATOM     26  O   UNL     1       0.899   0.231  10.822  0.00  0.00    -0.268 OA
ATOM     27  C   UNL     1      -3.606   2.165  10.113  0.00  0.00    +0.068 C 
ATOM     28  C   UNL     1      -1.840   2.188   7.780  0.00  0.00    +0.061 C 
BRANCH  24  29
ATOM     29  C   UNL     1      -0.465   0.143  13.368  0.00  0.00    +0.060 A 
ATOM     30  C   UNL     1       0.821  -0.372  13.461  0.00  0.00    +0.025 A 
ATOM     31  C   UNL     1       1.286  -0.850  14.670  0.00  0.00    +0.002 A 
ATOM     32  C   UNL     1       0.473  -0.818  15.787  0.00  0.00    +0.000 A 
ATOM     33  C   UNL     1      -0.809  -0.306  15.698  0.00  0.00    +0.002 A 
ATOM     34  C   UNL     1      -1.278   0.179  14.493  0.00  0.00    +0.025 A 
ENDBRANCH  24  29
ENDBRANCH  18  20
ENDBRANCH   4  18
TORSDOF 6
