REMARK  Name = ZINC63372662
REMARK  14 active torsions:
REMARK  status: ('A' for Active; 'I' for Inactive)
REMARK    1  A    between atoms: C_1  and  C_2
REMARK    2  A    between atoms: C_2  and  C_3
REMARK    3  A    between atoms: C_3  and  O_4
REMARK    4  A    between atoms: O_4  and  C_5
REMARK    5  A    between atoms: C_8  and  C_13
REMARK    6  A    between atoms: C_10  and  O_11
REMARK    7  A    between atoms: O_11  and  C_12
REMARK    8  A    between atoms: N_20  and  C_35
REMARK    9  A    between atoms: C_23  and  C_34
REMARK   10  A    between atoms: C_35  and  C_36
REMARK   11  A    between atoms: C_36  and  C_37
REMARK   12  A    between atoms: C_37  and  C_38
REMARK   13  A    between atoms: C_38  and  C_39
REMARK   14  A    between atoms: C_39  and  O_40
REMARK                            x       y       z     vdW  Elec       q    Type
REMARK                         _______ _______ _______ _____ _____    ______ ____
ROOT
ATOM      1  C   UNL     1       3.243  -4.423  -5.653  0.00  0.00    +0.065 C 
ATOM      2  C   UNL     1       4.712  -3.975  -5.744  0.00  0.00    +0.121 C 
ATOM      3  N   UNL     1       4.768  -2.578  -6.217  0.00  0.00    -0.283 N 
ATOM      4  C   UNL     1       5.359  -1.671  -5.433  0.00  0.00    +0.234 C 
ATOM      5  O   UNL     1       5.793  -2.049  -4.365  0.00  0.00    -0.274 OA
ATOM      6  C   UNL     1       5.526  -0.228  -5.774  0.00  0.00    +0.203 C 
ATOM      7  N   UNL     1       4.975   0.095  -7.079  0.00  0.00    -0.291 N 
ATOM      8  C   UNL     1       4.372  -0.796  -7.864  0.00  0.00    +0.242 C 
ATOM      9  O   UNL     1       3.951  -0.414  -8.936  0.00  0.00    -0.273 OA
ATOM     10  C   UNL     1       4.180  -2.234  -7.514  0.00  0.00    +0.135 C 
ATOM     11  C   UNL     1       2.686  -2.568  -7.467  0.00  0.00    +0.139 C 
ATOM     12  C   UNL     1       2.578  -3.995  -6.938  0.00  0.00    -0.027 C 
ATOM     13  C   UNL     1       1.849  -4.668  -7.819  0.00  0.00    -0.000 A 
ATOM     14  C   UNL     1       1.323  -6.043  -7.810  0.00  0.00    +0.010 A 
ATOM     15  C   UNL     1       0.621  -6.423  -8.910  0.00  0.00    +0.001 A 
ATOM     16  C   UNL     1       0.391  -5.583 -10.005  0.00  0.00    +0.002 A 
ATOM     17  C   UNL     1       0.829  -4.302 -10.093  0.00  0.00    +0.026 A 
ATOM     18  C   UNL     1       1.572  -3.785  -8.992  0.00  0.00    +0.043 A 
ATOM     19  N   UNL     1       2.079  -2.575  -8.798  0.00  0.00    -0.375 N 
ATOM     20  C   UNL     1       4.830  -3.099  -8.596  0.00  0.00    +0.044 C 
ATOM     21  H   UNL     1       2.061  -1.829  -9.418  0.00  0.00    +0.160 HD
ENDROOT
BRANCH   1  25
ATOM     22  C   UNL     1       1.342  -2.530  -2.323  0.00  0.00    +0.162 A 
ATOM     23  C   UNL     1       1.908  -1.763  -3.329  0.00  0.00    +0.050 A 
ATOM     24  C   UNL     1       2.522  -2.378  -4.404  0.00  0.00    +0.008 A 
ATOM     25  C   UNL     1       2.573  -3.758  -4.479  0.00  0.00    -0.035 A 
ATOM     26  C   UNL     1       2.009  -4.529  -3.479  0.00  0.00    +0.053 A 
ATOM     27  C   UNL     1       1.397  -3.918  -2.396  0.00  0.00    +0.162 A 
BRANCH  27  28
ATOM     28  O   UNL     1       0.847  -4.675  -1.408  0.00  0.00    -0.491 OA
ATOM     29  C   UNL     1       0.942  -6.094  -1.549  0.00  0.00    +0.277 C 
ENDBRANCH  27  28
BRANCH  22  30
ATOM     30  O   UNL     1       0.738  -1.926  -1.265  0.00  0.00    -0.488 OA
BRANCH  30  31
ATOM     31  C   UNL     1       0.718  -0.497  -1.257  0.00  0.00    +0.229 C 
BRANCH  31  33
ATOM     32  C   UNL     1      -0.019   1.526   0.010  0.00  0.00    +0.007 C 
ATOM     33  C   UNL     1       0.002  -0.004   0.002  0.00  0.00    +0.038 C 
ENDBRANCH  31  33
ENDBRANCH  30  31
ENDBRANCH  22  30
ENDBRANCH   1  25
BRANCH   7  34
ATOM     34  C   UNL     1       5.088   1.475  -7.557  0.00  0.00    +0.108 C 
BRANCH  34  35
ATOM     35  C   UNL     1       6.394   1.640  -8.337  0.00  0.00    +0.019 C 
BRANCH  35  36
ATOM     36  C   UNL     1       6.512   3.081  -8.836  0.00  0.00    +0.004 C 
BRANCH  36  37
ATOM     37  C   UNL     1       7.818   3.246  -9.616  0.00  0.00    +0.028 C 
BRANCH  37  38
ATOM     38  C   UNL     1       7.936   4.687 -10.115  0.00  0.00    +0.156 C 
BRANCH  38  39
ATOM     39  O   UNL     1       9.156   4.841 -10.843  0.00  0.00    -0.395 OA
ATOM     40  H   UNL     1       9.297   5.732 -11.190  0.00  0.00    +0.209 HD
ENDBRANCH  38  39
ENDBRANCH  37  38
ENDBRANCH  36  37
ENDBRANCH  35  36
ENDBRANCH  34  35
ENDBRANCH   7  34
TORSDOF 11
