REMARK  Name = ZINC39916743
REMARK  8 active torsions:
REMARK  status: ('A' for Active; 'I' for Inactive)
REMARK    1  A    between atoms: C_1  and  C_2
REMARK    2  A    between atoms: C_2  and  C_3
REMARK    3  A    between atoms: C_3  and  C_5
REMARK    4  A    between atoms: C_3  and  N_6
REMARK    5  A    between atoms: N_6  and  C_7
REMARK    6  A    between atoms: C_7  and  C_9
REMARK    7  A    between atoms: C_7  and  N_13
REMARK    8  A    between atoms: C_14  and  C_16
REMARK                            x       y       z     vdW  Elec       q    Type
REMARK                         _______ _______ _______ _____ _____    ______ ____
ROOT
ATOM      1  N   UNL     1      -3.992   1.310  -0.983  0.00  0.00    -0.292 N 
ATOM      2  C   UNL     1      -4.334   1.855   0.201  0.00  0.00    +0.252 C 
ATOM      3  O   UNL     1      -4.287   1.185   1.215  0.00  0.00    -0.270 OA
ATOM      4  H   UNL     1      -4.029   1.845  -1.792  0.00  0.00    +0.151 HD
ENDROOT
BRANCH   2   5
ATOM      5  C   UNL     1      -4.764   3.262   0.267  0.00  0.00    +0.122 A 
ATOM      6  C   UNL     1      -5.117   3.853   1.473  0.00  0.00    +0.031 A 
ATOM      7  C   UNL     1      -5.552   5.203   1.453  0.00  0.00    +0.018 A 
ATOM      8  C   UNL     1      -5.729   5.912   2.650  0.00  0.00    +0.011 A 
ATOM      9  C   UNL     1      -6.108   7.223   2.612  0.00  0.00    +0.001 A 
ATOM     10  C   UNL     1      -6.327   7.860   1.399  0.00  0.00    +0.004 A 
ATOM     11  C   UNL     1      -6.179   7.176   0.209  0.00  0.00    +0.047 A 
ATOM     12  C   UNL     1      -5.801   5.840   0.223  0.00  0.00    +0.139 A 
ATOM     13  O   UNL     1      -5.693   5.147  -0.935  0.00  0.00    -0.422 OA
ATOM     14  C   UNL     1      -4.832   4.100  -0.943  0.00  0.00    +0.350 A 
ATOM     15  O   UNL     1      -4.142   3.858  -1.916  0.00  0.00    -0.244 OA
ENDBRANCH   2   5
BRANCH   1  16
ATOM     16  C   UNL     1      -3.563  -0.089  -1.049  0.00  0.00    +0.193 C 
BRANCH  16  17
ATOM     17  C   UNL     1      -4.255  -0.779  -2.227  0.00  0.00    +0.222 C 
ATOM     18 CL   UNL     1      -3.728  -2.502  -2.308  0.00  0.00    -0.080 Cl
ATOM     19 CL   UNL     1      -6.042  -0.708  -2.000  0.00  0.00    -0.080 Cl
ATOM     20 CL   UNL     1      -3.810   0.058  -3.760  0.00  0.00    -0.080 Cl
ENDBRANCH  16  17
BRANCH  16  21
ATOM     21  N   UNL     1      -2.107  -0.147  -1.234  0.00  0.00    -0.293 NA
ATOM     22  H   UNL     1      -1.751   0.731  -1.580  0.00  0.00    +0.124 HD
BRANCH  21  23
ATOM     23  C   UNL     1      -1.433  -0.534   0.013  0.00  0.00    +0.052 C 
ATOM     24  C   UNL     1      -1.413  -2.059   0.130  0.00  0.00    +0.024 C 
BRANCH  23  26
ATOM     25  C   UNL     1      -0.019   1.526   0.010  0.00  0.00    +0.005 C 
ATOM     26  C   UNL     1       0.002  -0.004   0.002  0.00  0.00    +0.015 C 
ENDBRANCH  23  26
ENDBRANCH  21  23
ENDBRANCH  16  21
ENDBRANCH   1  16
TORSDOF 6
