REMARK  Name = ZINC39670580
REMARK  6 active torsions:
REMARK  status: ('A' for Active; 'I' for Inactive)
REMARK    1  A    between atoms: C_1  and  C_2
REMARK    2  A    between atoms: C_7  and  C_11
REMARK    3  A    between atoms: C_11  and  N_12
REMARK    4  A    between atoms: C_13  and  C_15
REMARK    5  A    between atoms: C_26  and  C_28
REMARK    6  A    between atoms: C_31  and  C_33
REMARK                            x       y       z     vdW  Elec       q    Type
REMARK                         _______ _______ _______ _____ _____    ______ ____
ROOT
ATOM      1  C   UNL     1       3.158  -7.609   3.255  0.00  0.00    +0.100 C 
ATOM      2  C   UNL     1       3.726  -7.997   1.871  0.00  0.00    +0.121 C 
ATOM      3  N   UNL     1       4.570  -9.186   2.133  0.00  0.00    -0.294 N 
ATOM      4  C   UNL     1       3.806  -9.967   3.135  0.00  0.00    +0.115 C 
ATOM      5  C   UNL     1       3.211  -8.905   4.081  0.00  0.00    -0.004 C 
ATOM      6  C   UNL     1       4.112  -8.719   5.298  0.00  0.00    -0.010 C 
ATOM      7  C   UNL     1       4.104 -10.003   6.134  0.00  0.00    -0.082 C 
ATOM      8  N   UNL     1       2.732 -10.305   6.557  0.00  0.00    +0.379 N 
ATOM      9  C   UNL     1       1.893 -10.573   5.383  0.00  0.00    -0.082 C 
ATOM     10  C   UNL     1       1.807  -9.314   4.516  0.00  0.00    -0.010 C 
ATOM     11  C   UNL     1       5.763  -9.489   1.584  0.00  0.00    +0.282 C 
ATOM     12  O   UNL     1       6.338 -10.513   1.904  0.00  0.00    -0.267 OA
ATOM     13  H   UNL     1       2.737 -11.116   7.158  0.00  0.00    -0.086 HD
ATOM     14  H   UNL     1       2.357  -9.517   7.064  0.00  0.00    -0.086 HD
ENDROOT
BRANCH  11  15
ATOM     15  C   UNL     1       6.368  -8.586   0.602  0.00  0.00    +0.190 A 
ATOM     16  C   UNL     1       7.574  -8.777  -0.037  0.00  0.00    +0.055 A 
ATOM     17  C   UNL     1       7.760  -7.679  -0.883  0.00  0.00    +0.050 A 
ATOM     18  C   UNL     1       6.673  -6.866  -0.731  0.00  0.00    +0.136 A 
ATOM     19  O   UNL     1       5.839  -7.425   0.161  0.00  0.00    -0.450 OA
BRANCH  18  20
ATOM     20  C   UNL     1       6.450  -5.587  -1.435  0.00  0.00    +0.017 A 
ATOM     21  C   UNL     1       7.393  -5.118  -2.352  0.00  0.00    +0.014 A 
ATOM     22  C   UNL     1       7.179  -3.924  -3.006  0.00  0.00    +0.039 A 
ATOM     23  C   UNL     1       6.030  -3.189  -2.756  0.00  0.00    +0.123 A 
ATOM     24  C   UNL     1       5.091  -3.650  -1.847  0.00  0.00    +0.039 A 
ATOM     25  C   UNL     1       5.292  -4.846  -1.191  0.00  0.00    +0.014 A 
ATOM     26  F   UNL     1       5.825  -2.020  -3.401  0.00  0.00    -0.205 F 
ENDBRANCH  18  20
ENDBRANCH  11  15
BRANCH   1  28
ATOM     27  N   UNL     1       1.238  -6.241   4.005  0.00  0.00    -0.309 N 
ATOM     28  C   UNL     1       1.735  -7.130   3.123  0.00  0.00    +0.219 C 
ATOM     29  O   UNL     1       1.037  -7.545   2.221  0.00  0.00    -0.275 OA
ATOM     30  H   UNL     1       1.796  -5.910   4.726  0.00  0.00    +0.149 HD
BRANCH  27  31
ATOM     31  C   UNL     1      -0.145  -5.775   3.877  0.00  0.00    +0.159 C 
BRANCH  31  38
ATOM     32  C   UNL     1      -2.149  -2.073   9.951  0.00  0.00    +0.045 C 
ATOM     33  C   UNL     1      -1.595  -2.373   8.582  0.00  0.00    -0.034 A 
ATOM     34  C   UNL     1      -1.051  -1.337   7.805  0.00  0.00    +0.008 A 
ATOM     35  C   UNL     1      -0.552  -1.613   6.570  0.00  0.00    +0.045 A 
ATOM     36  C   UNL     1      -0.590  -2.937   6.089  0.00  0.00    +0.115 A 
ATOM     37  N   UNL     1      -0.187  -3.485   4.952  0.00  0.00    -0.342 N 
ATOM     38  C   UNL     1      -0.449  -4.794   4.979  0.00  0.00    +0.051 A 
ATOM     39  C   UNL     1      -1.033  -5.092   6.160  0.00  0.00    +0.115 A 
ATOM     40  N   UNL     1      -1.127  -3.926   6.871  0.00  0.00    -0.308 N 
ATOM     41  C   UNL     1      -1.620  -3.638   8.110  0.00  0.00    +0.096 A 
ATOM     42  H   UNL     1       0.232  -3.011   4.216  0.00  0.00    +0.167 HD
ENDBRANCH  31  38
ENDBRANCH  27  31
ENDBRANCH   1  28
TORSDOF 5
