REMARK  Name = ZINC62725266
REMARK  16 active torsions:
REMARK  status: ('A' for Active; 'I' for Inactive)
REMARK    1  A    between atoms: C_1  and  C_2
REMARK    2  A    between atoms: N_4  and  C_5
REMARK    3  A    between atoms: C_7  and  O_39
REMARK    4  A    between atoms: C_9  and  O_35
REMARK    5  A    between atoms: C_11  and  C_30
REMARK    6  A    between atoms: C_14  and  O_16
REMARK    7  A    between atoms: O_16  and  C_17
REMARK    8  A    between atoms: C_17  and  C_19
REMARK    9  A    between atoms: C_28  and  O_29
REMARK   10  A    between atoms: C_30  and  O_31
REMARK   11  A    between atoms: O_31  and  C_32
REMARK   12  A    between atoms: C_32  and  C_34
REMARK   13  A    between atoms: O_35  and  C_36
REMARK   14  A    between atoms: C_36  and  C_38
REMARK   15  A    between atoms: O_39  and  C_40
REMARK   16  A    between atoms: C_40  and  C_42
REMARK                            x       y       z     vdW  Elec       q    Type
REMARK                         _______ _______ _______ _____ _____    ______ ____
ROOT
ATOM      1  C   UNL     1       0.020  -2.136  -1.177  0.00  0.00    +0.186 C 
ATOM      2  C   UNL     1       0.505  -2.634  -2.542  0.00  0.00    +0.246 C 
ATOM      3  C   UNL     1      -0.489  -2.188  -3.618  0.00  0.00    +0.251 C 
ATOM      4  C   UNL     1      -1.882  -2.718  -3.268  0.00  0.00    +0.204 C 
ATOM      5  O   UNL     1      -2.259  -2.243  -1.974  0.00  0.00    -0.329 OA
ATOM      6  C   UNL     1      -1.392  -2.669  -0.919  0.00  0.00    +0.335 C 
ENDROOT
BRANCH   1  10
ATOM      7  C   UNL     1       1.079   1.522  -0.791  0.00  0.00    +0.109 C 
ATOM      8  C   UNL     1       1.099   0.015  -0.799  0.00  0.00    +0.210 C 
ATOM      9  O   UNL     1       2.105  -0.579  -0.474  0.00  0.00    -0.276 OA
ATOM     10  N   UNL     1       0.000  -0.672  -1.169  0.00  0.00    -0.303 N 
ATOM     11  H   UNL     1      -0.804  -0.196  -1.429  0.00  0.00    +0.149 HD
ENDBRANCH   1  10
BRANCH   6  12
ATOM     12  O   UNL     1      -1.872  -2.163   0.329  0.00  0.00    -0.429 OA
BRANCH  12  13
ATOM     13  C   UNL     1      -3.013  -2.696   0.807  0.00  0.00    +0.345 C 
ATOM     14  O   UNL     1      -3.586  -3.567   0.182  0.00  0.00    -0.245 OA
BRANCH  13  15
ATOM     15  C   UNL     1      -3.567  -2.223   2.086  0.00  0.00    +0.101 A 
ATOM     16  C   UNL     1      -2.903  -1.210   2.805  0.00  0.00    +0.019 A 
ATOM     17  C   UNL     1      -3.393  -0.757   3.985  0.00  0.00    +0.009 A 
ATOM     18  C   UNL     1      -4.582  -1.299   4.513  0.00  0.00    -0.014 A 
ATOM     19  C   UNL     1      -5.104  -0.842   5.734  0.00  0.00    +0.008 A 
ATOM     20  C   UNL     1      -6.255  -1.383   6.222  0.00  0.00    +0.001 A 
ATOM     21  C   UNL     1      -6.926  -2.386   5.527  0.00  0.00    +0.001 A 
ATOM     22  C   UNL     1      -6.448  -2.854   4.340  0.00  0.00    +0.012 A 
ATOM     23  C   UNL     1      -5.264  -2.319   3.807  0.00  0.00    +0.024 A 
ATOM     24  C   UNL     1      -4.747  -2.777   2.578  0.00  0.00    +0.138 A 
BRANCH  24  25
ATOM     25  O   UNL     1      -5.388  -3.748   1.884  0.00  0.00    -0.505 OA
ATOM     26  H   UNL     1      -5.107  -4.644   2.112  0.00  0.00    +0.292 HD
ENDBRANCH  24  25
ENDBRANCH  13  15
ENDBRANCH  12  13
ENDBRANCH   6  12
BRANCH   4  27
ATOM     27  C   UNL     1      -2.892  -2.226  -4.306  0.00  0.00    +0.267 C 
BRANCH  27  28
ATOM     28  O   UNL     1      -4.168  -2.814  -4.046  0.00  0.00    -0.462 OA
BRANCH  28  29
ATOM     29  C   UNL     1      -5.172  -2.483  -4.873  0.00  0.00    +0.304 C 
ATOM     30  O   UNL     1      -4.974  -1.719  -5.788  0.00  0.00    -0.251 OA
ATOM     31  C   UNL     1      -6.546  -3.064  -4.661  0.00  0.00    +0.136 C 
ENDBRANCH  28  29
ENDBRANCH  27  28
ENDBRANCH   4  27
BRANCH   3  32
ATOM     32  O   UNL     1      -0.521  -0.760  -3.676  0.00  0.00    -0.455 OA
BRANCH  32  33
ATOM     33  C   UNL     1      -0.802  -0.204  -4.865  0.00  0.00    +0.304 C 
ATOM     34  O   UNL     1      -1.013  -0.907  -5.826  0.00  0.00    -0.251 OA
ATOM     35  C   UNL     1      -0.853   1.295  -5.003  0.00  0.00    +0.136 C 
ENDBRANCH  32  33
ENDBRANCH   3  32
BRANCH   2  36
ATOM     36  O   UNL     1       1.794  -2.084  -2.821  0.00  0.00    -0.456 OA
BRANCH  36  37
ATOM     37  C   UNL     1       2.618  -2.819  -3.585  0.00  0.00    +0.304 C 
ATOM     38  O   UNL     1       2.256  -3.894  -4.002  0.00  0.00    -0.251 OA
ATOM     39  C   UNL     1       3.993  -2.304  -3.921  0.00  0.00    +0.136 C 
ENDBRANCH  36  37
ENDBRANCH   2  36
TORSDOF 12
