REMARK  Name = ZINC04476664
REMARK  8 active torsions:
REMARK  status: ('A' for Active; 'I' for Inactive)
REMARK    1  A    between atoms: C_1  and  C_2
REMARK    2  A    between atoms: C_4  and  C_14
REMARK    3  A    between atoms: C_5  and  C_13
REMARK    4  A    between atoms: C_9  and  C_12
REMARK    5  A    between atoms: C_14  and  C_16
REMARK    6  A    between atoms: C_16  and  N_17
REMARK    7  A    between atoms: C_20  and  C_24
REMARK    8  A    between atoms: C_20  and  C_25
REMARK                            x       y       z     vdW  Elec       q    Type
REMARK                         _______ _______ _______ _____ _____    ______ ____
ROOT
ATOM      1  C   UNL     1       2.946   0.129   0.085  0.00  0.00    +0.197 C 
ENDROOT
BRANCH   1   2
ATOM      2  N   UNL     1       4.402   0.003   0.199  0.00  0.00    -0.216 N 
ATOM      3  C   UNL     1       5.248   0.026  -0.849  0.00  0.00    +0.251 C 
ATOM      4  O   UNL     1       4.959   0.150  -2.020  0.00  0.00    -0.272 OA
ATOM      5  C   UNL     1       6.635  -0.133  -0.260  0.00  0.00    +0.135 C 
ATOM      6  N   UNL     1       6.386  -0.245   1.188  0.00  0.00    -0.281 N 
ATOM      7  C   UNL     1       5.054  -0.154   1.357  0.00  0.00    +0.310 C 
ATOM      8  O   UNL     1       4.505  -0.209   2.440  0.00  0.00    -0.252 OA
ATOM      9  C   UNL     1       7.299  -1.405  -0.792  0.00  0.00    +0.047 C 
ATOM     10  H   UNL     1       7.051  -0.361   1.883  0.00  0.00    +0.152 HD
BRANCH   5  11
ATOM     11  C   UNL     1       7.488   1.073  -0.559  0.00  0.00    -0.016 A 
ATOM     12  C   UNL     1       7.336   1.747  -1.757  0.00  0.00    +0.006 A 
ATOM     13  C   UNL     1       8.115   2.856  -2.029  0.00  0.00    +0.000 A 
ATOM     14  C   UNL     1       9.053   3.285  -1.109  0.00  0.00    +0.000 A 
ATOM     15  C   UNL     1       9.209   2.607   0.086  0.00  0.00    +0.000 A 
ATOM     16  C   UNL     1       8.426   1.502   0.361  0.00  0.00    +0.006 A 
ENDBRANCH   5  11
ENDBRANCH   1   2
BRANCH   1  17
ATOM     17  C   UNL     1       2.559   1.583   0.175  0.00  0.00    +0.183 C 
ATOM     18  O   UNL     1       3.415   2.431   0.319  0.00  0.00    -0.290 OA
BRANCH  17  22
ATOM     19  C   UNL     1      -2.512   1.392  -0.291  0.00  0.00    +0.064 C 
ATOM     20  C   UNL     1      -1.092   1.868  -0.120  0.00  0.00    +0.023 A 
ATOM     21  C   UNL     1      -0.005   1.080  -0.087  0.00  0.00    +0.034 A 
ATOM     22  C   UNL     1       1.150   1.972   0.087  0.00  0.00    +0.040 A 
ATOM     23  C   UNL     1       0.635   3.252   0.150  0.00  0.00    +0.033 A 
ATOM     24  N   UNL     1      -0.705   3.172   0.028  0.00  0.00    -0.299 N 
ATOM     25  C   UNL     1      -1.576   4.266   0.045  0.00  0.00    +0.181 A 
ATOM     26  C   UNL     1      -2.783   4.384   0.783  0.00  0.00    +0.094 A 
ATOM     27  C   UNL     1      -3.243   5.615   0.462  0.00  0.00    +0.136 A 
ATOM     28  O   UNL     1      -2.360   6.141  -0.399  0.00  0.00    -0.358 OA
ATOM     29  N   UNL     1      -1.444   5.383  -0.620  0.00  0.00    -0.060 NA
ATOM     30  C   UNL     1      -4.504   6.265   0.969  0.00  0.00    +0.089 C 
ATOM     31  C   UNL     1       1.433   4.519   0.325  0.00  0.00    +0.064 C 
ENDBRANCH  17  22
ENDBRANCH   1  17
TORSDOF 4
