REMARK  Name = ZINC13280881
REMARK  13 active torsions:
REMARK  status: ('A' for Active; 'I' for Inactive)
REMARK    1  A    between atoms: C_1  and  C_2
REMARK    2  A    between atoms: C_5  and  C_8
REMARK    3  A    between atoms: C_11  and  S_16
REMARK    4  A    between atoms: N_12  and  C_13
REMARK    5  A    between atoms: C_13  and  C_14
REMARK    6  A    between atoms: S_16  and  C_17
REMARK    7  A    between atoms: C_17  and  C_19
REMARK    8  A    between atoms: C_17  and  C_20
REMARK    9  A    between atoms: N_22  and  C_23
REMARK   10  A    between atoms: C_24  and  C_32
REMARK   11  A    between atoms: C_28  and  C_29
REMARK   12  A    between atoms: C_29  and  C_30
REMARK   13  A    between atoms: C_29  and  C_31
REMARK                            x       y       z     vdW  Elec       q    Type
REMARK                         _______ _______ _______ _____ _____    ______ ____
ROOT
ATOM      1  S   UNL     1      -2.304  -0.613  -2.656  0.00  0.00    -0.073 S 
ENDROOT
BRANCH   1   5
ATOM      2  C   UNL     1      -2.807  -1.649   1.077  0.00  0.00    +0.165 A 
ATOM      3  N   UNL     1      -4.015  -1.772   0.579  0.00  0.00    -0.128 NA
ATOM      4  N   UNL     1      -4.008  -1.464  -0.669  0.00  0.00    -0.122 NA
ATOM      5  C   UNL     1      -2.796  -1.120  -1.042  0.00  0.00    +0.193 A 
ATOM      6  N   UNL     1      -1.989  -1.230   0.054  0.00  0.00    -0.291 N 
BRANCH   2  11
ATOM      7  C   UNL     1      -1.233  -2.666   6.518  0.00  0.00    +0.044 C 
ATOM      8  C   UNL     1      -1.646  -2.399   5.093  0.00  0.00    -0.050 A 
ATOM      9  C   UNL     1      -2.982  -2.217   4.785  0.00  0.00    +0.004 A 
ATOM     10  C   UNL     1      -3.366  -1.973   3.483  0.00  0.00    +0.012 A 
ATOM     11  C   UNL     1      -2.403  -1.910   2.475  0.00  0.00    +0.019 A 
ATOM     12  C   UNL     1      -1.057  -2.100   2.791  0.00  0.00    +0.012 A 
ATOM     13  C   UNL     1      -0.686  -2.338   4.099  0.00  0.00    +0.004 A 
ENDBRANCH   2  11
BRANCH   6  14
ATOM     14  C   UNL     1      -0.552  -0.955   0.126  0.00  0.00    +0.250 C 
BRANCH  14  15
ATOM     15  C   UNL     1       0.217  -2.222  -0.148  0.00  0.00    +0.375 C 
ATOM     16  O   UNL     1      -0.375  -3.249  -0.380  0.00  0.00    -0.244 OA
ATOM     17  O   UNL     1       1.559  -2.208  -0.140  0.00  0.00    -0.244 OA
ENDBRANCH  14  15
ENDBRANCH   6  14
ENDBRANCH   1   5
BRANCH   1  18
ATOM     18  C   UNL     1      -3.892  -0.721  -3.518  0.00  0.00    +0.137 C 
ATOM     19  C   UNL     1      -4.861   0.308  -2.932  0.00  0.00    +0.029 C 
BRANCH  18  20
ATOM     20  C   UNL     1      -3.688  -0.440  -4.984  0.00  0.00    +0.230 C 
ATOM     21  O   UNL     1      -2.696   0.150  -5.357  0.00  0.00    -0.274 OA
ATOM     22  N   UNL     1      -4.608  -0.845  -5.882  0.00  0.00    -0.284 N 
ATOM     23  H   UNL     1      -5.436  -1.248  -5.580  0.00  0.00    +0.155 HD
BRANCH  22  24
ATOM     24  C   UNL     1      -4.367  -0.684  -7.251  0.00  0.00    +0.040 A 
ATOM     25  C   UNL     1      -4.093   0.577  -7.766  0.00  0.00    -0.029 A 
ATOM     26  C   UNL     1      -3.856   0.732  -9.118  0.00  0.00    +0.005 A 
ATOM     27  C   UNL     1      -3.892  -0.366  -9.958  0.00  0.00    +0.001 A 
ATOM     28  C   UNL     1      -4.165  -1.622  -9.449  0.00  0.00    +0.006 A 
ATOM     29  C   UNL     1      -4.397  -1.785  -8.097  0.00  0.00    -0.023 A 
ATOM     30  C   UNL     1      -4.055   1.773  -6.851  0.00  0.00    +0.045 C 
BRANCH  29  31
ATOM     31  C   UNL     1      -4.687  -3.155  -7.542  0.00  0.00    +0.015 C 
ATOM     32  C   UNL     1      -5.944  -3.719  -8.208  0.00  0.00    +0.012 C 
ATOM     33  C   UNL     1      -3.502  -4.081  -7.822  0.00  0.00    +0.012 C 
ENDBRANCH  29  31
ENDBRANCH  22  24
ENDBRANCH  18  20
ENDBRANCH   1  18
TORSDOF 8
