REMARK  Name = ZINC12558709
REMARK  8 active torsions:
REMARK  status: ('A' for Active; 'I' for Inactive)
REMARK    1  A    between atoms: C_4  and  C_7
REMARK    2  A    between atoms: N_11  and  C_12
REMARK    3  A    between atoms: N_18  and  C_19
REMARK    4  A    between atoms: C_19  and  C_20
REMARK    5  A    between atoms: C_20  and  N_21
REMARK    6  A    between atoms: N_21  and  C_22
REMARK    7  A    between atoms: C_22  and  N_24
REMARK    8  A    between atoms: N_24  and  C_25
REMARK                            x       y       z     vdW  Elec       q    Type
REMARK                         _______ _______ _______ _____ _____    ______ ____
ROOT
ATOM      1  C   UNL     1       0.245   5.896   9.001  0.00  0.00    +0.058 A 
ATOM      2  C   UNL     1       0.614   5.901  10.299  0.00  0.00    +0.075 A 
ATOM      3  S   UNL     1       0.255   4.224  10.796  0.00  0.00    -0.059 S 
ATOM      4  C   UNL     1      -0.369   3.630   9.232  0.00  0.00    +0.152 A 
ATOM      5  N   UNL     1      -0.822   2.431   8.916  0.00  0.00    -0.336 N 
ATOM      6  N   UNL     1      -0.253   4.750   8.444  0.00  0.00    -0.319 N 
ATOM      7  H   UNL     1      -0.952   1.669   9.698  0.00  0.00    +0.168 HD
ENDROOT
BRANCH   1  11
ATOM      8  C   UNL     1       0.630   9.419   6.658  0.00  0.00    +0.000 A 
ATOM      9  C   UNL     1      -0.018   9.471   7.879  0.00  0.00    +0.001 A 
ATOM     10  C   UNL     1      -0.146   8.331   8.645  0.00  0.00    +0.010 A 
ATOM     11  C   UNL     1       0.379   7.122   8.185  0.00  0.00    -0.001 A 
ATOM     12  C   UNL     1       1.036   7.077   6.955  0.00  0.00    +0.010 A 
ATOM     13  C   UNL     1       1.154   8.224   6.197  0.00  0.00    +0.001 A 
ENDBRANCH   1  11
BRANCH   5  14
ATOM     14  C   UNL     1      -1.128   2.136   7.617  0.00  0.00    +0.041 A 
ATOM     15  C   UNL     1      -2.435   2.296   7.150  0.00  0.00    +0.025 A 
ATOM     16  C   UNL     1      -2.736   2.003   5.837  0.00  0.00    +0.002 A 
ATOM     17  C   UNL     1      -1.749   1.540   4.984  0.00  0.00    +0.000 A 
ATOM     18  C   UNL     1      -0.453   1.373   5.441  0.00  0.00    +0.002 A 
ATOM     19  C   UNL     1      -0.137   1.669   6.750  0.00  0.00    +0.025 A 
ENDBRANCH   5  14
BRANCH   6  20
ATOM     20  C   UNL     1      -0.660   4.719   7.037  0.00  0.00    +0.143 C 
BRANCH  20  21
ATOM     21  C   UNL     1      -2.107   5.203   6.914  0.00  0.00    +0.125 C 
BRANCH  21  22
ATOM     22  N   UNL     1      -2.553   5.059   5.526  0.00  0.00    -0.325 N 
ATOM     23  H   UNL     1      -1.847   4.724   4.753  0.00  0.00    +0.148 HD
BRANCH  22  24
ATOM     24  C   UNL     1      -3.830   5.338   5.197  0.00  0.00    +0.131 C 
ATOM     25  S   UNL     1      -4.930   5.859   6.400  0.00  0.00    -0.019 S 
BRANCH  24  26
ATOM     26  N   UNL     1      -4.241   5.205   3.920  0.00  0.00    -0.324 N 
ATOM     27  H   UNL     1      -3.534   4.870   3.147  0.00  0.00    +0.148 HD
BRANCH  26  28
ATOM     28  C   UNL     1      -5.629   5.508   3.562  0.00  0.00    +0.072 C 
ATOM     29  C   UNL     1      -5.772   7.008   3.298  0.00  0.00    +0.022 C 
ATOM     30  C   UNL     1      -7.222   7.324   2.924  0.00  0.00    +0.002 C 
ATOM     31  C   UNL     1      -7.605   6.546   1.664  0.00  0.00    +0.000 C 
ATOM     32  C   UNL     1      -7.462   5.046   1.928  0.00  0.00    +0.002 C 
ATOM     33  C   UNL     1      -6.012   4.730   2.301  0.00  0.00    +0.022 C 
ENDBRANCH  26  28
ENDBRANCH  24  26
ENDBRANCH  22  24
ENDBRANCH  21  22
ENDBRANCH  20  21
ENDBRANCH   6  20
TORSDOF 8
