REMARK  Name = ZINC12010515
REMARK  6 active torsions:
REMARK  status: ('A' for Active; 'I' for Inactive)
REMARK    1  A    between atoms: C_1  and  O_2
REMARK    2  A    between atoms: O_2  and  C_3
REMARK    3  A    between atoms: C_7  and  N_9
REMARK    4  A    between atoms: C_11  and  C_16
REMARK    5  A    between atoms: N_18  and  C_19
REMARK    6  A    between atoms: C_21  and  C_36
REMARK                            x       y       z     vdW  Elec       q    Type
REMARK                         _______ _______ _______ _____ _____    ______ ____
ROOT
ATOM      1  C   UNL     1      -0.039  -2.844   0.022  0.00  0.00    +0.132 A 
ATOM      2  C   UNL     1       0.349  -4.144   0.024  0.00  0.00    +0.077 A 
ATOM      3  C   UNL     1       1.760  -4.173   0.010  0.00  0.00    +0.130 A 
ATOM      4  N   UNL     1       2.197  -2.930  -0.005  0.00  0.00    -0.159 NA
ATOM      5  N   UNL     1       1.089  -2.073  -0.001  0.00  0.00    -0.184 N 
ATOM      6  C   UNL     1       1.129  -0.693  -0.012  0.00  0.00    +0.234 A 
ATOM      7  N   UNL     1       2.332  -0.059  -0.029  0.00  0.00    -0.291 N 
ATOM      8  H   UNL     1       3.155  -0.572  -0.037  0.00  0.00    +0.172 HD
ATOM      9  C   UNL     1       2.372   1.289  -0.037  0.00  0.00    +0.256 A 
ATOM     10  O   UNL     1       3.442   1.876  -0.055  0.00  0.00    -0.267 OA
ATOM     11  C   UNL     1       1.159   2.012  -0.023  0.00  0.00    +0.038 A 
ATOM     12  C   UNL     1      -0.012   1.326  -0.014  0.00  0.00    +0.053 A 
ATOM     13  N   UNL     1       0.006  -0.014  -0.006  0.00  0.00    -0.217 NA
ATOM     14  C   UNL     1      -1.354   2.009  -0.021  0.00  0.00    +0.056 C 
ATOM     15  C   UNL     1      -1.217   3.468   0.410  0.00  0.00    +0.006 C 
ATOM     16  C   UNL     1      -0.111   4.118  -0.430  0.00  0.00    +0.005 C 
ATOM     17  C   UNL     1       1.229   3.514  -0.011  0.00  0.00    +0.042 C 
ENDROOT
BRANCH   3  18
ATOM     18  C   UNL     1       2.602  -5.387   0.012  0.00  0.00    +0.155 A 
ATOM     19  C   UNL     1       3.961  -5.416  -0.007  0.00  0.00    +0.051 A 
ATOM     20  C   UNL     1       4.338  -6.774   0.007  0.00  0.00    +0.042 A 
ATOM     21  C   UNL     1       3.203  -7.499   0.024  0.00  0.00    +0.196 A 
ATOM     22  O   UNL     1       2.155  -6.658   0.027  0.00  0.00    -0.461 OA
ENDBRANCH   3  18
BRANCH   1  25
ATOM     23  C   UNL     1      -2.377  -3.253   0.060  0.00  0.00    +0.223 C 
ATOM     24  O   UNL     1      -2.157  -4.446   0.067  0.00  0.00    -0.275 OA
ATOM     25  N   UNL     1      -1.352  -2.378   0.038  0.00  0.00    -0.270 N 
ATOM     26  H   UNL     1      -1.529  -1.424   0.033  0.00  0.00    +0.156 HD
BRANCH  23  29
ATOM     27  N   UNL     1      -5.907  -3.477   0.956  0.00  0.00    -0.271 N 
ATOM     28  C   UNL     1      -4.800  -3.924   0.102  0.00  0.00    +0.127 C 
ATOM     29  C   UNL     1      -3.797  -2.749   0.078  0.00  0.00    +0.102 C 
ATOM     30  C   UNL     1      -4.115  -2.036   1.412  0.00  0.00    +0.110 C 
ATOM     31  C   UNL     1      -5.548  -2.421   1.707  0.00  0.00    +0.221 C 
ATOM     32  O   UNL     1      -6.269  -1.858   2.504  0.00  0.00    -0.275 OA
BRANCH  27  37
ATOM     33  C   UNL     1      -8.740  -5.672   0.119  0.00  0.00    +0.122 A 
ATOM     34  C   UNL     1      -9.680  -5.248   1.048  0.00  0.00    +0.046 A 
ATOM     35  C   UNL     1      -9.367  -4.241   1.941  0.00  0.00    +0.005 A 
ATOM     36  C   UNL     1      -8.116  -3.657   1.916  0.00  0.00    +0.024 A 
ATOM     37  C   UNL     1      -7.173  -4.072   0.985  0.00  0.00    +0.040 A 
ATOM     38  C   UNL     1      -7.485  -5.084   0.087  0.00  0.00    +0.069 A 
BRANCH  33  40
ATOM     39  C   UNL     1     -10.361  -7.223  -0.669  0.00  0.00    +0.277 C 
ATOM     40  O   UNL     1      -9.049  -6.662  -0.759  0.00  0.00    -0.495 OA
ENDBRANCH  33  40
ENDBRANCH  27  37
ENDBRANCH  23  29
ENDBRANCH   1  25
TORSDOF 5
