REMARK  Name = ZINC14006995
REMARK  9 active torsions:
REMARK  status: ('A' for Active; 'I' for Inactive)
REMARK    1  A    between atoms: C_1  and  C_2
REMARK    2  A    between atoms: C_3  and  C_24
REMARK    3  A    between atoms: C_5  and  N_10
REMARK    4  A    between atoms: C_6  and  C_7
REMARK    5  A    between atoms: C_11  and  C_13
REMARK    6  A    between atoms: C_13  and  C_15
REMARK    7  A    between atoms: C_13  and  O_16
REMARK    8  A    between atoms: O_16  and  C_17
REMARK    9  A    between atoms: C_24  and  C_25
REMARK                            x       y       z     vdW  Elec       q    Type
REMARK                         _______ _______ _______ _____ _____    ______ ____
ROOT
ATOM      1  C   UNL     1      -5.020   2.235  -0.427  0.00  0.00    +0.045 C 
ATOM      2  C   UNL     1      -3.559   2.579  -0.286  0.00  0.00    -0.026 A 
ATOM      3  C   UNL     1      -3.156   3.841  -0.054  0.00  0.00    -0.000 A 
ATOM      4  S   UNL     1      -1.382   3.697   0.023  0.00  0.00    -0.077 S 
ATOM      5  C   UNL     1      -1.219   1.995  -0.250  0.00  0.00    +0.084 A 
ATOM      6  C   UNL     1      -2.534   1.570  -0.401  0.00  0.00    +0.068 A 
ENDROOT
BRANCH   6   7
ATOM      7  C   UNL     1      -2.864   0.165  -0.660  0.00  0.00    +0.244 C 
ATOM      8  O   UNL     1      -3.062  -0.595   0.270  0.00  0.00    -0.270 OA
ATOM      9  N   UNL     1      -2.946  -0.285  -1.927  0.00  0.00    -0.325 N 
ATOM     10  H   UNL     1      -2.788   0.320  -2.669  0.00  0.00    +0.145 HD
ATOM     11  H   UNL     1      -3.164  -1.215  -2.099  0.00  0.00    +0.145 HD
ENDBRANCH   6   7
BRANCH   5  12
ATOM     12  N   UNL     1      -0.058   1.239  -0.310  0.00  0.00    -0.276 N 
ATOM     13  C   UNL     1       1.141   1.833  -0.150  0.00  0.00    +0.258 C 
ATOM     14  O   UNL     1       1.204   3.028   0.052  0.00  0.00    -0.271 OA
ATOM     15  H   UNL     1      -0.108   0.284  -0.472  0.00  0.00    +0.155 HD
BRANCH  13  16
ATOM     16  C   UNL     1       2.404   1.014  -0.221  0.00  0.00    +0.256 C 
ATOM     17  C   UNL     1       2.376  -0.062   0.866  0.00  0.00    +0.062 C 
BRANCH  16  18
ATOM     18  O   UNL     1       3.535   1.863  -0.022  0.00  0.00    -0.480 OA
BRANCH  18  19
ATOM     19  C   UNL     1       4.718   1.449  -0.547  0.00  0.00    +0.122 A 
ATOM     20  C   UNL     1       5.830   2.278  -0.495  0.00  0.00    +0.047 A 
ATOM     21  C   UNL     1       7.032   1.853  -1.026  0.00  0.00    +0.023 A 
ATOM     22  C   UNL     1       7.127   0.606  -1.617  0.00  0.00    +0.041 A 
ATOM     23  C   UNL     1       6.018  -0.221  -1.675  0.00  0.00    +0.023 A 
ATOM     24  C   UNL     1       4.815   0.199  -1.141  0.00  0.00    +0.047 A 
ATOM     25 CL   UNL     1       8.638   0.076  -2.288  0.00  0.00    -0.084 Cl
ENDBRANCH  18  19
ENDBRANCH  16  18
ENDBRANCH  13  16
ENDBRANCH   5  12
BRANCH   3  26
ATOM     26  C   UNL     1      -4.000   5.080   0.103  0.00  0.00    +0.077 C 
BRANCH  26  27
ATOM     27  C   UNL     1      -4.362   5.261   1.554  0.00  0.00    -0.043 A 
ATOM     28  C   UNL     1      -5.520   4.694   2.054  0.00  0.00    +0.004 A 
ATOM     29  C   UNL     1      -5.849   4.856   3.387  0.00  0.00    +0.000 A 
ATOM     30  C   UNL     1      -5.025   5.594   4.218  0.00  0.00    +0.000 A 
ATOM     31  C   UNL     1      -3.870   6.164   3.716  0.00  0.00    +0.000 A 
ATOM     32  C   UNL     1      -3.539   5.998   2.385  0.00  0.00    +0.004 A 
ENDBRANCH  26  27
ENDBRANCH   3  26
TORSDOF 7
