REMARK  Name = ZINC16909535
REMARK  6 active torsions:
REMARK  status: ('A' for Active; 'I' for Inactive)
REMARK    1  A    between atoms: C_3  and  C_11
REMARK    2  A    between atoms: C_5  and  O_7
REMARK    3  A    between atoms: O_7  and  C_8
REMARK    4  A    between atoms: C_8  and  C_9
REMARK    5  A    between atoms: N_15  and  C_19
REMARK    6  A    between atoms: C_23  and  O_25
REMARK                            x       y       z     vdW  Elec       q    Type
REMARK                         _______ _______ _______ _____ _____    ______ ____
ROOT
ATOM      1  C   UNL     1       6.065   1.447  -0.228  0.00  0.00    +0.028 C 
ATOM      2  C   UNL     1       4.847   1.005   0.174  0.00  0.00    +0.078 C 
ATOM      3  C   UNL     1       3.731   1.751   0.793  0.00  0.00    +0.263 C 
ATOM      4  O   UNL     1       3.808   2.944   1.022  0.00  0.00    -0.269 OA
ATOM      5  N   UNL     1       2.645   1.056   1.086  0.00  0.00    -0.223 N 
ATOM      6  C   UNL     1       2.566  -0.267   0.836  0.00  0.00    +0.125 C 
ATOM      7  S   UNL     1       1.262  -1.331   1.147  0.00  0.00    -0.027 S 
ATOM      8  S   UNL     1       4.150  -0.639   0.101  0.00  0.00    -0.061 S 
ENDROOT
BRANCH   1  11
ATOM      9  C   UNL     1       7.882   4.703   0.177  0.00  0.00    +0.004 A 
ATOM     10  C   UNL     1       7.611   3.351   0.185  0.00  0.00    +0.008 A 
ATOM     11  C   UNL     1       6.359   2.887  -0.234  0.00  0.00    -0.020 A 
ATOM     12  C   UNL     1       5.390   3.800  -0.665  0.00  0.00    +0.053 A 
ATOM     13  C   UNL     1       5.674   5.154  -0.662  0.00  0.00    +0.122 A 
ATOM     14  C   UNL     1       6.920   5.604  -0.244  0.00  0.00    +0.046 A 
BRANCH  13  15
ATOM     15  O   UNL     1       4.734   6.045  -1.075  0.00  0.00    -0.481 OA
BRANCH  15  16
ATOM     16  C   UNL     1       5.096   7.427  -1.051  0.00  0.00    +0.353 C 
BRANCH  16  17
ATOM     17  C   UNL     1       3.937   8.258  -1.539  0.00  0.00    +0.393 C 
ATOM     18  O   UNL     1       2.907   7.722  -1.872  0.00  0.00    -0.243 OA
ATOM     19  O   UNL     1       4.050   9.595  -1.603  0.00  0.00    -0.243 OA
ENDBRANCH  16  17
ENDBRANCH  15  16
ENDBRANCH  13  15
ENDBRANCH   1  11
BRANCH   5  20
ATOM     20  C   UNL     1       1.553   1.707   1.675  0.00  0.00    +0.046 A 
ATOM     21  C   UNL     1       1.669   2.242   2.952  0.00  0.00    +0.024 A 
ATOM     22  C   UNL     1       0.592   2.884   3.533  0.00  0.00    +0.005 A 
ATOM     23  C   UNL     1      -0.602   2.996   2.845  0.00  0.00    +0.045 A 
ATOM     24  C   UNL     1      -0.721   2.468   1.568  0.00  0.00    +0.119 A 
ATOM     25  C   UNL     1       0.355   1.819   0.984  0.00  0.00    +0.069 A 
BRANCH  24  26
ATOM     26  O   UNL     1      -1.894   2.584   0.891  0.00  0.00    -0.507 OA
ATOM     27  H   UNL     1      -2.508   1.852   1.040  0.00  0.00    +0.292 HD
ENDBRANCH  24  26
ENDBRANCH   5  20
TORSDOF 6
