REMARK  Name = ZINC01425220
REMARK  5 active torsions:
REMARK  status: ('A' for Active; 'I' for Inactive)
REMARK    1  A    between atoms: C_1  and  N_2
REMARK    2  A    between atoms: C_6  and  S_12
REMARK    3  A    between atoms: S_12  and  N_15
REMARK    4  A    between atoms: N_15  and  C_16
REMARK    5  A    between atoms: C_23  and  O_26
REMARK                            x       y       z     vdW  Elec       q    Type
REMARK                         _______ _______ _______ _____ _____    ______ ____
ROOT
ATOM      1  S   UNL     1      -0.351   7.962   0.024  0.00  0.00    +0.072 S 
ATOM      2  O   UNL     1       0.718   8.752  -0.479  0.00  0.00    -0.150 OA
ATOM      3  O   UNL     1      -1.663   8.022  -0.519  0.00  0.00    -0.150 OA
ENDROOT
BRANCH   1   9
ATOM      4  C   UNL     1       2.664   1.782  -0.407  0.00  0.00    +0.153 C 
ATOM      5  N   UNL     1       1.276   2.248  -0.370  0.00  0.00    -0.305 N 
ATOM      6  C   UNL     1       1.010   3.604  -0.277  0.00  0.00    +0.059 A 
ATOM      7  C   UNL     1       1.935   4.658  -0.210  0.00  0.00    +0.029 A 
ATOM      8  C   UNL     1       1.513   5.963  -0.119  0.00  0.00    +0.031 A 
ATOM      9  C   UNL     1       0.166   6.282  -0.093  0.00  0.00    +0.110 A 
ATOM     10  C   UNL     1      -0.769   5.263  -0.158  0.00  0.00    +0.046 A 
ATOM     11  C   UNL     1      -0.347   3.959  -0.248  0.00  0.00    +0.043 A 
ATOM     12  S   UNL     1      -1.178   2.393  -0.359  0.00  0.00    -0.027 S 
ATOM     13  C   UNL     1       0.271   1.352  -0.427  0.00  0.00    +0.291 A 
ATOM     14  O   UNL     1       0.334   0.139  -0.509  0.00  0.00    -0.259 OA
ENDBRANCH   1   9
BRANCH   1  15
ATOM     15  N   UNL     1      -0.488   8.322   1.634  0.00  0.00    -0.216 N 
ATOM     16  H   UNL     1      -1.344   8.599   1.998  0.00  0.00    +0.174 HD
BRANCH  15  17
ATOM     17  C   UNL     1       0.625   8.227   2.467  0.00  0.00    +0.056 A 
ATOM     18  C   UNL     1       1.877   8.559   1.995  0.00  0.00    +0.025 A 
ATOM     19  C   UNL     1       2.995   8.473   2.820  0.00  0.00    +0.002 A 
ATOM     20  C   UNL     1       2.886   8.049   4.109  0.00  0.00    +0.008 A 
ATOM     21  C   UNL     1       1.628   7.695   4.628  0.00  0.00    -0.016 A 
ATOM     22  C   UNL     1       0.482   7.784   3.800  0.00  0.00    +0.008 A 
ATOM     23  C   UNL     1      -0.773   7.431   4.318  0.00  0.00    +0.055 A 
ATOM     24  C   UNL     1      -0.875   7.006   5.612  0.00  0.00    +0.118 A 
ATOM     25  C   UNL     1       0.257   6.919   6.428  0.00  0.00    +0.046 A 
ATOM     26  C   UNL     1       1.488   7.254   5.956  0.00  0.00    +0.012 A 
BRANCH  24  27
ATOM     27  O   UNL     1      -2.091   6.664   6.113  0.00  0.00    -0.507 OA
ATOM     28  H   UNL     1      -2.569   7.399   6.521  0.00  0.00    +0.292 HD
ENDBRANCH  24  27
ENDBRANCH  15  17
ENDBRANCH   1  15
TORSDOF 4
