REMARK  Name = ZINC41095406
REMARK  5 active torsions:
REMARK  status: ('A' for Active; 'I' for Inactive)
REMARK    1  A    between atoms: C_1  and  C_2
REMARK    2  A    between atoms: C_2  and  C_19
REMARK    3  A    between atoms: N_5  and  C_9
REMARK    4  A    between atoms: C_9  and  C_10
REMARK    5  A    between atoms: C_15  and  N_16
REMARK                            x       y       z     vdW  Elec       q    Type
REMARK                         _______ _______ _______ _____ _____    ______ ____
ROOT
ATOM      1  C   UNL     1      -0.013   1.525  -0.061  0.00  0.00    +0.047 C 
ATOM      2  C   UNL     1       0.013  -0.000   0.051  0.00  0.00    +0.136 C 
ATOM      3  C   UNL     1       0.751  -0.610  -1.125  0.00  0.00    +0.251 C 
ATOM      4  O   UNL     1       0.455  -0.525  -2.298  0.00  0.00    -0.272 OA
ATOM      5  N   UNL     1       1.804  -1.263  -0.596  0.00  0.00    -0.219 N 
ATOM      6  C   UNL     1       1.834  -1.153   0.737  0.00  0.00    +0.310 C 
ATOM      7  O   UNL     1       2.689  -1.657   1.438  0.00  0.00    -0.252 OA
ATOM      8  N   UNL     1       0.811  -0.421   1.216  0.00  0.00    -0.281 N 
ATOM      9  H   UNL     1       0.634  -0.211   2.146  0.00  0.00    +0.152 HD
ENDROOT
BRANCH   2  10
ATOM     10  C   UNL     1      -1.388  -0.547   0.143  0.00  0.00    -0.008 A 
ATOM     11  C   UNL     1      -1.773  -1.264   1.235  0.00  0.00    +0.007 A 
ATOM     12  C   UNL     1      -3.064  -1.777   1.338  0.00  0.00    +0.001 A 
ATOM     13  C   UNL     1      -3.978  -1.578   0.349  0.00  0.00    +0.008 A 
ATOM     14  C   UNL     1      -3.618  -0.843  -0.793  0.00  0.00    -0.018 A 
ATOM     15  C   UNL     1      -2.306  -0.316  -0.895  0.00  0.00    -0.012 A 
ATOM     16  C   UNL     1      -1.948   0.424  -2.035  0.00  0.00    +0.009 A 
ATOM     17  C   UNL     1      -2.864   0.628  -3.021  0.00  0.00    +0.001 A 
ATOM     18  C   UNL     1      -4.155   0.115  -2.917  0.00  0.00    +0.001 A 
ATOM     19  C   UNL     1      -4.534  -0.617  -1.835  0.00  0.00    +0.008 A 
ENDBRANCH   2  10
BRANCH   5  20
ATOM     20  C   UNL     1       2.793  -2.003  -1.383  0.00  0.00    +0.155 C 
BRANCH  20  21
ATOM     21  C   UNL     1       3.976  -1.114  -1.667  0.00  0.00    +0.001 A 
ATOM     22  C   UNL     1       3.950   0.214  -1.284  0.00  0.00    +0.007 A 
ATOM     23  C   UNL     1       5.035   1.029  -1.545  0.00  0.00    +0.000 A 
ATOM     24  C   UNL     1       6.146   0.517  -2.189  0.00  0.00    +0.002 A 
ATOM     25  C   UNL     1       6.172  -0.811  -2.572  0.00  0.00    +0.033 A 
ATOM     26  C   UNL     1       5.088  -1.628  -2.307  0.00  0.00    +0.131 A 
BRANCH  26  27
ATOM     27  N   UNL     1       5.118  -3.051  -2.712  0.00  0.00    +0.057 N 
ATOM     28  O   UNL     1       6.127  -3.526  -3.180  0.00  0.00    -0.126 OA
ATOM     29  O   UNL     1       4.133  -3.739  -2.575  0.00  0.00    -0.126 OA
ENDBRANCH  26  27
ENDBRANCH  20  21
ENDBRANCH   5  20
TORSDOF 4
