REMARK  Name = ZINC39664560
REMARK  11 active torsions:
REMARK  status: ('A' for Active; 'I' for Inactive)
REMARK    1  A    between atoms: C_1  and  C_2
REMARK    2  A    between atoms: C_2  and  O_4
REMARK    3  A    between atoms: O_4  and  C_5
REMARK    4  A    between atoms: C_10  and  C_11
REMARK    5  A    between atoms: C_15  and  C_24
REMARK    6  A    between atoms: N_26  and  C_27
REMARK    7  A    between atoms: C_27  and  C_29
REMARK    8  A    between atoms: C_27  and  C_33
REMARK    9  A    between atoms: C_29  and  N_30
REMARK   10  A    between atoms: N_30  and  C_31
REMARK   11  A    between atoms: N_30  and  C_32
REMARK                            x       y       z     vdW  Elec       q    Type
REMARK                         _______ _______ _______ _____ _____    ______ ____
ROOT
ATOM      1  C   UNL     1      -5.567  -2.604  -0.877  0.00  0.00    +0.250 C 
ATOM      2  O   UNL     1      -5.940  -1.458  -1.034  0.00  0.00    -0.270 OA
ATOM      3  N   UNL     1      -6.446  -3.553  -0.499  0.00  0.00    -0.296 N 
ATOM      4  C   UNL     1      -6.205  -5.007  -0.348  0.00  0.00    +0.121 C 
ATOM      5  C   UNL     1      -6.997  -5.406   0.917  0.00  0.00    +0.100 C 
ATOM      6  C   UNL     1      -8.092  -4.334   1.048  0.00  0.00    -0.004 C 
ATOM      7  C   UNL     1      -7.872  -3.376  -0.132  0.00  0.00    +0.115 C 
ATOM      8  C   UNL     1      -7.939  -3.581   2.366  0.00  0.00    -0.010 C 
ATOM      9  C   UNL     1      -9.072  -2.559   2.499  0.00  0.00    -0.082 C 
ATOM     10  N   UNL     1     -10.365  -3.252   2.456  0.00  0.00    +0.379 N 
ATOM     11  C   UNL     1     -10.545  -3.897   1.150  0.00  0.00    -0.082 C 
ATOM     12  C   UNL     1      -9.474  -4.975   0.959  0.00  0.00    -0.010 C 
ATOM     13  H   UNL     1     -10.395  -3.952   3.182  0.00  0.00    -0.086 HD
ATOM     14  H   UNL     1     -11.108  -2.585   2.605  0.00  0.00    -0.086 HD
ENDROOT
BRANCH   1  20
ATOM     15  C   UNL     1      -3.136  -2.069  -0.725  0.00  0.00    +0.144 A 
ATOM     16  C   UNL     1      -1.809  -2.413  -0.935  0.00  0.00    +0.047 A 
ATOM     17  C   UNL     1      -1.492  -3.624  -1.518  0.00  0.00    +0.004 A 
ATOM     18  C   UNL     1      -2.494  -4.503  -1.897  0.00  0.00    +0.001 A 
ATOM     19  C   UNL     1      -3.818  -4.177  -1.696  0.00  0.00    +0.017 A 
ATOM     20  C   UNL     1      -4.152  -2.957  -1.102  0.00  0.00    +0.079 A 
BRANCH  15  21
ATOM     21  O   UNL     1      -3.449  -0.879  -0.152  0.00  0.00    -0.425 OA
BRANCH  21  23
ATOM     22  C   UNL     1      -3.875   0.464   1.875  0.00  0.00    +0.136 C 
ATOM     23  C   UNL     1      -3.637  -0.850   1.177  0.00  0.00    +0.309 C 
ATOM     24  O   UNL     1      -3.617  -1.877   1.813  0.00  0.00    -0.251 OA
ENDBRANCH  21  23
ENDBRANCH  15  21
ENDBRANCH   1  20
BRANCH   5  25
ATOM     25  C   UNL     1      -6.098  -5.392   2.126  0.00  0.00    +0.219 C 
ATOM     26  O   UNL     1      -5.178  -4.604   2.188  0.00  0.00    -0.275 OA
ATOM     27  N   UNL     1      -6.316  -6.254   3.138  0.00  0.00    -0.310 N 
ATOM     28  H   UNL     1      -7.023  -6.915   3.069  0.00  0.00    +0.149 HD
BRANCH  27  29
ATOM     29  C   UNL     1      -5.487  -6.194   4.344  0.00  0.00    +0.087 C 
BRANCH  29  30
ATOM     30  C   UNL     1      -5.361  -7.573   4.938  0.00  0.00    -0.029 A 
ATOM     31  C   UNL     1      -6.455  -8.419   4.958  0.00  0.00    +0.005 A 
ATOM     32  C   UNL     1      -6.340  -9.684   5.503  0.00  0.00    +0.000 A 
ATOM     33  C   UNL     1      -5.131 -10.104   6.026  0.00  0.00    +0.000 A 
ATOM     34  C   UNL     1      -4.038  -9.259   6.005  0.00  0.00    +0.000 A 
ATOM     35  C   UNL     1      -4.152  -7.995   5.457  0.00  0.00    +0.005 A 
ENDBRANCH  29  30
BRANCH  29  36
ATOM     36  C   UNL     1      -6.137  -5.256   5.364  0.00  0.00    -0.052 C 
BRANCH  36  37
ATOM     37  N   UNL     1      -6.133  -3.884   4.840  0.00  0.00    +0.377 N 
ATOM     38  C   UNL     1      -6.896  -3.013   5.744  0.00  0.00    -0.097 C 
ATOM     39  C   UNL     1      -4.749  -3.400   4.746  0.00  0.00    -0.097 C 
ATOM     40  H   UNL     1      -6.556  -3.872   3.925  0.00  0.00    -0.083 HD
ENDBRANCH  36  37
ENDBRANCH  29  36
ENDBRANCH  27  29
ENDBRANCH   5  25
TORSDOF 8
