REMARK  Name = ZINC39534190
REMARK  11 active torsions:
REMARK  status: ('A' for Active; 'I' for Inactive)
REMARK    1  A    between atoms: C_1  and  O_2
REMARK    2  A    between atoms: O_2  and  N_3
REMARK    3  A    between atoms: N_3  and  C_4
REMARK    4  A    between atoms: C_4  and  C_5
REMARK    5  A    between atoms: C_5  and  C_7
REMARK    6  A    between atoms: C_5  and  N_20
REMARK    7  A    between atoms: C_10  and  C_13
REMARK    8  A    between atoms: C_18  and  O_19
REMARK    9  A    between atoms: C_24  and  S_27
REMARK   10  A    between atoms: S_27  and  O_30
REMARK   11  A    between atoms: O_30  and  C_31
REMARK                            x       y       z     vdW  Elec       q    Type
REMARK                         _______ _______ _______ _____ _____    ______ ____
ROOT
ATOM      1  C   UNL     1       1.240  -2.621  -2.397  0.00  0.00    +0.103 C 
ENDROOT
BRANCH   1   2
ATOM      2  N   UNL     1       2.620  -2.138  -2.545  0.00  0.00    -0.296 NA
ATOM      3  C   UNL     1       3.231  -1.882  -1.233  0.00  0.00    +0.066 C 
ATOM      4  C   UNL     1       4.682  -1.438  -1.427  0.00  0.00    -0.064 C 
ATOM      5  N   UNL     1       4.717  -0.221  -2.248  0.00  0.00    +0.398 N 
ATOM      6  C   UNL     1       4.125  -0.499  -3.564  0.00  0.00    +0.130 C 
ATOM      7  C   UNL     1       2.669  -0.934  -3.387  0.00  0.00    +0.095 C 
ATOM      8  H   UNL     1       4.191   0.508  -1.791  0.00  0.00    -0.083 HD
ATOM      9  H   UNL     1       5.673   0.078  -2.366  0.00  0.00    -0.083 HD
BRANCH   6  10
ATOM     10  S   UNL     1       4.188   1.000  -4.584  0.00  0.00    +0.109 S 
ATOM     11  O   UNL     1       3.786   0.704  -5.914  0.00  0.00    -0.138 OA
ATOM     12  O   UNL     1       3.617   2.095  -3.881  0.00  0.00    -0.138 OA
BRANCH  10  13
ATOM     13  O   UNL     1       5.668   1.338  -4.692  0.00  0.00    -0.347 OA
BRANCH  13  14
ATOM     14  C   UNL     1       6.359   0.529  -5.538  0.00  0.00    +0.156 A 
ATOM     15  C   UNL     1       6.945  -0.635  -5.063  0.00  0.00    +0.048 A 
ATOM     16  C   UNL     1       7.647  -1.456  -5.925  0.00  0.00    +0.004 A 
ATOM     17  C   UNL     1       7.766  -1.117  -7.260  0.00  0.00    +0.000 A 
ATOM     18  C   UNL     1       7.184   0.043  -7.736  0.00  0.00    +0.004 A 
ATOM     19  C   UNL     1       6.476   0.864  -6.879  0.00  0.00    +0.048 A 
ENDBRANCH  13  14
ENDBRANCH  10  13
ENDBRANCH   6  10
ENDBRANCH   1   2
BRANCH   1  20
ATOM     20  C   UNL     1       1.241  -4.126  -2.323  0.00  0.00    -0.029 A 
ATOM     21  C   UNL     1       2.161  -4.776  -1.521  0.00  0.00    +0.006 A 
ATOM     22  C   UNL     1       2.166  -6.154  -1.450  0.00  0.00    +0.009 A 
ATOM     23  C   UNL     1       1.242  -6.891  -2.187  0.00  0.00    -0.014 A 
ATOM     24  C   UNL     1       0.316  -6.231  -2.993  0.00  0.00    +0.009 A 
ATOM     25  C   UNL     1       0.317  -4.852  -3.053  0.00  0.00    +0.006 A 
BRANCH  23  26
ATOM     26  C   UNL     1       1.242  -8.373  -2.115  0.00  0.00    +0.024 A 
ATOM     27  C   UNL     1       2.430  -9.081  -2.287  0.00  0.00    +0.012 A 
ATOM     28  C   UNL     1       2.425 -10.459  -2.219  0.00  0.00    +0.001 A 
ATOM     29  C   UNL     1       1.245 -11.142  -1.980  0.00  0.00    +0.004 A 
ATOM     30  C   UNL     1       0.062 -10.449  -1.808  0.00  0.00    +0.046 A 
ATOM     31  C   UNL     1       0.053  -9.065  -1.868  0.00  0.00    +0.125 A 
BRANCH  31  32
ATOM     32  O   UNL     1      -1.109  -8.382  -1.693  0.00  0.00    -0.506 OA
ATOM     33  H   UNL     1      -1.601  -8.227  -2.511  0.00  0.00    +0.292 HD
ENDBRANCH  31  32
ENDBRANCH  23  26
ENDBRANCH   1  20
BRANCH   1  34
ATOM     34  C   UNL     1       0.633  -2.047  -1.116  0.00  0.00    +0.134 C 
BRANCH  34  35
ATOM     35  N   UNL     1       0.570  -0.583  -1.217  0.00  0.00    -0.200 NA
ATOM     36  H   UNL     1       1.492  -0.188  -1.325  0.00  0.00    +0.154 HD
BRANCH  35  38
ATOM     37  C   UNL     1      -0.212   1.418  -0.091  0.00  0.00    +0.221 C 
ATOM     38  O   UNL     1      -0.115  -0.007  -0.059  0.00  0.00    -0.303 OA
ENDBRANCH  35  38
ENDBRANCH  34  35
ENDBRANCH   1  34
TORSDOF 10
