REMARK  Name = ZINC14745707
REMARK  11 active torsions:
REMARK  status: ('A' for Active; 'I' for Inactive)
REMARK    1  A    between atoms: C_1  and  C_2
REMARK    2  A    between atoms: C_2  and  O_3
REMARK    3  A    between atoms: O_3  and  C_4
REMARK    4  A    between atoms: C_9  and  N_69
REMARK    5  A    between atoms: C_16  and  C_22
REMARK    6  A    between atoms: N_18  and  C_19
REMARK    7  A    between atoms: C_19  and  C_20
REMARK    8  A    between atoms: C_20  and  O_21
REMARK    9  A    between atoms: N_24  and  C_25
REMARK   10  A    between atoms: C_25  and  C_27
REMARK   11  A    between atoms: C_25  and  C_28
REMARK                            x       y       z     vdW  Elec       q    Type
REMARK                         _______ _______ _______ _____ _____    ______ ____
ROOT
ATOM      1  C   UNL     1       1.304   1.565  -2.507  0.00  0.00    -0.072 C 
ATOM      2  C   UNL     1       2.084   0.737  -3.538  0.00  0.00    +0.037 C 
ATOM      3  C   UNL     1       1.271   0.696  -4.807  0.00  0.00    +0.040 A 
ATOM      4  C   UNL     1      -0.046   1.027  -4.850  0.00  0.00    -0.011 A 
ATOM      5  C   UNL     1      -0.438   0.869  -6.188  0.00  0.00    +0.149 A 
ATOM      6  N   UNL     1       0.632   0.462  -6.851  0.00  0.00    -0.166 NA
ATOM      7  N   UNL     1       1.637   0.356  -6.051  0.00  0.00    -0.265 N 
ATOM      8  C   UNL     1      -0.841   1.463  -3.651  0.00  0.00    -0.038 C 
ATOM      9  N   UNL     1      -0.087   1.062  -2.437  0.00  0.00    +0.385 N 
ATOM     10  H   UNL     1      -0.067   0.036  -2.382  0.00  0.00    -0.081 HD
ENDROOT
BRANCH   9  16
ATOM     11  C   UNL     1      -0.416   3.820   2.205  0.00  0.00    +0.403 C 
ATOM     12  O   UNL     1      -0.526   5.028   2.134  0.00  0.00    -0.226 OA
ATOM     13  N   UNL     1      -0.858   3.043   1.196  0.00  0.00    -0.268 N 
ATOM     14  C   UNL     1      -0.731   1.581   1.267  0.00  0.00    +0.109 C 
ATOM     15  C   UNL     1      -0.013   1.086   0.008  0.00  0.00    +0.004 C 
ATOM     16  C   UNL     1      -0.754   1.593  -1.231  0.00  0.00    -0.065 C 
ATOM     17  C   UNL     1      -0.747   3.124  -1.240  0.00  0.00    +0.004 C 
ATOM     18  C   UNL     1      -1.474   3.642   0.004  0.00  0.00    +0.109 C 
BRANCH  11  19
ATOM     19  O   UNL     1       0.147   3.257   3.291  0.00  0.00    -0.451 OA
BRANCH  19  21
ATOM     20  C   UNL     1       1.208   3.340   5.481  0.00  0.00    +0.048 C 
ATOM     21  C   UNL     1       0.601   4.155   4.338  0.00  0.00    +0.230 C 
ENDBRANCH  19  21
ENDBRANCH  11  19
ENDBRANCH   9  16
BRANCH   5  22
ATOM     22  C   UNL     1      -1.784   1.110  -6.747  0.00  0.00    +0.265 C 
ATOM     23  O   UNL     1      -2.685   1.485  -6.022  0.00  0.00    -0.268 OA
ATOM     24  N   UNL     1      -2.012   0.914  -8.061  0.00  0.00    -0.303 N 
ATOM     25  H   UNL     1      -1.293   0.615  -8.639  0.00  0.00    +0.150 HD
BRANCH  24  26
ATOM     26  C   UNL     1      -3.347   1.154  -8.616  0.00  0.00    +0.100 C 
ATOM     27  C   UNL     1      -4.208  -0.097  -8.429  0.00  0.00    +0.033 C 
BRANCH  26  28
ATOM     28  C   UNL     1      -3.231   1.470 -10.085  0.00  0.00    -0.027 A 
ATOM     29  C   UNL     1      -2.328   0.779 -10.871  0.00  0.00    +0.005 A 
ATOM     30  C   UNL     1      -2.225   1.065 -12.219  0.00  0.00    +0.000 A 
ATOM     31  C   UNL     1      -3.018   2.049 -12.780  0.00  0.00    +0.000 A 
ATOM     32  C   UNL     1      -3.918   2.743 -11.992  0.00  0.00    +0.000 A 
ATOM     33  C   UNL     1      -4.024   2.454 -10.645  0.00  0.00    +0.005 A 
ENDBRANCH  26  28
ENDBRANCH  24  26
ENDBRANCH   5  22
BRANCH   7  34
ATOM     34  C   UNL     1       2.983  -0.071  -6.443  0.00  0.00    +0.171 C 
BRANCH  34  35
ATOM     35  C   UNL     1       3.094  -1.591  -6.311  0.00  0.00    +0.179 C 
BRANCH  35  36
ATOM     36  O   UNL     1       4.406  -2.008  -6.693  0.00  0.00    -0.393 OA
ATOM     37  H   UNL     1       4.548  -2.963  -6.634  0.00  0.00    +0.209 HD
ENDBRANCH  35  36
ENDBRANCH  34  35
ENDBRANCH   7  34
TORSDOF 9
