REMARK  Name = ZINC20413533
REMARK  8 active torsions:
REMARK  status: ('A' for Active; 'I' for Inactive)
REMARK    1  A    between atoms: C_1  and  C_2
REMARK    2  A    between atoms: C_3  and  C_24
REMARK    3  A    between atoms: C_4  and  C_14
REMARK    4  A    between atoms: C_9  and  S_11
REMARK    5  A    between atoms: S_11  and  C_12
REMARK    6  A    between atoms: C_17  and  O_20
REMARK    7  A    between atoms: O_20  and  C_21
REMARK    8  A    between atoms: N_26  and  C_27
REMARK                            x       y       z     vdW  Elec       q    Type
REMARK                         _______ _______ _______ _____ _____    ______ ____
ROOT
ATOM      1  C   UNL     1       5.367   0.806   6.241  0.00  0.00    +0.061 C 
ATOM      2  C   UNL     1       4.011   0.148   6.202  0.00  0.00    +0.018 C 
ATOM      3  C   UNL     1       2.916   0.914   6.309  0.00  0.00    +0.060 C 
ATOM      4  C   UNL     1       1.517   0.358   6.268  0.00  0.00    +0.177 C 
ATOM      5  N   UNL     1       1.568  -1.096   6.393  0.00  0.00    -0.220 N 
ATOM      6  C   UNL     1       2.710  -1.819   6.287  0.00  0.00    +0.219 A 
ATOM      7  N   UNL     1       2.408  -3.080   6.437  0.00  0.00    -0.187 NA
ATOM      8  C   UNL     1       1.089  -3.202   6.646  0.00  0.00    +0.210 A 
ATOM      9  N   UNL     1       0.539  -2.007   6.628  0.00  0.00    -0.141 NA
ATOM     10  N   UNL     1       3.939  -1.216   6.057  0.00  0.00    -0.287 N 
ATOM     11  H   UNL     1       4.835  -1.786   5.769  0.00  0.00    +0.155 HD
ENDROOT
BRANCH   4  12
ATOM     12  C   UNL     1       0.867   0.728   4.960  0.00  0.00    -0.018 A 
ATOM     13  C   UNL     1      -0.289   1.486   4.953  0.00  0.00    +0.009 A 
ATOM     14  C   UNL     1      -0.887   1.826   3.755  0.00  0.00    +0.046 A 
ATOM     15  C   UNL     1      -0.326   1.407   2.558  0.00  0.00    +0.127 A 
ATOM     16  C   UNL     1       0.832   0.642   2.567  0.00  0.00    +0.046 A 
ATOM     17  C   UNL     1       1.429   0.309   3.768  0.00  0.00    +0.009 A 
BRANCH  15  18
ATOM     18  O   UNL     1      -0.912   1.740   1.378  0.00  0.00    -0.434 OA
BRANCH  18  19
ATOM     19  C   UNL     1      -0.279   1.274   0.184  0.00  0.00    +0.541 C 
ATOM     20  F   UNL     1      -0.230  -0.124   0.198  0.00  0.00    -0.166 F 
ATOM     21  F   UNL     1       1.022   1.786   0.116  0.00  0.00    -0.166 F 
ENDBRANCH  18  19
ENDBRANCH  15  18
ENDBRANCH   4  12
BRANCH   3  22
ATOM     22  C   UNL     1       3.082   2.310   6.466  0.00  0.00    +0.248 C 
ATOM     23  O   UNL     1       2.903   2.826   7.555  0.00  0.00    -0.270 OA
ATOM     24  N   UNL     1       3.438   3.070   5.411  0.00  0.00    -0.282 N 
ATOM     25  H   UNL     1       3.513   2.620   4.410  0.00  0.00    +0.155 HD
BRANCH  24  26
ATOM     26  C   UNL     1       3.712   4.430   5.590  0.00  0.00    +0.034 A 
ATOM     27  C   UNL     1       3.385   5.342   4.595  0.00  0.00    +0.023 A 
ATOM     28  C   UNL     1       3.653   6.685   4.776  0.00  0.00    +0.002 A 
ATOM     29  C   UNL     1       4.256   7.120   5.942  0.00  0.00    +0.000 A 
ATOM     30  C   UNL     1       4.588   6.213   6.932  0.00  0.00    +0.002 A 
ATOM     31  C   UNL     1       4.318   4.870   6.759  0.00  0.00    +0.023 A 
ENDBRANCH  24  26
ENDBRANCH   3  22
BRANCH   8  32
ATOM     32  S   UNL     1       0.231  -4.720   6.903  0.00  0.00    -0.088 S 
ATOM     33  C   UNL     1       1.532  -5.980   6.814  0.00  0.00    +0.093 C 
ENDBRANCH   8  32
TORSDOF 6
