REMARK  Name = ZINC09415918
REMARK  5 active torsions:
REMARK  status: ('A' for Active; 'I' for Inactive)
REMARK    1  A    between atoms: C_1  and  C_2
REMARK    2  A    between atoms: C_2  and  C_4
REMARK    3  A    between atoms: C_2  and  N_65
REMARK    4  A    between atoms: C_10  and  C_15
REMARK    5  A    between atoms: C_23  and  C_26
REMARK                            x       y       z     vdW  Elec       q    Type
REMARK                         _______ _______ _______ _____ _____    ______ ____
ROOT
ATOM      1  C   UNL     1      -2.888  -0.147   1.329  0.00  0.00    -0.005 C 
ATOM      2  C   UNL     1      -2.709   0.556  -0.018  0.00  0.00    -0.004 C 
ENDROOT
BRANCH   2   3
ATOM      3  C   UNL     1      -2.831  -0.453  -1.131  0.00  0.00    +0.097 A 
ATOM      4  N   UNL     1      -2.047  -1.561  -1.116  0.00  0.00    -0.312 N 
ATOM      5  H   UNL     1      -1.419  -1.689  -0.388  0.00  0.00    +0.170 HD
ATOM      6  C   UNL     1      -2.129  -2.489  -2.087  0.00  0.00    +0.260 A 
ATOM      7  O   UNL     1      -1.422  -3.481  -2.057  0.00  0.00    -0.267 OA
ATOM      8  C   UNL     1      -3.060  -2.293  -3.157  0.00  0.00    +0.080 A 
ATOM      9  C   UNL     1      -3.332  -3.142  -4.311  0.00  0.00    +0.004 A 
ATOM     10  C   UNL     1      -4.270  -2.746  -5.205  0.00  0.00    +0.056 A 
ATOM     11  S   UNL     1      -4.845  -1.196  -4.539  0.00  0.00    -0.076 S 
ATOM     12  C   UNL     1      -3.823  -1.116  -3.091  0.00  0.00    +0.116 A 
ATOM     13  N   UNL     1      -3.686  -0.243  -2.096  0.00  0.00    -0.228 NA
BRANCH   9  14
ATOM     14  C   UNL     1      -2.596  -4.414  -4.503  0.00  0.00    -0.017 A 
ATOM     15  C   UNL     1      -1.204  -4.435  -4.428  0.00  0.00    +0.008 A 
ATOM     16  C   UNL     1      -0.524  -5.623  -4.601  0.00  0.00    +0.001 A 
ATOM     17  C   UNL     1      -1.220  -6.790  -4.860  0.00  0.00    +0.000 A 
ATOM     18  C   UNL     1      -2.601  -6.774  -4.941  0.00  0.00    +0.001 A 
ATOM     19  C   UNL     1      -3.292  -5.593  -4.764  0.00  0.00    +0.008 A 
ENDBRANCH   9  14
ENDBRANCH   2   3
BRANCH   2  25
ATOM     20  C   UNL     1      -3.460   2.753   0.669  0.00  0.00    -0.077 C 
ATOM     21  C   UNL     1      -4.475   3.859   0.374  0.00  0.00    -0.006 C 
ATOM     22  C   UNL     1      -5.887   3.337   0.653  0.00  0.00    +0.072 C 
ATOM     23  C   UNL     1      -6.142   2.093  -0.203  0.00  0.00    -0.006 C 
ATOM     24  C   UNL     1      -5.078   1.038   0.109  0.00  0.00    -0.077 C 
ATOM     25  N   UNL     1      -3.744   1.594  -0.203  0.00  0.00    +0.386 N 
ATOM     26  H   UNL     1      -3.734   1.904  -1.182  0.00  0.00    -0.081 HD
BRANCH  22  27
ATOM     27  C   UNL     1      -6.895   4.402   0.306  0.00  0.00    +0.219 C 
ATOM     28  O   UNL     1      -7.668   4.230  -0.612  0.00  0.00    -0.275 OA
ATOM     29  N   UNL     1      -6.938   5.546   1.017  0.00  0.00    -0.301 N 
ATOM     30  C   UNL     1      -7.852   6.587   0.602  0.00  0.00    +0.108 C 
ATOM     31  C   UNL     1      -7.161   7.519  -0.415  0.00  0.00    +0.019 C 
ATOM     32  C   UNL     1      -6.144   8.342   0.257  0.00  0.00    +0.002 C 
ATOM     33  C   UNL     1      -5.001   7.546   0.879  0.00  0.00    +0.002 C 
ATOM     34  C   UNL     1      -5.405   7.087   2.259  0.00  0.00    +0.019 C 
ATOM     35  C   UNL     1      -6.045   5.688   2.184  0.00  0.00    +0.108 C 
ENDBRANCH  22  27
ENDBRANCH   2  25
TORSDOF 4
