REMARK  Name = ZINC05572501
REMARK  2 active torsions:
REMARK  status: ('A' for Active; 'I' for Inactive)
REMARK    1  A    between atoms: N_12  and  N_13
REMARK    2  A    between atoms: C_14  and  C_16
REMARK                            x       y       z     vdW  Elec       q    Type
REMARK                         _______ _______ _______ _____ _____    ______ ____
ROOT
ATOM      1  N   UNL     1      -7.091   6.002   0.069  0.00  0.00    -0.203 N 
ATOM      2  C   UNL     1      -6.788   4.688   0.060  0.00  0.00    +0.263 C 
ATOM      3  O   UNL     1      -7.678   3.859   0.060  0.00  0.00    -0.268 OA
ATOM      4  H   UNL     1      -6.381   6.663   0.069  0.00  0.00    +0.178 HD
ENDROOT
BRANCH   1  16
ATOM      5  C   UNL     1     -14.046  10.463   0.292  0.00  0.00    +0.001 A 
ATOM      6  C   UNL     1     -14.540   9.201   0.009  0.00  0.00    +0.002 A 
ATOM      7  C   UNL     1     -13.713   8.102  -0.154  0.00  0.00    +0.026 A 
ATOM      8  C   UNL     1     -12.344   8.316  -0.020  0.00  0.00    +0.047 A 
ATOM      9  C   UNL     1     -11.840   9.614   0.272  0.00  0.00    +0.003 A 
ATOM     10  C   UNL     1     -12.702  10.706   0.431  0.00  0.00    +0.010 A 
ATOM     11  C   UNL     1     -10.406   9.485   0.341  0.00  0.00    -0.013 A 
ATOM     12  C   UNL     1     -10.116   8.166   0.096  0.00  0.00    +0.067 A 
ATOM     13  N   UNL     1     -11.276   7.467  -0.118  0.00  0.00    -0.353 N 
ATOM     14  H   UNL     1     -11.331   6.517  -0.309  0.00  0.00    +0.166 HD
ATOM     15  C   UNL     1      -8.723   7.679   0.086  0.00  0.00    +0.083 C 
ATOM     16  N   UNL     1      -8.431   6.412   0.078  0.00  0.00    -0.183 NA
ATOM     17  C   UNL     1      -7.653   8.758   0.093  0.00  0.00    +0.059 C 
ATOM     18  C   UNL     1      -8.068   9.847   1.083  0.00  0.00    +0.011 C 
ATOM     19  C   UNL     1      -9.358  10.530   0.620  0.00  0.00    +0.038 C 
ENDBRANCH   1  16
BRANCH   2  20
ATOM     20  C   UNL     1      -5.378   4.257   0.051  0.00  0.00    +0.040 A 
ATOM     21  C   UNL     1      -4.344   5.204   0.051  0.00  0.00    +0.015 A 
ATOM     22  C   UNL     1      -3.042   4.829   0.043  0.00  0.00    +0.029 A 
ATOM     23  C   UNL     1      -2.675   3.461   0.034  0.00  0.00    +0.080 A 
ATOM     24  C   UNL     1      -3.736   2.523   0.034  0.00  0.00    +0.041 A 
ATOM     25  C   UNL     1      -5.052   2.896   0.042  0.00  0.00    +0.030 A 
ATOM     26  S   UNL     1      -2.872   0.971   0.021  0.00  0.00    -0.053 S 
ATOM     27  C   UNL     1      -1.214   1.639   0.017  0.00  0.00    +0.157 A 
ATOM     28  N   UNL     1      -1.434   2.936   0.031  0.00  0.00    -0.225 NA
ATOM     29  N   UNL     1      -0.011   0.966   0.007  0.00  0.00    -0.337 N 
ATOM     30  H   UNL     1       0.002  -0.004   0.002  0.00  0.00    +0.144 HD
ATOM     31  H   UNL     1       0.822   1.462   0.002  0.00  0.00    +0.144 HD
ENDBRANCH   2  20
TORSDOF 2
