REMARK  Name = ZINC39689658
REMARK  9 active torsions:
REMARK  status: ('A' for Active; 'I' for Inactive)
REMARK    1  A    between atoms: C_1  and  C_2
REMARK    2  A    between atoms: C_2  and  C_3
REMARK    3  A    between atoms: C_3  and  C_4
REMARK    4  A    between atoms: C_3  and  C_6
REMARK    5  A    between atoms: C_4  and  C_5
REMARK    6  A    between atoms: C_10  and  C_19
REMARK    7  A    between atoms: N_21  and  C_22
REMARK    8  A    between atoms: C_22  and  C_23
REMARK    9  A    between atoms: N_27  and  C_29
REMARK                            x       y       z     vdW  Elec       q    Type
REMARK                         _______ _______ _______ _____ _____    ______ ____
ROOT
ATOM      1  C   UNL     1       0.557  -1.958  -1.197  0.00  0.00    +0.219 C 
ATOM      2  O   UNL     1      -0.162  -2.511  -0.391  0.00  0.00    -0.275 OA
ATOM      3  N   UNL     1       1.177  -2.678  -2.152  0.00  0.00    -0.300 N 
ATOM      4  C   UNL     1       2.010  -2.177  -3.271  0.00  0.00    +0.121 C 
ATOM      5  C   UNL     1       3.171  -3.192  -3.379  0.00  0.00    +0.100 C 
ATOM      6  C   UNL     1       2.620  -4.485  -2.756  0.00  0.00    -0.004 C 
ATOM      7  C   UNL     1       1.187  -4.152  -2.317  0.00  0.00    +0.115 C 
ATOM      8  C   UNL     1       3.456  -4.886  -1.544  0.00  0.00    -0.010 C 
ATOM      9  C   UNL     1       2.924  -6.205  -0.976  0.00  0.00    -0.082 C 
ATOM     10  N   UNL     1       2.992  -7.246  -2.008  0.00  0.00    +0.379 N 
ATOM     11  C   UNL     1       2.112  -6.897  -3.130  0.00  0.00    -0.082 C 
ATOM     12  C   UNL     1       2.610  -5.607  -3.789  0.00  0.00    -0.010 C 
ATOM     13  H   UNL     1       3.941  -7.329  -2.339  0.00  0.00    -0.086 HD
ATOM     14  H   UNL     1       2.699  -8.128  -1.614  0.00  0.00    -0.086 HD
ENDROOT
BRANCH   5  15
ATOM     15  C   UNL     1       3.538  -3.417  -4.823  0.00  0.00    +0.218 C 
ATOM     16  O   UNL     1       2.713  -3.236  -5.694  0.00  0.00    -0.275 OA
ATOM     17  N   UNL     1       4.782  -3.821  -5.147  0.00  0.00    -0.315 N 
ATOM     18  H   UNL     1       5.442  -3.966  -4.450  0.00  0.00    +0.149 HD
BRANCH  17  19
ATOM     19  C   UNL     1       5.139  -4.040  -6.551  0.00  0.00    +0.105 C 
BRANCH  19  20
ATOM     20  C   UNL     1       6.599  -4.490  -6.641  0.00  0.00    -0.012 C 
ATOM     21  C   UNL     1       7.562  -3.331  -6.273  0.00  0.00    -0.016 C 
ATOM     22  C   UNL     1       8.852  -3.695  -7.037  0.00  0.00    -0.079 C 
ATOM     23  N   UNL     1       8.467  -4.591  -8.142  0.00  0.00    +0.378 N 
ATOM     24  C   UNL     1       7.001  -4.777  -8.110  0.00  0.00    -0.074 C 
ATOM     25  C   UNL     1       8.862  -3.991  -9.424  0.00  0.00    -0.096 C 
ATOM     26  H   UNL     1       8.925  -5.483  -8.031  0.00  0.00    -0.082 HD
ENDBRANCH  19  20
ENDBRANCH  17  19
ENDBRANCH   5  15
BRANCH   1  27
ATOM     27  C   UNL     1       0.755  -0.466  -1.130  0.00  0.00    +0.075 C 
BRANCH  27  29
ATOM     28  C   UNL     1      -0.110   1.740  -1.924  0.00  0.00    +0.004 C 
ATOM     29  C   UNL     1      -0.377   0.234  -1.884  0.00  0.00    +0.009 C 
ENDBRANCH  27  29
BRANCH  27  30
ATOM     30  C   UNL     1       0.749  -0.015   0.332  0.00  0.00    +0.009 C 
ATOM     31  C   UNL     1       1.963  -0.606   1.052  0.00  0.00    +0.004 C 
ENDBRANCH  27  30
ENDBRANCH   1  27
TORSDOF 6
