REMARK  Name = ZINC39468465
REMARK  5 active torsions:
REMARK  status: ('A' for Active; 'I' for Inactive)
REMARK    1  A    between atoms: C_1  and  S_2
REMARK    2  A    between atoms: S_2  and  P_3
REMARK    3  A    between atoms: C_11  and  C_22
REMARK    4  A    between atoms: C_12  and  O_21
REMARK    5  A    between atoms: C_22  and  C_23
REMARK                            x       y       z     vdW  Elec       q    Type
REMARK                         _______ _______ _______ _____ _____    ______ ____
ROOT
ATOM      1  P   UNL     1      -2.048  -0.545   0.019  0.00  0.00    +0.314 P 
ATOM      2  O   UNL     1      -2.697  -0.053   1.254  0.00  0.00    -0.262 OA
ATOM      3  N   UNL     1      -2.209  -2.183  -0.103  0.00  0.00    -0.283 NA
ATOM      4  N   UNL     1      -2.055  -2.753  -1.349  0.00  0.00    +0.398 N 
ATOM      5  C   UNL     1      -2.362  -4.183  -1.184  0.00  0.00    -0.046 C 
ATOM      6  C   UNL     1      -2.208  -4.930  -2.501  0.00  0.00    +0.005 C 
ATOM      7  C   UNL     1      -0.795  -4.819  -3.009  0.00  0.00    -0.017 C 
ATOM      8  C   UNL     1      -0.547  -4.997  -4.303  0.00  0.00    -0.006 C 
ATOM      9  C   UNL     1      -1.661  -5.314  -5.218  0.00  0.00    +0.116 C 
ATOM     10  C   UNL     1      -2.912  -5.004  -4.870  0.00  0.00    +0.022 C 
ATOM     11  C   UNL     1      -3.159  -4.331  -3.542  0.00  0.00    +0.019 C 
ATOM     12  C   UNL     1      -2.859  -2.837  -3.672  0.00  0.00    -0.002 C 
ATOM     13  C   UNL     1      -2.976  -2.143  -2.311  0.00  0.00    -0.020 C 
ATOM     14  C   UNL     1      -2.655  -0.659  -2.533  0.00  0.00    +0.157 C 
ATOM     15  O   UNL     1      -2.801   0.056  -1.293  0.00  0.00    -0.312 OA
ATOM     16  H   UNL     1      -2.404  -2.727   0.676  0.00  0.00    +0.112 HD
ATOM     17  H   UNL     1      -1.105  -2.631  -1.665  0.00  0.00    -0.055 HD
ENDROOT
BRANCH   1  19
ATOM     18  C   UNL     1      -0.022   1.810   0.012  0.00  0.00    +0.096 C 
ATOM     19  S   UNL     1       0.002  -0.004   0.002  0.00  0.00    -0.059 S 
ENDBRANCH   1  19
BRANCH   9  20
ATOM     20  O   UNL     1      -1.414  -5.919  -6.410  0.00  0.00    -0.507 OA
ATOM     21  H   UNL     1      -2.207  -6.085  -6.939  0.00  0.00    +0.292 HD
ENDBRANCH   9  20
BRANCH   8  22
ATOM     22  C   UNL     1       0.859  -4.876  -4.831  0.00  0.00    +0.073 C 
BRANCH  22  23
ATOM     23  C   UNL     1       1.492  -6.242  -4.892  0.00  0.00    -0.043 A 
ATOM     24  C   UNL     1       2.185  -6.732  -3.800  0.00  0.00    +0.004 A 
ATOM     25  C   UNL     1       2.766  -7.985  -3.856  0.00  0.00    +0.000 A 
ATOM     26  C   UNL     1       2.654  -8.749  -5.003  0.00  0.00    +0.000 A 
ATOM     27  C   UNL     1       1.960  -8.260  -6.093  0.00  0.00    +0.000 A 
ATOM     28  C   UNL     1       1.375  -7.008  -6.037  0.00  0.00    +0.004 A 
ENDBRANCH  22  23
ENDBRANCH   8  22
TORSDOF 4
