REMARK  Name = ZINC08972088
REMARK  7 active torsions:
REMARK  status: ('A' for Active; 'I' for Inactive)
REMARK    1  A    between atoms: C_1  and  C_2
REMARK    2  A    between atoms: C_2  and  C_4
REMARK    3  A    between atoms: C_2  and  N_50
REMARK    4  A    between atoms: C_15  and  S_28
REMARK    5  A    between atoms: N_16  and  C_20
REMARK    6  A    between atoms: C_23  and  O_26
REMARK    7  A    between atoms: O_26  and  C_27
REMARK                            x       y       z     vdW  Elec       q    Type
REMARK                         _______ _______ _______ _____ _____    ______ ____
ROOT
ATOM      1  C   UNL     1      -3.763   1.782   0.266  0.00  0.00    -0.031 C 
ATOM      2  C   UNL     1      -4.575   0.955   1.227  0.00  0.00    +0.041 A 
ATOM      3  C   UNL     1      -5.186  -0.232   0.767  0.00  0.00    +0.277 A 
ATOM      4  O   UNL     1      -5.062  -0.572  -0.401  0.00  0.00    -0.265 OA
ATOM      5  N   UNL     1      -5.902  -0.986   1.615  0.00  0.00    -0.185 NA
ATOM      6  C   UNL     1      -6.044  -0.633   2.875  0.00  0.00    +0.175 A 
ATOM      7  N   UNL     1      -5.473   0.506   3.357  0.00  0.00    -0.277 N 
ATOM      8  C   UNL     1      -4.732   1.317   2.528  0.00  0.00    +0.110 A 
ATOM      9  N   UNL     1      -4.180   2.462   3.047  0.00  0.00    -0.346 N 
ATOM     10  C   UNL     1      -3.072   2.974   2.236  0.00  0.00    +0.029 C 
ATOM     11  H   UNL     1      -3.893   2.322   4.005  0.00  0.00    +0.145 HD
ATOM     12  N   UNL     1      -3.547   3.118   0.847  0.00  0.00    +0.397 N 
ATOM     13  H   UNL     1      -4.435   3.634   0.847  0.00  0.00    -0.078 HD
ENDROOT
BRANCH   7  14
ATOM     14  C   UNL     1      -5.641   0.854   4.705  0.00  0.00    +0.050 A 
ATOM     15  C   UNL     1      -4.545   0.879   5.558  0.00  0.00    +0.030 A 
ATOM     16  C   UNL     1      -4.711   1.227   6.884  0.00  0.00    +0.047 A 
ATOM     17  C   UNL     1      -5.973   1.541   7.367  0.00  0.00    +0.120 A 
ATOM     18  C   UNL     1      -7.069   1.511   6.516  0.00  0.00    +0.047 A 
ATOM     19  C   UNL     1      -6.904   1.169   5.189  0.00  0.00    +0.030 A 
BRANCH  17  20
ATOM     20  O   UNL     1      -6.136   1.878   8.674  0.00  0.00    -0.495 OA
ATOM     21  C   UNL     1      -4.964   1.888   9.492  0.00  0.00    +0.277 C 
ENDBRANCH  17  20
ENDBRANCH   7  14
BRANCH  12  23
ATOM     22  C   UNL     1      -3.022   3.927  -1.411  0.00  0.00    -0.008 C 
ATOM     23  C   UNL     1      -2.553   3.869   0.044  0.00  0.00    -0.038 C 
BRANCH  23  24
ATOM     24  C   UNL     1      -1.211   3.186   0.112  0.00  0.00    -0.061 A 
ATOM     25  C   UNL     1      -0.203   3.719   0.894  0.00  0.00    +0.002 A 
ATOM     26  C   UNL     1       1.029   3.096   0.953  0.00  0.00    +0.000 A 
ATOM     27  C   UNL     1       1.251   1.934   0.238  0.00  0.00    +0.000 A 
ATOM     28  C   UNL     1       0.242   1.399  -0.541  0.00  0.00    +0.000 A 
ATOM     29  C   UNL     1      -0.989   2.025  -0.604  0.00  0.00    +0.002 A 
ENDBRANCH  23  24
ENDBRANCH  12  23
BRANCH   6  30
ATOM     30  S   UNL     1      -6.990  -1.652   3.957  0.00  0.00    -0.105 S 
ATOM     31  H   UNL     1      -5.977  -2.507   4.437  0.00  0.00    +0.110 HD
ENDBRANCH   6  30
TORSDOF 5
