REMARK  Name = ZINC43477741
REMARK  6 active torsions:
REMARK  status: ('A' for Active; 'I' for Inactive)
REMARK    1  A    between atoms: C_3  and  O_10
REMARK    2  A    between atoms: C_6  and  C_7
REMARK    3  A    between atoms: C_7  and  N_8
REMARK    4  A    between atoms: O_10  and  C_11
REMARK    5  A    between atoms: C_11  and  C_12
REMARK    6  A    between atoms: C_15  and  N_19
REMARK                            x       y       z     vdW  Elec       q    Type
REMARK                         _______ _______ _______ _____ _____    ______ ____
ROOT
ATOM      1  C   UNL     1      -0.017   1.378   0.010  0.00  0.00    +0.005 A 
ATOM      2  C   UNL     1       1.170   2.087   0.002  0.00  0.00    +0.047 A 
ATOM      3  C   UNL     1       2.380   1.411  -0.013  0.00  0.00    +0.139 A 
ATOM      4  C   UNL     1       2.397   0.022  -0.021  0.00  0.00    +0.083 A 
ATOM      5  C   UNL     1       1.208  -0.682  -0.013  0.00  0.00    +0.025 A 
ATOM      6  C   UNL     1       0.002  -0.004   0.002  0.00  0.00    -0.063 A 
ATOM      7 CL   UNL     1       3.910  -0.828  -0.040  0.00  0.00    -0.080 Cl
ENDROOT
BRANCH   6   8
ATOM      8  C   UNL     1      -1.293  -0.774   0.011  0.00  0.00    -0.051 C 
BRANCH   8   9
ATOM      9  N   UNL     1      -1.728  -1.017  -1.371  0.00  0.00    +0.381 N 
ATOM     10  H   UNL     1      -1.864  -0.134  -1.841  0.00  0.00    -0.090 HD
ATOM     11  H   UNL     1      -1.023  -1.550  -1.857  0.00  0.00    -0.090 HD
ATOM     12  H   UNL     1      -2.595  -1.532  -1.366  0.00  0.00    -0.090 HD
ENDBRANCH   8   9
ENDBRANCH   6   8
BRANCH   3  13
ATOM     13  O   UNL     1       3.548   2.106  -0.021  0.00  0.00    -0.486 OA
BRANCH  13  14
ATOM     14  C   UNL     1       3.455   3.532  -0.013  0.00  0.00    +0.265 C 
BRANCH  14  15
ATOM     15  C   UNL     1       4.840   4.126  -0.023  0.00  0.00    +0.004 A 
ATOM     16  C   UNL     1       5.947   3.299  -0.044  0.00  0.00    +0.010 A 
ATOM     17  C   UNL     1       7.217   3.843  -0.054  0.00  0.00    +0.033 A 
ATOM     18  C   UNL     1       7.381   5.216  -0.044  0.00  0.00    +0.127 A 
ATOM     19  C   UNL     1       6.274   6.044  -0.023  0.00  0.00    +0.048 A 
ATOM     20  C   UNL     1       5.003   5.499  -0.018  0.00  0.00    +0.026 A 
ATOM     21 BR   UNL     1       3.489   6.632   0.003  0.00  0.00    -0.050 Br
BRANCH  18  22
ATOM     22  N   UNL     1       8.741   5.799  -0.054  0.00  0.00    +0.056 N 
ATOM     23  O   UNL     1       9.709   5.075  -0.072  0.00  0.00    -0.126 OA
ATOM     24  O   UNL     1       8.884   7.000  -0.045  0.00  0.00    -0.126 OA
ENDBRANCH  18  22
ENDBRANCH  14  15
ENDBRANCH  13  14
ENDBRANCH   3  13
TORSDOF 6
