REMARK  Name = ZINC38915200
REMARK  3 active torsions:
REMARK  status: ('A' for Active; 'I' for Inactive)
REMARK    1  A    between atoms: C_10  and  C_11
REMARK    2  A    between atoms: N_12  and  N_13
REMARK    3  A    between atoms: C_14  and  C_20
REMARK                            x       y       z     vdW  Elec       q    Type
REMARK                         _______ _______ _______ _____ _____    ______ ____
ROOT
ATOM      1  C   UNL     1       4.963   0.093  -0.246  0.00  0.00    +0.139 C 
ATOM      2  N   UNL     1       4.983   1.388  -0.136  0.00  0.00    -0.183 NA
ENDROOT
BRANCH   1  12
ATOM      3  C   UNL     1       0.086   1.333   0.884  0.00  0.00    +0.001 A 
ATOM      4  C   UNL     1       1.272   2.058   0.788  0.00  0.00    +0.001 A 
ATOM      5  C   UNL     1       2.444   1.443   0.461  0.00  0.00    +0.009 A 
ATOM      6  C   UNL     1       2.458   0.065   0.218  0.00  0.00    -0.009 A 
ATOM      7  C   UNL     1       1.254  -0.676   0.315  0.00  0.00    -0.017 A 
ATOM      8  C   UNL     1       0.064  -0.009   0.655  0.00  0.00    +0.008 A 
ATOM      9  C   UNL     1       1.273  -2.059   0.072  0.00  0.00    +0.008 A 
ATOM     10  C   UNL     1       2.434  -2.692  -0.255  0.00  0.00    +0.001 A 
ATOM     11  C   UNL     1       3.636  -2.007  -0.360  0.00  0.00    +0.010 A 
ATOM     12  C   UNL     1       3.691  -0.636  -0.135  0.00  0.00    +0.002 A 
ENDBRANCH   1  12
BRANCH   2  13
ATOM     13  N   UNL     1       6.194   2.083  -0.249  0.00  0.00    -0.168 N 
ATOM     14  C   UNL     1       7.550   1.520  -0.390  0.00  0.00    +0.301 C 
ATOM     15  N   UNL     1       8.410   2.712  -0.464  0.00  0.00    -0.163 NA
ATOM     16  N   UNL     1       7.686   3.708  -0.382  0.00  0.00    -0.096 NA
ATOM     17  C   UNL     1       6.384   3.421  -0.260  0.00  0.00    +0.199 C 
ATOM     18  S   UNL     1       5.135   4.585  -0.134  0.00  0.00    -0.013 S 
BRANCH  14  19
ATOM     19  C   UNL     1       7.904   0.680   0.811  0.00  0.00    +0.151 A 
ATOM     20  C   UNL     1       9.141   0.499   1.308  0.00  0.00    +0.049 A 
ATOM     21  C   UNL     1       9.011  -0.354   2.427  0.00  0.00    +0.041 A 
ATOM     22  C   UNL     1       7.703  -0.644   2.548  0.00  0.00    +0.195 A 
ATOM     23  O   UNL     1       7.037  -0.009   1.569  0.00  0.00    -0.464 OA
ENDBRANCH  14  19
ENDBRANCH   2  13
TORSDOF 3
