REMARK  Name = ZINC20882330
REMARK  9 active torsions:
REMARK  status: ('A' for Active; 'I' for Inactive)
REMARK    1  A    between atoms: C_1  and  C_2
REMARK    2  A    between atoms: C_2  and  C_3
REMARK    3  A    between atoms: C_2  and  O_4
REMARK    4  A    between atoms: O_4  and  C_5
REMARK    5  A    between atoms: C_8  and  C_11
REMARK    6  A    between atoms: C_16  and  C_22
REMARK    7  A    between atoms: C_24  and  O_30
REMARK    8  A    between atoms: C_25  and  O_29
REMARK    9  A    between atoms: O_30  and  C_31
REMARK                            x       y       z     vdW  Elec       q    Type
REMARK                         _______ _______ _______ _____ _____    ______ ____
ROOT
ATOM      1  C   UNL     1       2.100  -1.071  -3.729  0.00  0.00    +0.032 C 
ATOM      2  C   UNL     1       2.357  -1.903  -2.471  0.00  0.00    +0.059 C 
ATOM      3  C   UNL     1       2.283  -1.016  -1.253  0.00  0.00    +0.018 C 
ATOM      4  C   UNL     1       2.630   0.286  -1.323  0.00  0.00    +0.020 C 
ATOM      5  C   UNL     1       2.555   1.153  -0.088  0.00  0.00    +0.063 C 
ATOM      6  C   UNL     1       2.917   0.318   1.141  0.00  0.00    +0.109 C 
ATOM      7  C   UNL     1       2.139  -0.972   1.108  0.00  0.00    +0.218 C 
ATOM      8  O   UNL     1       1.769  -1.482   2.144  0.00  0.00    -0.275 OA
ATOM      9  N   UNL     1       1.855  -1.559  -0.068  0.00  0.00    -0.289 N 
ATOM     10  C   UNL     1       3.063   0.864  -2.528  0.00  0.00    +0.162 C 
ATOM     11  O   UNL     1       3.378   2.037  -2.550  0.00  0.00    -0.292 OA
ATOM     12  C   UNL     1       3.141   0.052  -3.794  0.00  0.00    +0.088 C 
ATOM     13  H   UNL     1       1.269  -2.490  -0.069  0.00  0.00    +0.155 HD
ENDROOT
BRANCH   5  14
ATOM     14  C   UNL     1       1.155   1.691   0.063  0.00  0.00    -0.034 A 
ATOM     15  C   UNL     1       0.937   3.056   0.063  0.00  0.00    +0.053 A 
ATOM     16  C   UNL     1      -0.349   3.553   0.202  0.00  0.00    +0.163 A 
ATOM     17  C   UNL     1      -1.419   2.675   0.342  0.00  0.00    +0.177 A 
ATOM     18  C   UNL     1      -1.195   1.307   0.336  0.00  0.00    +0.086 A 
ATOM     19  C   UNL     1       0.092   0.818   0.202  0.00  0.00    +0.028 A 
ATOM     20 CL   UNL     1      -2.529   0.208   0.503  0.00  0.00    -0.080 Cl
BRANCH  17  21
ATOM     21  O   UNL     1      -2.684   3.158   0.479  0.00  0.00    -0.502 OA
ATOM     22  H   UNL     1      -3.529   2.463   0.590  0.00  0.00    +0.292 HD
ENDBRANCH  17  21
BRANCH  16  23
ATOM     23  O   UNL     1      -0.564   4.896   0.203  0.00  0.00    -0.491 OA
ATOM     24  C   UNL     1       0.582   5.737   0.056  0.00  0.00    +0.277 C 
ENDBRANCH  16  23
ENDBRANCH   5  14
BRANCH   1  28
ATOM     25  C   UNL     1       2.452  -3.554  -7.189  0.00  0.00    +0.121 A 
ATOM     26  C   UNL     1       1.262  -2.889  -6.929  0.00  0.00    +0.046 A 
ATOM     27  C   UNL     1       1.151  -2.087  -5.810  0.00  0.00    +0.007 A 
ATOM     28  C   UNL     1       2.224  -1.946  -4.949  0.00  0.00    -0.043 A 
ATOM     29  C   UNL     1       3.412  -2.603  -5.209  0.00  0.00    +0.007 A 
ATOM     30  C   UNL     1       3.527  -3.411  -6.324  0.00  0.00    +0.046 A 
BRANCH  25  31
ATOM     31  O   UNL     1       2.564  -4.343  -8.290  0.00  0.00    -0.489 OA
BRANCH  31  33
ATOM     32  C   UNL     1       1.954  -4.738 -10.595  0.00  0.00    +0.051 C 
ATOM     33  C   UNL     1       1.462  -4.348  -9.200  0.00  0.00    +0.167 C 
ATOM     34  C   UNL     1       0.416  -5.360  -8.727  0.00  0.00    +0.051 C 
ENDBRANCH  31  33
ENDBRANCH  25  31
ENDBRANCH   1  28
TORSDOF 6
