REMARK  Name = ZINC37693097
REMARK  4 active torsions:
REMARK  status: ('A' for Active; 'I' for Inactive)
REMARK    1  A    between atoms: C_3  and  O_11
REMARK    2  A    between atoms: C_4  and  C_8
REMARK    3  A    between atoms: O_11  and  C_12
REMARK    4  A    between atoms: C_19  and  O_21
REMARK                            x       y       z     vdW  Elec       q    Type
REMARK                         _______ _______ _______ _____ _____    ______ ____
ROOT
ATOM      1  C   UNL     1       0.064   1.444   0.788  0.00  0.00    +0.019 A 
ATOM      2  C   UNL     1       1.226   2.138   0.517  0.00  0.00    +0.047 A 
ATOM      3  C   UNL     1       2.400   1.452   0.246  0.00  0.00    +0.135 A 
ATOM      4  C   UNL     1       2.401   0.048   0.250  0.00  0.00    +0.106 A 
ATOM      5  C   UNL     1       1.217  -0.642   0.527  0.00  0.00    +0.034 A 
ATOM      6  C   UNL     1       0.060   0.057   0.793  0.00  0.00    +0.019 A 
ATOM      7 BR   UNL     1      -1.540  -0.878   1.168  0.00  0.00    -0.050 Br
ENDROOT
BRANCH   4   8
ATOM      8  C   UNL     1       3.640  -0.692  -0.037  0.00  0.00    +0.390 C 
ATOM      9  O   UNL     1       3.637  -1.915  -0.033  0.00  0.00    -0.240 OA
ATOM     10  O   UNL     1       4.674  -0.084  -0.279  0.00  0.00    -0.240 OA
ENDBRANCH   4   8
BRANCH   3  11
ATOM     11  O   UNL     1       3.541   2.133  -0.022  0.00  0.00    -0.484 OA
BRANCH  11  12
ATOM     12  C   UNL     1       3.439   3.555  -0.124  0.00  0.00    +0.224 C 
ATOM     13  C   UNL     1       3.445   4.154   1.300  0.00  0.00    +0.213 C 
ATOM     14  S   UNL     1       5.208   4.675   1.464  0.00  0.00    -0.025 S 
ATOM     15  O   UNL     1       5.276   5.868   2.233  0.00  0.00    -0.174 OA
ATOM     16  O   UNL     1       5.998   3.553   1.833  0.00  0.00    -0.174 OA
ATOM     17  C   UNL     1       5.503   5.074  -0.313  0.00  0.00    +0.201 C 
ATOM     18  C   UNL     1       4.571   4.060  -1.006  0.00  0.00    +0.177 C 
BRANCH  18  19
ATOM     19  O   UNL     1       4.006   4.682  -2.162  0.00  0.00    -0.386 OA
ATOM     20  H   UNL     1       4.662   5.033  -2.780  0.00  0.00    +0.210 HD
ENDBRANCH  18  19
ENDBRANCH  11  12
ENDBRANCH   3  11
TORSDOF 4
