REMARK  Name = ZINC00647246
REMARK  9 active torsions:
REMARK  status: ('A' for Active; 'I' for Inactive)
REMARK    1  A    between atoms: C_1  and  C_2
REMARK    2  A    between atoms: C_2  and  C_3
REMARK    3  A    between atoms: C_15  and  C_17
REMARK    4  A    between atoms: C_21  and  N_23
REMARK    5  A    between atoms: C_29  and  C_32
REMARK    6  A    between atoms: C_35  and  O_40
REMARK    7  A    between atoms: C_36  and  O_38
REMARK    8  A    between atoms: O_38  and  C_39
REMARK    9  A    between atoms: O_40  and  C_41
REMARK                            x       y       z     vdW  Elec       q    Type
REMARK                         _______ _______ _______ _____ _____    ______ ____
ROOT
ATOM      1  C   UNL     1       2.114   1.230   5.857  0.00  0.00    +0.220 C 
ATOM      2  O   UNL     1       3.034   1.986   5.627  0.00  0.00    -0.275 OA
ATOM      3  N   UNL     1       1.660   0.407   4.891  0.00  0.00    -0.258 N 
ATOM      4  C   UNL     1       0.601  -0.459   5.168  0.00  0.00    +0.058 A 
ATOM      5  C   UNL     1       0.745  -1.519   6.048  0.00  0.00    +0.025 A 
ATOM      6  C   UNL     1      -0.296  -2.418   6.206  0.00  0.00    +0.002 A 
ATOM      7  C   UNL     1      -1.471  -2.260   5.493  0.00  0.00    +0.002 A 
ATOM      8  C   UNL     1      -1.626  -1.190   4.630  0.00  0.00    +0.025 A 
ATOM      9  C   UNL     1      -0.593  -0.280   4.485  0.00  0.00    +0.053 A 
ATOM     10  N   UNL     1      -0.698   0.842   3.673  0.00  0.00    -0.316 N 
ATOM     11  C   UNL     1       0.039   1.065   2.555  0.00  0.00    +0.017 C 
ATOM     12  C   UNL     1       1.370   0.900   2.470  0.00  0.00    +0.037 C 
ATOM     13  C   UNL     1       2.278   0.434   3.583  0.00  0.00    +0.147 C 
ATOM     14  C   UNL     1       2.043   1.157   1.252  0.00  0.00    +0.163 C 
ATOM     15  O   UNL     1       3.250   1.024   1.210  0.00  0.00    -0.292 OA
ATOM     16  C   UNL     1       1.319   1.586   0.011  0.00  0.00    +0.088 C 
ATOM     17  C   UNL     1      -0.112   1.038   0.065  0.00  0.00    +0.032 C 
ATOM     18  C   UNL     1      -0.756   1.547   1.353  0.00  0.00    +0.059 C 
ATOM     19  H   UNL     1      -1.347   1.518   3.924  0.00  0.00    +0.152 HD
ENDROOT
BRANCH  13  20
ATOM     20  C   UNL     1       2.762  -0.954   3.255  0.00  0.00    -0.020 A 
ATOM     21  C   UNL     1       1.859  -1.997   3.160  0.00  0.00    +0.006 A 
ATOM     22  C   UNL     1       2.304  -3.271   2.859  0.00  0.00    +0.003 A 
ATOM     23  C   UNL     1       3.651  -3.502   2.652  0.00  0.00    +0.033 A 
ATOM     24  C   UNL     1       4.553  -2.459   2.744  0.00  0.00    +0.127 A 
ATOM     25  C   UNL     1       4.109  -1.185   3.042  0.00  0.00    +0.038 A 
BRANCH  24  26
ATOM     26  N   UNL     1       5.995  -2.707   2.522  0.00  0.00    +0.056 N 
ATOM     27  O   UNL     1       6.387  -3.829   2.257  0.00  0.00    -0.126 OA
ATOM     28  O   UNL     1       6.791  -1.788   2.604  0.00  0.00    -0.126 OA
ENDBRANCH  24  26
ENDBRANCH  13  20
BRANCH  17  29
ATOM     29  C   UNL     1      -0.893   1.529  -1.127  0.00  0.00    -0.040 A 
ATOM     30  C   UNL     1      -1.052   2.886  -1.335  0.00  0.00    +0.008 A 
ATOM     31  C   UNL     1      -1.767   3.342  -2.427  0.00  0.00    +0.049 A 
ATOM     32  C   UNL     1      -2.326   2.437  -3.315  0.00  0.00    +0.161 A 
ATOM     33  C   UNL     1      -2.166   1.071  -3.106  0.00  0.00    +0.162 A 
ATOM     34  C   UNL     1      -1.444   0.621  -2.012  0.00  0.00    +0.053 A 
BRANCH  33  35
ATOM     35  O   UNL     1      -2.713   0.179  -3.975  0.00  0.00    -0.491 OA
ATOM     36  C   UNL     1      -2.507  -1.207  -3.697  0.00  0.00    +0.277 C 
ENDBRANCH  33  35
BRANCH  32  37
ATOM     37  O   UNL     1      -3.030   2.884  -4.390  0.00  0.00    -0.491 OA
ATOM     38  C   UNL     1      -3.154   4.299  -4.542  0.00  0.00    +0.277 C 
ENDBRANCH  32  37
ENDBRANCH  17  29
BRANCH   1  40
ATOM     39  C   UNL     1       2.176   2.233   8.124  0.00  0.00    +0.013 C 
ATOM     40  C   UNL     1       1.479   1.211   7.223  0.00  0.00    +0.093 C 
ENDBRANCH   1  40
TORSDOF 6
