REMARK  Name = ZINC11983330
REMARK  6 active torsions:
REMARK  status: ('A' for Active; 'I' for Inactive)
REMARK    1  A    between atoms: C_4  and  N_7
REMARK    2  A    between atoms: C_20  and  C_21
REMARK    3  A    between atoms: C_20  and  N_53
REMARK    4  A    between atoms: C_21  and  C_22
REMARK    5  A    between atoms: C_25  and  S_28
REMARK    6  A    between atoms: S_28  and  N_31
REMARK                            x       y       z     vdW  Elec       q    Type
REMARK                         _______ _______ _______ _____ _____    ______ ____
ROOT
ATOM      1  N   UNL     1      -0.018   1.447   0.010  0.00  0.00    -0.270 N 
ATOM      2  C   UNL     1       0.016   0.024  -0.274  0.00  0.00    +0.090 C 
ATOM      3  C   UNL     1      -1.125  -0.473  -1.173  0.00  0.00    +0.187 C 
ATOM      4  S   UNL     1      -0.366  -1.957  -1.964  0.00  0.00    -0.031 S 
ATOM      5  O   UNL     1      -0.314  -1.756  -3.369  0.00  0.00    -0.174 OA
ATOM      6  O   UNL     1      -0.987  -3.126  -1.447  0.00  0.00    -0.174 OA
ATOM      7  C   UNL     1       1.343  -1.827  -1.273  0.00  0.00    +0.152 C 
ATOM      8  C   UNL     1       1.369  -0.323  -0.918  0.00  0.00    -0.024 C 
ATOM      9  C   UNL     1       2.491   1.493   0.159  0.00  0.00    +0.020 C 
ATOM     10  C   UNL     1       1.127   2.109   0.259  0.00  0.00    +0.203 C 
ATOM     11  O   UNL     1       1.051   3.275   0.583  0.00  0.00    -0.277 OA
ATOM     12  N   UNL     1       2.412   0.024   0.048  0.00  0.00    +0.390 N 
ATOM     13  H   UNL     1       2.170  -0.372   0.964  0.00  0.00    -0.081 HD
ENDROOT
BRANCH   1  17
ATOM     14  C   UNL     1      -3.652   3.482   0.038  0.00  0.00    +0.000 A 
ATOM     15  C   UNL     1      -3.382   2.540   1.014  0.00  0.00    +0.002 A 
ATOM     16  C   UNL     1      -2.178   1.863   1.007  0.00  0.00    +0.023 A 
ATOM     17  C   UNL     1      -1.238   2.130   0.019  0.00  0.00    +0.036 A 
ATOM     18  C   UNL     1      -1.511   3.081  -0.955  0.00  0.00    +0.023 A 
ATOM     19  C   UNL     1      -2.719   3.750  -0.946  0.00  0.00    +0.002 A 
ENDBRANCH   1  17
BRANCH  12  20
ATOM     20  C   UNL     1       3.716  -0.527  -0.388  0.00  0.00    -0.073 C 
BRANCH  20  21
ATOM     21  C   UNL     1       4.829   0.060   0.483  0.00  0.00    +0.016 C 
BRANCH  21  22
ATOM     22  C   UNL     1       6.157  -0.507   0.051  0.00  0.00    -0.049 A 
ATOM     23  C   UNL     1       6.635  -1.666   0.635  0.00  0.00    +0.005 A 
ATOM     24  C   UNL     1       7.851  -2.189   0.236  0.00  0.00    +0.029 A 
ATOM     25  C   UNL     1       8.592  -1.549  -0.739  0.00  0.00    +0.105 A 
ATOM     26  C   UNL     1       8.116  -0.388  -1.319  0.00  0.00    +0.029 A 
ATOM     27  C   UNL     1       6.898   0.133  -0.924  0.00  0.00    +0.005 A 
BRANCH  25  28
ATOM     28  S   UNL     1      10.145  -2.212  -1.243  0.00  0.00    +0.056 S 
ATOM     29  O   UNL     1      10.112  -3.600  -0.938  0.00  0.00    -0.153 OA
ATOM     30  O   UNL     1      10.387  -1.726  -2.556  0.00  0.00    -0.153 OA
BRANCH  28  31
ATOM     31  N   UNL     1      11.304  -1.541  -0.269  0.00  0.00    -0.204 NA
ATOM     32  H   UNL     1      12.110  -2.039  -0.061  0.00  0.00    +0.144 HD
ATOM     33  H   UNL     1      11.176  -0.651   0.094  0.00  0.00    +0.144 HD
ENDBRANCH  28  31
ENDBRANCH  25  28
ENDBRANCH  21  22
ENDBRANCH  20  21
ENDBRANCH  12  20
TORSDOF 6
