REMARK  Name = ZINC07055634
REMARK  3 active torsions:
REMARK  status: ('A' for Active; 'I' for Inactive)
REMARK    1  A    between atoms: C_4  and  S_7
REMARK    2  A    between atoms: S_7  and  N_10
REMARK    3  A    between atoms: N_10  and  C_11
REMARK                            x       y       z     vdW  Elec       q    Type
REMARK                         _______ _______ _______ _____ _____    ______ ____
ROOT
ATOM      1  C   UNL     1       4.626   0.039  -2.446  0.00  0.00    +0.052 A 
ATOM      2  C   UNL     1       5.441   1.061  -1.977  0.00  0.00    +0.028 A 
ATOM      3  C   UNL     1       5.721   2.150  -2.783  0.00  0.00    +0.051 A 
ATOM      4  C   UNL     1       5.190   2.223  -4.058  0.00  0.00    +0.167 A 
ATOM      5  C   UNL     1       4.370   1.199  -4.531  0.00  0.00    +0.169 A 
ATOM      6  C   UNL     1       4.095   0.107  -3.728  0.00  0.00    +0.074 A 
ATOM      7  O   UNL     1       3.980   1.515  -5.807  0.00  0.00    -0.447 OA
ATOM      8  C   UNL     1       4.167   2.936  -5.881  0.00  0.00    +0.254 C 
ATOM      9  O   UNL     1       5.306   3.171  -5.043  0.00  0.00    -0.448 OA
ATOM     10  C   UNL     1       4.434   3.385  -7.322  0.00  0.00    +0.093 C 
ATOM     11  C   UNL     1       3.059   3.911  -7.810  0.00  0.00    +0.008 C 
ATOM     12  C   UNL     1       2.483   4.598  -6.546  0.00  0.00    +0.008 C 
ATOM     13  C   UNL     1       2.936   3.690  -5.380  0.00  0.00    +0.093 C 
ENDROOT
BRANCH   1  14
ATOM     14  N   UNL     1       4.345  -1.062  -1.630  0.00  0.00    -0.216 N 
ATOM     15  H   UNL     1       4.391  -1.960  -1.994  0.00  0.00    +0.174 HD
BRANCH  14  16
ATOM     16  S   UNL     1       3.934  -0.832  -0.042  0.00  0.00    +0.072 S 
ATOM     17  O   UNL     1       4.902   0.054   0.504  0.00  0.00    -0.150 OA
ATOM     18  O   UNL     1       3.686  -2.120   0.504  0.00  0.00    -0.150 OA
BRANCH  16  22
ATOM     19  C   UNL     1      -0.017   1.378   0.010  0.00  0.00    +0.000 A 
ATOM     20  C   UNL     1       1.171   2.086   0.002  0.00  0.00    +0.002 A 
ATOM     21  C   UNL     1       2.377   1.411  -0.014  0.00  0.00    +0.029 A 
ATOM     22  C   UNL     1       2.396   0.029  -0.022  0.00  0.00    +0.108 A 
ATOM     23  C   UNL     1       1.208  -0.679  -0.014  0.00  0.00    +0.029 A 
ATOM     24  C   UNL     1       0.002  -0.004   0.002  0.00  0.00    +0.002 A 
ENDBRANCH  16  22
ENDBRANCH  14  16
ENDBRANCH   1  14
TORSDOF 3
