REMARK  Name = ZINC02672887
REMARK  10 active torsions:
REMARK  status: ('A' for Active; 'I' for Inactive)
REMARK    1  A    between atoms: C_1  and  C_2
REMARK    2  A    between atoms: C_2  and  C_3
REMARK    3  A    between atoms: C_2  and  C_4
REMARK    4  A    between atoms: C_2  and  C_5
REMARK    5  A    between atoms: C_8  and  C_11
REMARK    6  A    between atoms: N_13  and  C_14
REMARK    7  A    between atoms: C_14  and  C_16
REMARK    8  A    between atoms: C_14  and  N_42
REMARK    9  A    between atoms: C_20  and  C_21
REMARK   10  A    between atoms: C_20  and  N_42
REMARK                            x       y       z     vdW  Elec       q    Type
REMARK                         _______ _______ _______ _____ _____    ______ ____
ROOT
ATOM      1  C   UNL     1      -0.964   0.735  -2.208  0.00  0.00    +0.243 C 
ATOM      2  O   UNL     1      -0.594  -0.422  -2.151  0.00  0.00    -0.270 OA
ATOM      3  N   UNL     1      -0.721   1.571  -1.179  0.00  0.00    -0.321 N 
ATOM      4  H   UNL     1      -1.016   2.494  -1.224  0.00  0.00    +0.147 HD
ENDROOT
BRANCH   1   8
ATOM      5  C   UNL     1      -3.019   2.142  -5.649  0.00  0.00    -0.042 A 
ATOM      6  C   UNL     1      -2.599   0.825  -5.588  0.00  0.00    +0.005 A 
ATOM      7  C   UNL     1      -1.931   0.362  -4.473  0.00  0.00    +0.013 A 
ATOM      8  C   UNL     1      -1.679   1.225  -3.406  0.00  0.00    +0.037 A 
ATOM      9  C   UNL     1      -2.109   2.551  -3.471  0.00  0.00    +0.013 A 
ATOM     10  C   UNL     1      -2.772   3.003  -4.594  0.00  0.00    +0.005 A 
BRANCH   5  12
ATOM     11  C   UNL     1      -5.033   1.832  -7.062  0.00  0.00    +0.015 C 
ATOM     12  C   UNL     1      -3.749   2.641  -6.869  0.00  0.00    -0.013 C 
ATOM     13  C   UNL     1      -4.099   4.119  -6.685  0.00  0.00    +0.015 C 
ATOM     14  C   UNL     1      -2.854   2.479  -8.100  0.00  0.00    +0.015 C 
ENDBRANCH   5  12
ENDBRANCH   1   8
BRANCH   3  15
ATOM     15  C   UNL     1      -0.013   1.086   0.008  0.00  0.00    +0.068 C 
BRANCH  15  16
ATOM     16  C   UNL     1      -0.729   1.579   1.267  0.00  0.00    +0.194 C 
ATOM     17 CL   UNL     1      -0.753   3.382   1.277  0.00  0.00    -0.084 Cl
ATOM     18 CL   UNL     1      -2.420   0.955   1.280  0.00  0.00    -0.084 Cl
ATOM     19 CL   UNL     1       0.143   0.982   2.728  0.00  0.00    -0.084 Cl
ENDBRANCH  15  16
BRANCH  15  20
ATOM     20  N   UNL     1       1.368   1.604  -0.000  0.00  0.00    +0.396 N 
ATOM     21  H   UNL     1       1.604   1.955   0.936  0.00  0.00    -0.083 HD
ATOM     22  H   UNL     1       1.438   2.371  -0.680  0.00  0.00    -0.083 HD
BRANCH  20  23
ATOM     23  C   UNL     1       2.314   0.536  -0.372  0.00  0.00    -0.053 C 
BRANCH  23  24
ATOM     24  C   UNL     1       3.714   1.093  -0.372  0.00  0.00    -0.053 C 
ATOM     25  C   UNL     1       4.647   0.523   0.350  0.00  0.00    +0.002 C 
ENDBRANCH  23  24
ENDBRANCH  20  23
ENDBRANCH  15  20
ENDBRANCH   3  15
TORSDOF 7
