REMARK  Name = ZINC35967133
REMARK  12 active torsions:
REMARK  status: ('A' for Active; 'I' for Inactive)
REMARK    1  A    between atoms: C_1  and  C_2
REMARK    2  A    between atoms: C_2  and  N_3
REMARK    3  A    between atoms: C_6  and  C_11
REMARK    4  A    between atoms: C_15  and  O_17
REMARK    5  A    between atoms: O_17  and  C_18
REMARK    6  A    between atoms: N_26  and  C_28
REMARK    7  A    between atoms: C_28  and  C_29
REMARK    8  A    between atoms: N_31  and  C_32
REMARK    9  A    between atoms: C_32  and  C_33
REMARK   10  A    between atoms: C_33  and  N_34
REMARK   11  A    between atoms: N_34  and  C_35
REMARK   12  A    between atoms: N_34  and  C_36
REMARK                            x       y       z     vdW  Elec       q    Type
REMARK                         _______ _______ _______ _____ _____    ______ ____
ROOT
ATOM      1  N   UNL     1      -1.384  -0.472   0.220  0.00  0.00    -0.257 N 
ATOM      2  C   UNL     1      -1.974  -0.762   1.417  0.00  0.00    +0.042 C 
ATOM      3  C   UNL     1      -3.235  -1.234   1.479  0.00  0.00    +0.058 C 
ATOM      4  C   UNL     1      -3.978  -1.432   0.173  0.00  0.00    +0.142 C 
ATOM      5  N   UNL     1      -3.255  -1.090  -1.064  0.00  0.00    -0.288 N 
ATOM      6  C   UNL     1      -1.995  -0.623  -0.963  0.00  0.00    +0.307 C 
ATOM      7  O   UNL     1      -1.392  -0.334  -1.978  0.00  0.00    -0.252 OA
ATOM      8  C   UNL     1      -3.611  -1.454   2.820  0.00  0.00    +0.247 C 
ATOM      9  O   UNL     1      -4.697  -1.879   3.169  0.00  0.00    -0.270 OA
ATOM     10  N   UNL     1      -2.613  -1.134   3.663  0.00  0.00    -0.283 N 
ATOM     11  C   UNL     1      -1.485  -0.666   2.845  0.00  0.00    +0.160 C 
ATOM     12  H   UNL     1      -3.678  -1.196  -1.931  0.00  0.00    +0.151 HD
ENDROOT
BRANCH   4  13
ATOM     13  C   UNL     1      -4.387  -2.880   0.086  0.00  0.00    -0.019 A 
ATOM     14  C   UNL     1      -3.466  -3.836  -0.304  0.00  0.00    +0.006 A 
ATOM     15  C   UNL     1      -3.838  -5.165  -0.384  0.00  0.00    +0.004 A 
ATOM     16  C   UNL     1      -5.131  -5.542  -0.075  0.00  0.00    +0.046 A 
ATOM     17  C   UNL     1      -6.056  -4.585   0.316  0.00  0.00    +0.129 A 
ATOM     18  C   UNL     1      -5.679  -3.252   0.402  0.00  0.00    +0.052 A 
BRANCH  17  19
ATOM     19  O   UNL     1      -7.329  -4.953   0.621  0.00  0.00    -0.456 OA
BRANCH  19  20
ATOM     20  C   UNL     1      -8.327  -4.539  -0.203  0.00  0.00    +0.128 A 
ATOM     21  C   UNL     1      -8.023  -3.879  -1.385  0.00  0.00    +0.046 A 
ATOM     22  C   UNL     1      -9.040  -3.459  -2.221  0.00  0.00    +0.004 A 
ATOM     23  C   UNL     1     -10.359  -3.696  -1.881  0.00  0.00    +0.000 A 
ATOM     24  C   UNL     1     -10.664  -4.354  -0.703  0.00  0.00    +0.004 A 
ATOM     25  C   UNL     1      -9.651  -4.781   0.133  0.00  0.00    +0.046 A 
ENDBRANCH  19  20
ENDBRANCH  17  19
ENDBRANCH   4  13
BRANCH   1  27
ATOM     26  C   UNL     1      -0.035   1.565   0.319  0.00  0.00    +0.025 C 
ATOM     27  C   UNL     1      -0.011   0.038   0.229  0.00  0.00    +0.111 C 
ENDBRANCH   1  27
BRANCH  10  28
ATOM     28  C   UNL     1      -2.645  -1.232   5.124  0.00  0.00    +0.204 C 
BRANCH  28  29
ATOM     29  C   UNL     1      -2.162  -2.596   5.546  0.00  0.00    +0.230 C 
ATOM     30  O   UNL     1      -1.824  -3.406   4.709  0.00  0.00    -0.274 OA
ATOM     31  N   UNL     1      -2.105  -2.916   6.854  0.00  0.00    -0.316 N 
ATOM     32  H   UNL     1      -2.375  -2.268   7.524  0.00  0.00    +0.149 HD
BRANCH  31  33
ATOM     33  C   UNL     1      -1.635  -4.242   7.265  0.00  0.00    +0.085 C 
BRANCH  33  34
ATOM     34  C   UNL     1      -1.668  -4.345   8.791  0.00  0.00    -0.061 C 
BRANCH  34  35
ATOM     35  N   UNL     1      -1.197  -5.674   9.202  0.00  0.00    +0.377 N 
ATOM     36  C   UNL     1       0.216  -5.829   8.833  0.00  0.00    -0.097 C 
ATOM     37  C   UNL     1      -1.341  -5.816  10.657  0.00  0.00    -0.097 C 
ATOM     38  H   UNL     1      -1.745  -6.383   8.739  0.00  0.00    -0.083 HD
ENDBRANCH  34  35
ENDBRANCH  33  34
ENDBRANCH  31  33
ENDBRANCH  28  29
ENDBRANCH  10  28
TORSDOF 9
