REMARK  Name = ZINC18249605
REMARK  12 active torsions:
REMARK  status: ('A' for Active; 'I' for Inactive)
REMARK    1  A    between atoms: C_4  and  N_7
REMARK    2  A    between atoms: C_11  and  N_64
REMARK    3  A    between atoms: C_15  and  C_16
REMARK    4  A    between atoms: C_15  and  N_64
REMARK    5  A    between atoms: C_16  and  C_17
REMARK    6  A    between atoms: C_17  and  C_18
REMARK    7  A    between atoms: C_18  and  C_19
REMARK    8  A    between atoms: C_19  and  C_20
REMARK    9  A    between atoms: C_20  and  C_21
REMARK   10  A    between atoms: C_21  and  N_67
REMARK   11  A    between atoms: C_22  and  N_67
REMARK   12  A    between atoms: N_27  and  C_30
REMARK                            x       y       z     vdW  Elec       q    Type
REMARK                         _______ _______ _______ _____ _____    ______ ____
ROOT
ATOM      1  C   UNL     1      -4.905  -0.929  -1.531  0.00  0.00    -0.000 C 
ENDROOT
BRANCH   1   2
ATOM      2  C   UNL     1      -5.893  -2.087  -1.691  0.00  0.00    -0.002 C 
BRANCH   2   3
ATOM      3  C   UNL     1      -6.335  -2.182  -3.152  0.00  0.00    -0.019 C 
BRANCH   3   4
ATOM      4  C   UNL     1      -7.323  -3.339  -3.312  0.00  0.00    -0.082 C 
BRANCH   4   5
ATOM      5  N   UNL     1      -7.743  -3.425  -4.724  0.00  0.00    +0.387 N 
ATOM      6  H   UNL     1      -8.192  -2.543  -4.997  0.00  0.00    -0.085 HD
ATOM      7  H   UNL     1      -6.919  -3.586  -5.314  0.00  0.00    -0.085 HD
BRANCH   5  12
ATOM      8  N   UNL     1      -8.363  -6.218  -6.478  0.00  0.00    -0.212 N 
ATOM      9  C   UNL     1      -9.274  -5.428  -7.059  0.00  0.00    +0.225 C 
ATOM     10  O   UNL     1      -9.765  -5.611  -8.152  0.00  0.00    -0.275 OA
ATOM     11  C   UNL     1      -9.592  -4.272  -6.137  0.00  0.00    +0.090 C 
ATOM     12  C   UNL     1      -8.698  -4.534  -4.907  0.00  0.00    +0.026 C 
ATOM     13  C   UNL     1      -7.968  -5.811  -5.265  0.00  0.00    +0.213 C 
ATOM     14  O   UNL     1      -7.155  -6.374  -4.565  0.00  0.00    -0.277 OA
BRANCH   8  18
ATOM     15  C   UNL     1      -6.877  -9.665  -8.292  0.00  0.00    +0.000 A 
ATOM     16  C   UNL     1      -6.048  -8.575  -8.099  0.00  0.00    +0.002 A 
ATOM     17  C   UNL     1      -6.538  -7.431  -7.499  0.00  0.00    +0.024 A 
ATOM     18  C   UNL     1      -7.863  -7.378  -7.088  0.00  0.00    +0.044 A 
ATOM     19  C   UNL     1      -8.691  -8.476  -7.278  0.00  0.00    +0.024 A 
ATOM     20  C   UNL     1      -8.197  -9.614  -7.884  0.00  0.00    +0.002 A 
ENDBRANCH   8  18
ENDBRANCH   5  12
ENDBRANCH   4   5
ENDBRANCH   3   4
ENDBRANCH   2   3
ENDBRANCH   1   2
BRANCH   1  21
ATOM     21  C   UNL     1      -4.464  -0.834  -0.069  0.00  0.00    -0.002 C 
BRANCH  21  22
ATOM     22  C   UNL     1      -3.476   0.324   0.091  0.00  0.00    -0.019 C 
BRANCH  22  23
ATOM     23  C   UNL     1      -3.035   0.419   1.552  0.00  0.00    -0.082 C 
BRANCH  23  24
ATOM     24  N   UNL     1      -2.083   1.537   1.698  0.00  0.00    +0.387 N 
ATOM     25  H   UNL     1      -2.541   2.411   1.414  0.00  0.00    -0.085 HD
ATOM     26  H   UNL     1      -1.267   1.367   1.098  0.00  0.00    -0.085 HD
BRANCH  24  27
ATOM     27  C   UNL     1      -1.639   1.653   3.100  0.00  0.00    +0.026 C 
ATOM     28  C   UNL     1      -1.084   3.065   3.373  0.00  0.00    +0.090 C 
ATOM     29  C   UNL     1       0.359   2.812   3.751  0.00  0.00    +0.225 C 
ATOM     30  O   UNL     1       1.169   3.666   4.042  0.00  0.00    -0.275 OA
ATOM     31  N   UNL     1       0.600   1.496   3.712  0.00  0.00    -0.212 N 
ATOM     32  C   UNL     1      -0.454   0.749   3.361  0.00  0.00    +0.213 C 
ATOM     33  O   UNL     1      -0.457  -0.459   3.262  0.00  0.00    -0.277 OA
BRANCH  31  34
ATOM     34  C   UNL     1       1.854   0.945   4.013  0.00  0.00    +0.044 A 
ATOM     35  C   UNL     1       2.018   0.176   5.157  0.00  0.00    +0.024 A 
ATOM     36  C   UNL     1       3.253  -0.370   5.449  0.00  0.00    +0.002 A 
ATOM     37  C   UNL     1       4.327  -0.143   4.608  0.00  0.00    +0.000 A 
ATOM     38  C   UNL     1       4.167   0.626   3.470  0.00  0.00    +0.002 A 
ATOM     39  C   UNL     1       2.934   1.171   3.171  0.00  0.00    +0.024 A 
ENDBRANCH  31  34
ENDBRANCH  24  27
ENDBRANCH  23  24
ENDBRANCH  22  23
ENDBRANCH  21  22
ENDBRANCH   1  21
TORSDOF 12
