REMARK  Name = ZINC50931093
REMARK  6 active torsions:
REMARK  status: ('A' for Active; 'I' for Inactive)
REMARK    1  A    between atoms: C_1  and  C_2
REMARK    2  A    between atoms: C_4  and  N_23
REMARK    3  A    between atoms: N_6  and  C_7
REMARK    4  A    between atoms: N_8  and  C_9
REMARK    5  A    between atoms: C_9  and  C_10
REMARK    6  A    between atoms: N_14  and  C_16
REMARK                            x       y       z     vdW  Elec       q    Type
REMARK                         _______ _______ _______ _____ _____    ______ ____
ROOT
ATOM      1  C   UNL     1      -1.643   5.447  -2.634  0.00  0.00    +0.119 C 
ENDROOT
BRANCH   1   9
ATOM      2  C   UNL     1      -0.013   1.086   0.008  0.00  0.00    +0.083 C 
ATOM      3  C   UNL     1      -0.742   1.585  -1.213  0.00  0.00    +0.097 C 
ATOM      4  N   UNL     1      -1.252   0.805  -2.099  0.00  0.00    -0.234 NA
ATOM      5  C   UNL     1      -1.878   1.638  -3.137  0.00  0.00    +0.347 C 
ATOM      6  C   UNL     1      -1.624   3.058  -2.667  0.00  0.00    +0.128 C 
ATOM      7  N   UNL     1      -0.930   2.911  -1.485  0.00  0.00    -0.279 N 
ATOM      8  C   UNL     1      -0.461   4.015  -0.644  0.00  0.00    +0.138 C 
ATOM      9  N   UNL     1      -1.981   4.158  -3.243  0.00  0.00    -0.372 N 
ATOM     10  H   UNL     1      -2.473   4.130  -4.078  0.00  0.00    +0.161 HD
BRANCH   5  11
ATOM     11  N   UNL     1      -1.243   1.405  -4.436  0.00  0.00    +0.055 N 
ATOM     12  O   UNL     1      -0.191   0.812  -4.497  0.00  0.00    -0.129 OA
ATOM     13  O   UNL     1      -1.770   1.806  -5.448  0.00  0.00    -0.129 OA
ENDBRANCH   5  11
ENDBRANCH   1   9
BRANCH   1  14
ATOM     14  C   UNL     1      -2.178   6.581  -3.510  0.00  0.00    +0.027 C 
ATOM     15  C   UNL     1      -3.728   6.618  -3.475  0.00  0.00    +0.025 C 
ATOM     16  C   UNL     1      -4.012   8.108  -3.790  0.00  0.00    +0.105 C 
ATOM     17  N   UNL     1      -2.939   8.850  -3.103  0.00  0.00    -0.330 N 
ATOM     18  C   UNL     1      -1.782   7.954  -2.928  0.00  0.00    +0.110 C 
BRANCH  17  19
ATOM     19  C   UNL     1      -3.006  10.182  -2.691  0.00  0.00    +0.031 A 
ATOM     20  C   UNL     1      -1.918  10.770  -2.056  0.00  0.00    +0.023 A 
ATOM     21  C   UNL     1      -1.987  12.088  -1.649  0.00  0.00    +0.003 A 
ATOM     22  C   UNL     1      -3.137  12.823  -1.872  0.00  0.00    +0.015 A 
ATOM     23  C   UNL     1      -4.222  12.241  -2.504  0.00  0.00    +0.020 A 
ATOM     24  C   UNL     1      -4.157  10.924  -2.919  0.00  0.00    +0.038 A 
ATOM     25 BR   UNL     1      -5.792  13.250  -2.807  0.00  0.00    -0.050 Br
ENDBRANCH  17  19
ENDBRANCH   1  14
TORSDOF 4
