REMARK  Name = ZINC45918936
REMARK  5 active torsions:
REMARK  status: ('A' for Active; 'I' for Inactive)
REMARK    1  A    between atoms: C_4  and  C_7
REMARK    2  A    between atoms: C_10  and  C_13
REMARK    3  A    between atoms: C_20  and  O_26
REMARK    4  A    between atoms: C_21  and  C_24
REMARK    5  A    between atoms: C_24  and  O_25
REMARK                            x       y       z     vdW  Elec       q    Type
REMARK                         _______ _______ _______ _____ _____    ______ ____
ROOT
ATOM      1  C   UNL     1       7.396  -2.745  -0.086  0.00  0.00    +0.058 C 
ATOM      2  C   UNL     1       7.421  -4.099   0.003  0.00  0.00    +0.176 C 
ATOM      3  C   UNL     1       8.622  -4.942   0.108  0.00  0.00    +0.231 C 
ATOM      4  O   UNL     1       9.786  -4.582   0.133  0.00  0.00    -0.283 OA
ATOM      5  C   UNL     1       8.102  -6.319   0.176  0.00  0.00    +0.068 A 
ATOM      6  C   UNL     1       8.717  -7.568   0.283  0.00  0.00    +0.019 A 
ATOM      7  C   UNL     1       7.955  -8.701   0.325  0.00  0.00    +0.047 A 
ATOM      8  C   UNL     1       6.567  -8.613   0.261  0.00  0.00    +0.126 A 
ATOM      9  C   UNL     1       5.943  -7.380   0.155  0.00  0.00    +0.062 A 
ATOM     10  C   UNL     1       6.703  -6.218   0.112  0.00  0.00    +0.148 A 
ATOM     11  O   UNL     1       6.344  -4.919   0.018  0.00  0.00    -0.451 OA
ENDROOT
BRANCH   1  15
ATOM     12  C   UNL     1       3.699  -0.687  -0.021  0.00  0.00    -0.018 A 
ATOM     13  C   UNL     1       3.719  -2.082  -0.059  0.00  0.00    +0.009 A 
ATOM     14  C   UNL     1       4.910  -2.749  -0.081  0.00  0.00    +0.008 A 
ATOM     15  C   UNL     1       6.114  -2.031  -0.064  0.00  0.00    -0.021 A 
ATOM     16  C   UNL     1       6.090  -0.631  -0.026  0.00  0.00    +0.008 A 
ATOM     17  C   UNL     1       4.896   0.031  -0.010  0.00  0.00    +0.009 A 
BRANCH  12  21
ATOM     18  C   UNL     1      -0.015   1.381   0.047  0.00  0.00    +0.000 A 
ATOM     19  C   UNL     1       0.003  -0.002   0.014  0.00  0.00    +0.001 A 
ATOM     20  C   UNL     1       1.205  -0.679  -0.008  0.00  0.00    +0.008 A 
ATOM     21  C   UNL     1       2.404   0.034   0.002  0.00  0.00    -0.018 A 
ATOM     22  C   UNL     1       2.379   1.428   0.035  0.00  0.00    +0.008 A 
ATOM     23  C   UNL     1       1.170   2.094   0.058  0.00  0.00    +0.001 A 
ENDBRANCH  12  21
ENDBRANCH   1  15
BRANCH   8  24
ATOM     24  O   UNL     1       5.819  -9.745   0.302  0.00  0.00    -0.506 OA
ATOM     25  H   UNL     1       5.565 -10.016   1.195  0.00  0.00    +0.292 HD
ENDBRANCH   8  24
BRANCH   9  26
ATOM     26  C   UNL     1       4.440  -7.301   0.086  0.00  0.00    +0.198 C 
BRANCH  26  27
ATOM     27  O   UNL     1       3.908  -7.189   1.408  0.00  0.00    -0.390 OA
ATOM     28  H   UNL     1       2.943  -7.132   1.440  0.00  0.00    +0.210 HD
ENDBRANCH  26  27
ENDBRANCH   9  26
TORSDOF 5
