REMARK  Name = ZINC04532754
REMARK  9 active torsions:
REMARK  status: ('A' for Active; 'I' for Inactive)
REMARK    1  A    between atoms: C_1  and  C_2
REMARK    2  A    between atoms: C_2  and  C_3
REMARK    3  A    between atoms: C_21  and  C_23
REMARK    4  A    between atoms: C_23  and  C_27
REMARK    5  A    between atoms: C_24  and  O_25
REMARK    6  A    between atoms: O_25  and  C_26
REMARK    7  A    between atoms: C_27  and  O_29
REMARK    8  A    between atoms: O_29  and  C_30
REMARK    9  A    between atoms: C_31  and  N_59
REMARK                            x       y       z     vdW  Elec       q    Type
REMARK                         _______ _______ _______ _____ _____    ______ ____
ROOT
ATOM      1  C   UNL     1      -0.976   4.416   1.026  0.00  0.00    -0.020 C 
ATOM      2  C   UNL     1      -1.192   2.993   1.448  0.00  0.00    -0.075 C 
ATOM      3  C   UNL     1      -1.760   1.806  -0.516  0.00  0.00    -0.074 C 
ATOM      4  C   UNL     1      -2.604   2.123  -1.731  0.00  0.00    +0.019 C 
ATOM      5  C   UNL     1      -1.706   1.964  -2.947  0.00  0.00    -0.013 A 
ATOM      6  C   UNL     1      -1.839   0.949  -3.924  0.00  0.00    +0.003 A 
ATOM      7  C   UNL     1      -2.733  -0.118  -4.093  0.00  0.00    +0.010 A 
ATOM      8  C   UNL     1      -2.591  -0.962  -5.155  0.00  0.00    +0.001 A 
ATOM      9  C   UNL     1      -1.571  -0.771  -6.080  0.00  0.00    +0.002 A 
ATOM     10  C   UNL     1      -0.686   0.274  -5.941  0.00  0.00    +0.026 A 
ATOM     11  C   UNL     1      -0.807   1.145  -4.862  0.00  0.00    +0.047 A 
ATOM     12  N   UNL     1      -0.092   2.245  -4.460  0.00  0.00    -0.352 N 
ATOM     13  H   UNL     1       0.671   2.628  -4.920  0.00  0.00    +0.166 HD
ATOM     14  C   UNL     1      -0.640   2.735  -3.278  0.00  0.00    +0.086 A 
ATOM     15  C   UNL     1      -0.093   3.899  -2.581  0.00  0.00    +0.180 C 
ATOM     16  O   UNL     1       0.977   4.341  -2.970  0.00  0.00    -0.290 OA
ATOM     17  C   UNL     1      -0.815   4.589  -1.470  0.00  0.00    +0.090 C 
ATOM     18  C   UNL     1      -0.040   4.628  -0.163  0.00  0.00    +0.038 C 
ATOM     19  C   UNL     1      -3.439   3.182   0.577  0.00  0.00    -0.096 C 
ATOM     20  N   UNL     1      -2.279   2.260   0.786  0.00  0.00    +0.378 N 
ATOM     21  H   UNL     1      -2.569   1.457   1.355  0.00  0.00    -0.082 HD
ENDROOT
BRANCH   1  23
ATOM     22  C   UNL     1      -1.312   5.140   3.413  0.00  0.00    +0.004 C 
ATOM     23  C   UNL     1      -0.347   5.175   2.226  0.00  0.00    -0.001 C 
ENDBRANCH   1  23
BRANCH  18  24
ATOM     24  C   UNL     1       1.152   3.728  -0.143  0.00  0.00    +0.074 C 
ATOM     25  C   UNL     1       1.158   2.604  -0.882  0.00  0.00    +0.197 C 
BRANCH  25  26
ATOM     26  O   UNL     1       2.178   1.729  -0.770  0.00  0.00    -0.502 OA
ATOM     27  C   UNL     1       2.118   0.538  -1.598  0.00  0.00    +0.276 C 
ENDBRANCH  25  26
BRANCH  24  28
ATOM     28  C   UNL     1       2.275   4.057   0.654  0.00  0.00    +0.338 C 
ATOM     29  O   UNL     1       3.254   3.334   0.655  0.00  0.00    -0.245 OA
BRANCH  28  30
ATOM     30  O   UNL     1       2.260   5.173   1.412  0.00  0.00    -0.465 OA
ATOM     31  C   UNL     1       3.467   5.505   2.102  0.00  0.00    +0.280 C 
ENDBRANCH  28  30
ENDBRANCH  24  28
ENDBRANCH  18  24
TORSDOF 5
