REMARK  Name = ZINC39682615
REMARK  8 active torsions:
REMARK  status: ('A' for Active; 'I' for Inactive)
REMARK    1  A    between atoms: C_1  and  C_2
REMARK    2  A    between atoms: C_5  and  C_8
REMARK    3  A    between atoms: C_8  and  C_9
REMARK    4  A    between atoms: C_13  and  C_22
REMARK    5  A    between atoms: N_24  and  C_25
REMARK    6  A    between atoms: C_25  and  C_27
REMARK    7  A    between atoms: C_25  and  C_31
REMARK    8  A    between atoms: C_27  and  C_28
REMARK                            x       y       z     vdW  Elec       q    Type
REMARK                         _______ _______ _______ _____ _____    ______ ____
ROOT
ATOM      1  C   UNL     1       0.843  -4.668  -0.399  0.00  0.00    +0.220 C 
ATOM      2  O   UNL     1       1.685  -3.795  -0.442  0.00  0.00    -0.275 OA
ATOM      3  N   UNL     1       1.217  -5.962  -0.342  0.00  0.00    -0.300 N 
ATOM      4  C   UNL     1       0.344  -7.158  -0.290  0.00  0.00    +0.121 C 
ATOM      5  C   UNL     1       1.050  -8.196  -1.191  0.00  0.00    +0.100 C 
ATOM      6  C   UNL     1       2.526  -7.766  -1.202  0.00  0.00    -0.004 C 
ATOM      7  C   UNL     1       2.594  -6.510  -0.321  0.00  0.00    +0.115 C 
ATOM      8  C   UNL     1       2.969  -7.431  -2.623  0.00  0.00    -0.010 C 
ATOM      9  C   UNL     1       4.455  -7.061  -2.616  0.00  0.00    -0.082 C 
ATOM     10  N   UNL     1       5.238  -8.186  -2.091  0.00  0.00    +0.379 N 
ATOM     11  C   UNL     1       4.871  -8.442  -0.693  0.00  0.00    -0.082 C 
ATOM     12  C   UNL     1       3.403  -8.870  -0.618  0.00  0.00    -0.010 C 
ATOM     13  H   UNL     1       5.052  -9.011  -2.642  0.00  0.00    -0.086 HD
ATOM     14  H   UNL     1       6.221  -7.964  -2.144  0.00  0.00    -0.086 HD
ENDROOT
BRANCH   5  15
ATOM     15  C   UNL     1       0.908  -9.579  -0.610  0.00  0.00    +0.219 C 
ATOM     16  O   UNL     1       0.887  -9.731   0.593  0.00  0.00    -0.275 OA
ATOM     17  N   UNL     1       0.804 -10.646  -1.427  0.00  0.00    -0.308 N 
ATOM     18  H   UNL     1       0.891 -10.532  -2.386  0.00  0.00    +0.149 HD
BRANCH  17  19
ATOM     19  C   UNL     1       0.559 -11.977  -0.865  0.00  0.00    +0.114 C 
BRANCH  19  20
ATOM     20  C   UNL     1      -0.920 -12.168  -0.651  0.00  0.00    -0.027 A 
ATOM     21  C   UNL     1      -1.820 -11.705  -1.593  0.00  0.00    +0.005 A 
ATOM     22  C   UNL     1      -3.177 -11.880  -1.396  0.00  0.00    +0.000 A 
ATOM     23  C   UNL     1      -3.634 -12.518  -0.258  0.00  0.00    +0.000 A 
ATOM     24  C   UNL     1      -2.734 -12.982   0.683  0.00  0.00    +0.000 A 
ATOM     25  C   UNL     1      -1.377 -12.810   0.485  0.00  0.00    +0.005 A 
ENDBRANCH  19  20
BRANCH  19  26
ATOM     26  C   UNL     1       1.076 -13.042  -1.835  0.00  0.00    +0.152 C 
BRANCH  26  27
ATOM     27  C   UNL     1       2.575 -12.935  -1.946  0.00  0.00    +0.358 C 
ATOM     28  O   UNL     1       3.184 -12.150  -1.240  0.00  0.00    -0.246 OA
ATOM     29  O   UNL     1       3.179 -13.635  -2.742  0.00  0.00    -0.246 OA
ENDBRANCH  26  27
ENDBRANCH  19  26
ENDBRANCH  17  19
ENDBRANCH   5  15
BRANCH   1  30
ATOM     30  C   UNL     1      -0.619  -4.306  -0.410  0.00  0.00    +0.131 C 
BRANCH  30  35
ATOM     31  C   UNL     1      -1.183   1.439  -0.670  0.00  0.00    +0.044 C 
ATOM     32  C   UNL     1      -1.036  -0.059  -0.603  0.00  0.00    -0.050 A 
ATOM     33  C   UNL     1      -0.972  -0.800  -1.767  0.00  0.00    +0.003 A 
ATOM     34  C   UNL     1      -0.837  -2.175  -1.705  0.00  0.00    +0.004 A 
ATOM     35  C   UNL     1      -0.765  -2.808  -0.478  0.00  0.00    -0.039 A 
ATOM     36  C   UNL     1      -0.829  -2.066   0.687  0.00  0.00    +0.004 A 
ATOM     37  C   UNL     1      -0.959  -0.691   0.624  0.00  0.00    +0.003 A 
ENDBRANCH  30  35
ENDBRANCH   1  30
TORSDOF 7
