REMARK  Name = ZINC13417212
REMARK  5 active torsions:
REMARK  status: ('A' for Active; 'I' for Inactive)
REMARK    1  A    between atoms: C_1  and  C_2
REMARK    2  A    between atoms: C_3  and  C_26
REMARK    3  A    between atoms: C_9  and  C_13
REMARK    4  A    between atoms: C_13  and  S_14
REMARK    5  A    between atoms: S_14  and  C_15
REMARK                            x       y       z     vdW  Elec       q    Type
REMARK                         _______ _______ _______ _____ _____    ______ ____
ROOT
ATOM      1  C   UNL     1      -5.603  12.935   0.128  0.00  0.00    +0.087 C 
ATOM      2  C   UNL     1      -5.848  11.448   0.122  0.00  0.00    +0.119 A 
ATOM      3  C   UNL     1      -7.074  10.854   0.131  0.00  0.00    +0.118 A 
ATOM      4  C   UNL     1      -6.811   9.405   0.120  0.00  0.00    +0.118 A 
ATOM      5  C   UNL     1      -7.614   8.245   0.121  0.00  0.00    +0.263 A 
ATOM      6  O   UNL     1      -8.831   8.324   0.134  0.00  0.00    -0.267 OA
ATOM      7  N   UNL     1      -6.994   7.042   0.109  0.00  0.00    -0.309 N 
ATOM      8  H   UNL     1      -7.519   6.227   0.109  0.00  0.00    +0.170 HD
ATOM      9  C   UNL     1      -5.640   6.976   0.095  0.00  0.00    +0.124 A 
ATOM     10  N   UNL     1      -4.889   8.041   0.099  0.00  0.00    -0.198 NA
ATOM     11  C   UNL     1      -5.423   9.273   0.106  0.00  0.00    +0.235 A 
ATOM     12  O   UNL     1      -4.894  10.508   0.108  0.00  0.00    -0.441 OA
ENDROOT
BRANCH   3  13
ATOM     13  C   UNL     1      -8.385  11.520   0.146  0.00  0.00    +0.391 C 
ATOM     14  O   UNL     1      -8.918  11.789   1.205  0.00  0.00    -0.240 OA
ATOM     15  O   UNL     1      -8.997  11.832  -1.014  0.00  0.00    -0.240 OA
ENDBRANCH   3  13
BRANCH   9  16
ATOM     16  C   UNL     1      -4.980   5.622   0.081  0.00  0.00    +0.151 C 
BRANCH  16  17
ATOM     17  S   UNL     1      -3.177   5.828   0.065  0.00  0.00    -0.078 S 
BRANCH  17  18
ATOM     18  C   UNL     1      -2.559   4.178   0.050  0.00  0.00    +0.196 A 
ATOM     19  N   UNL     1      -3.278   3.078   0.051  0.00  0.00    -0.122 NA
ATOM     20  N   UNL     1      -2.511   2.044   0.037  0.00  0.00    -0.127 NA
ATOM     21  C   UNL     1      -1.248   2.428   0.021  0.00  0.00    +0.180 A 
ATOM     22  N   UNL     1      -1.248   3.807   0.035  0.00  0.00    -0.275 N 
ATOM     23  C   UNL     1      -0.068   4.500   0.027  0.00  0.00    +0.115 A 
ATOM     24  C   UNL     1       1.110   3.843   0.012  0.00  0.00    +0.059 A 
ATOM     25  C   UNL     1       1.142   2.435   0.004  0.00  0.00    +0.045 A 
ATOM     26  C   UNL     1      -0.021   1.732   0.012  0.00  0.00    +0.087 A 
ATOM     27 CL   UNL     1       0.002  -0.004   0.002  0.00  0.00    -0.080 Cl
ATOM     28 CL   UNL     1       2.597   4.740   0.003  0.00  0.00    -0.082 Cl
ENDBRANCH  17  18
ENDBRANCH  16  17
ENDBRANCH   9  16
TORSDOF 4
