REMARK  Name = ZINC21793089
REMARK  4 active torsions:
REMARK  status: ('A' for Active; 'I' for Inactive)
REMARK    1  A    between atoms: C_1  and  C_2
REMARK    2  A    between atoms: N_7  and  S_8
REMARK    3  A    between atoms: S_8  and  C_11
REMARK    4  A    between atoms: C_15  and  C_18
REMARK                            x       y       z     vdW  Elec       q    Type
REMARK                         _______ _______ _______ _____ _____    ______ ____
ROOT
ATOM      1  S   UNL     1      -0.096  -5.153  -0.024  0.00  0.00    +0.102 S 
ATOM      2  O   UNL     1      -0.774  -5.121   1.224  0.00  0.00    -0.146 OA
ATOM      3  O   UNL     1      -0.785  -5.108  -1.266  0.00  0.00    -0.146 OA
ENDROOT
BRANCH   1  10
ATOM      4  C   UNL     1      -0.018   1.503   0.010  0.00  0.00    +0.053 C 
ATOM      5  C   UNL     1       0.002  -0.004   0.002  0.00  0.00    +0.006 A 
ATOM      6  C   UNL     1      -1.023  -0.856   0.002  0.00  0.00    +0.095 A 
ATOM      7  N   UNL     1      -0.798  -2.201  -0.006  0.00  0.00    -0.339 N 
ATOM      8  C   UNL     1       0.505  -2.649  -0.014  0.00  0.00    +0.192 A 
ATOM      9  S   UNL     1       1.406  -1.107  -0.018  0.00  0.00    -0.054 S 
ATOM     10  N   UNL     1       0.961  -3.878  -0.022  0.00  0.00    -0.103 NA
ATOM     11  H   UNL     1      -1.538  -2.828  -0.006  0.00  0.00    +0.167 HD
ENDBRANCH   1  10
BRANCH   1  12
ATOM     12  C   UNL     1       0.868  -6.628  -0.036  0.00  0.00    +0.132 A 
ATOM     13  C   UNL     1       0.821  -7.491   1.045  0.00  0.00    +0.032 A 
ATOM     14  C   UNL     1       1.573  -8.652   1.045  0.00  0.00    +0.023 A 
ATOM     15  C   UNL     1       2.378  -8.959  -0.034  0.00  0.00    +0.057 A 
ATOM     16  C   UNL     1       2.431  -8.092  -1.131  0.00  0.00    +0.102 A 
ATOM     17  C   UNL     1       1.663  -6.922  -1.125  0.00  0.00    +0.083 A 
ATOM     18 CL   UNL     1       1.714  -5.841  -2.482  0.00  0.00    -0.081 Cl
ATOM     19 CL   UNL     1       3.321 -10.416  -0.030  0.00  0.00    -0.083 Cl
BRANCH  16  20
ATOM     20  C   UNL     1       3.287  -8.411  -2.287  0.00  0.00    +0.389 C 
ATOM     21  O   UNL     1       3.954  -9.436  -2.289  0.00  0.00    -0.240 OA
ATOM     22  O   UNL     1       3.331  -7.650  -3.244  0.00  0.00    -0.240 OA
ENDBRANCH  16  20
ENDBRANCH   1  12
TORSDOF 3
