REMARK  Name = ZINC39557493
REMARK  6 active torsions:
REMARK  status: ('A' for Active; 'I' for Inactive)
REMARK    1  A    between atoms: C_7  and  N_15
REMARK    2  A    between atoms: N_15  and  N_16
REMARK    3  A    between atoms: C_17  and  C_18
REMARK    4  A    between atoms: C_19  and  O_26
REMARK    5  A    between atoms: C_21  and  O_25
REMARK    6  A    between atoms: C_23  and  O_24
REMARK                            x       y       z     vdW  Elec       q    Type
REMARK                         _______ _______ _______ _____ _____    ______ ____
ROOT
ATOM      1  N   UNL     1       0.130  -2.845  -0.016  0.00  0.00    -0.236 N 
ATOM      2  H   UNL     1       0.131  -3.728   0.385  0.00  0.00    +0.174 HD
ENDROOT
BRANCH   1   9
ATOM      3  C   UNL     1      -0.018   1.333   0.427  0.00  0.00    +0.001 A 
ATOM      4  C   UNL     1       1.166   2.069   0.426  0.00  0.00    +0.002 A 
ATOM      5  C   UNL     1       2.373   1.459   0.283  0.00  0.00    +0.028 A 
ATOM      6  C   UNL     1       2.437   0.058   0.133  0.00  0.00    +0.073 A 
ATOM      7  C   UNL     1       1.228  -0.687   0.135  0.00  0.00    +0.024 A 
ATOM      8  C   UNL     1       0.001  -0.021   0.285  0.00  0.00    +0.012 A 
ATOM      9  C   UNL     1       1.279  -2.089  -0.014  0.00  0.00    +0.067 A 
ATOM     10  C   UNL     1       2.547  -2.688  -0.160  0.00  0.00    +0.024 A 
ATOM     11  C   UNL     1       2.676  -4.078  -0.313  0.00  0.00    +0.012 A 
ATOM     12  C   UNL     1       3.912  -4.630  -0.453  0.00  0.00    +0.001 A 
ATOM     13  C   UNL     1       5.056  -3.832  -0.445  0.00  0.00    +0.002 A 
ATOM     14  C   UNL     1       4.971  -2.483  -0.299  0.00  0.00    +0.028 A 
ATOM     15  C   UNL     1       3.709  -1.872  -0.151  0.00  0.00    +0.073 A 
ATOM     16  N   UNL     1       3.613  -0.551  -0.008  0.00  0.00    -0.247 NA
ENDBRANCH   1   9
BRANCH   1  17
ATOM     17  N   UNL     1      -1.040  -2.340  -0.598  0.00  0.00    -0.190 NA
ATOM     18  C   UNL     1      -2.150  -3.011  -0.511  0.00  0.00    +0.145 C 
BRANCH  18  19
ATOM     19  C   UNL     1      -3.349  -2.543  -1.226  0.00  0.00    +0.078 A 
ATOM     20  C   UNL     1      -3.324  -1.328  -1.925  0.00  0.00    +0.132 A 
ATOM     21  C   UNL     1      -4.455  -0.896  -2.594  0.00  0.00    +0.091 A 
ATOM     22  C   UNL     1      -5.613  -1.662  -2.574  0.00  0.00    +0.124 A 
ATOM     23  C   UNL     1      -5.645  -2.866  -1.884  0.00  0.00    +0.091 A 
ATOM     24  C   UNL     1      -4.521  -3.314  -1.214  0.00  0.00    +0.132 A 
BRANCH  24  25
ATOM     25  O   UNL     1      -4.552  -4.495  -0.544  0.00  0.00    -0.506 OA
ATOM     26  H   UNL     1      -4.832  -4.416   0.378  0.00  0.00    +0.292 HD
ENDBRANCH  24  25
BRANCH  22  27
ATOM     27  O   UNL     1      -6.720  -1.231  -3.233  0.00  0.00    -0.507 OA
ATOM     28  H   UNL     1      -6.772  -1.530  -4.151  0.00  0.00    +0.292 HD
ENDBRANCH  22  27
BRANCH  20  29
ATOM     29  O   UNL     1      -2.192  -0.578  -1.945  0.00  0.00    -0.506 OA
ATOM     30  H   UNL     1      -1.633  -0.730  -2.719  0.00  0.00    +0.292 HD
ENDBRANCH  20  29
ENDBRANCH  18  19
ENDBRANCH   1  17
TORSDOF 6
