REMARK  Name = ZINC08730441
REMARK  6 active torsions:
REMARK  status: ('A' for Active; 'I' for Inactive)
REMARK    1  A    between atoms: C_1  and  O_2
REMARK    2  A    between atoms: O_2  and  C_3
REMARK    3  A    between atoms: C_19  and  O_24
REMARK    4  A    between atoms: C_20  and  O_22
REMARK    5  A    between atoms: O_22  and  C_23
REMARK    6  A    between atoms: O_24  and  C_25
REMARK                            x       y       z     vdW  Elec       q    Type
REMARK                         _______ _______ _______ _____ _____    ______ ____
ROOT
ATOM      1  C   UNL     1       1.149   2.135   0.003  0.00  0.00    +0.121 A 
ATOM      2  C   UNL     1      -0.017   1.379   0.010  0.00  0.00    +0.047 A 
ATOM      3  C   UNL     1       0.002  -0.004   0.002  0.00  0.00    +0.030 A 
ATOM      4  C   UNL     1       1.250  -0.623  -0.013  0.00  0.00    +0.047 A 
ATOM      5  C   UNL     1       2.442   0.146  -0.020  0.00  0.00    +0.006 A 
ATOM      6  C   UNL     1       2.404   1.545  -0.013  0.00  0.00    +0.056 A 
ATOM      7  C   UNL     1       3.530  -0.806  -0.036  0.00  0.00    -0.022 A 
ATOM      8  C   UNL     1       2.980  -2.043  -0.037  0.00  0.00    +0.013 A 
ATOM      9  N   UNL     1       1.616  -1.941  -0.024  0.00  0.00    -0.359 N 
ATOM     10  H   UNL     1       1.000  -2.691  -0.023  0.00  0.00    +0.166 HD
ATOM     11  C   UNL     1       3.808  -3.301  -0.049  0.00  0.00    -0.000 C 
ATOM     12  C   UNL     1       3.775  -3.935  -1.454  0.00  0.00    +0.003 C 
ATOM     13  C   UNL     1       2.631  -4.970  -1.330  0.00  0.00    +0.035 C 
ATOM     14  C   UNL     1       2.553  -5.298   0.134  0.00  0.00    -0.042 A 
ATOM     15  C   UNL     1       3.232  -4.331   0.874  0.00  0.00    -0.046 A 
ATOM     16  C   UNL     1       3.305  -4.402   2.257  0.00  0.00    +0.052 A 
ATOM     17  C   UNL     1       2.675  -5.477   2.875  0.00  0.00    +0.162 A 
ATOM     18  C   UNL     1       2.000  -6.441   2.137  0.00  0.00    +0.162 A 
ATOM     19  C   UNL     1       1.925  -6.370   0.750  0.00  0.00    +0.053 A 
ATOM     20  C   UNL     1       5.714  -1.859  -0.475  0.00  0.00    -0.076 C 
ATOM     21  C   UNL     1       5.017  -0.560  -0.051  0.00  0.00    +0.018 C 
ATOM     22  N   UNL     1       5.199  -2.987   0.330  0.00  0.00    +0.389 N 
ATOM     23  H   UNL     1       5.787  -3.813   0.169  0.00  0.00    -0.084 HD
ATOM     24  H   UNL     1       5.229  -2.734   1.324  0.00  0.00    -0.084 HD
ENDROOT
BRANCH   1  26
ATOM     25  C   UNL     1      -0.257   4.053   0.026  0.00  0.00    +0.277 C 
ATOM     26  O   UNL     1       1.057   3.492   0.011  0.00  0.00    -0.495 OA
ENDBRANCH   1  26
BRANCH  18  27
ATOM     27  O   UNL     1       1.400  -7.475   2.784  0.00  0.00    -0.491 OA
ATOM     28  C   UNL     1       0.719  -8.438   1.977  0.00  0.00    +0.277 C 
ENDBRANCH  18  27
BRANCH  17  29
ATOM     29  O   UNL     1       2.721  -5.588   4.229  0.00  0.00    -0.491 OA
ATOM     30  C   UNL     1       3.429  -4.569   4.939  0.00  0.00    +0.277 C 
ENDBRANCH  17  29
TORSDOF 3
