REMARK  Name = ZINC39686113
REMARK  10 active torsions:
REMARK  status: ('A' for Active; 'I' for Inactive)
REMARK    1  A    between atoms: C_1  and  C_2
REMARK    2  A    between atoms: C_2  and  C_3
REMARK    3  A    between atoms: C_3  and  C_5
REMARK    4  A    between atoms: C_3  and  C_6
REMARK    5  A    between atoms: C_6  and  C_7
REMARK    6  A    between atoms: C_11  and  C_20
REMARK    7  A    between atoms: N_22  and  C_23
REMARK    8  A    between atoms: C_29  and  C_31
REMARK    9  A    between atoms: C_31  and  C_32
REMARK   10  A    between atoms: C_31  and  C_33
REMARK                            x       y       z     vdW  Elec       q    Type
REMARK                         _______ _______ _______ _____ _____    ______ ____
ROOT
ATOM      1  C   UNL     1      -1.535  -4.712  -1.234  0.00  0.00    +0.216 C 
ATOM      2  O   UNL     1      -2.389  -3.904  -1.536  0.00  0.00    -0.276 OA
ATOM      3  N   UNL     1      -1.865  -6.006  -1.055  0.00  0.00    -0.300 N 
ATOM      4  C   UNL     1      -0.971  -7.128  -0.682  0.00  0.00    +0.121 C 
ATOM      5  C   UNL     1      -1.804  -7.980   0.301  0.00  0.00    +0.100 C 
ATOM      6  C   UNL     1      -3.268  -7.650  -0.036  0.00  0.00    -0.004 C 
ATOM      7  C   UNL     1      -3.205  -6.628  -1.180  0.00  0.00    +0.115 C 
ATOM      8  C   UNL     1      -3.963  -7.035   1.175  0.00  0.00    -0.010 C 
ATOM      9  C   UNL     1      -5.431  -6.768   0.833  0.00  0.00    -0.082 C 
ATOM     10  N   UNL     1      -6.085  -8.027   0.457  0.00  0.00    +0.379 N 
ATOM     11  C   UNL     1      -5.470  -8.565  -0.763  0.00  0.00    -0.082 C 
ATOM     12  C   UNL     1      -4.003  -8.908  -0.489  0.00  0.00    -0.010 C 
ATOM     13  H   UNL     1      -5.982  -8.695   1.206  0.00  0.00    -0.086 HD
ATOM     14  H   UNL     1      -7.066  -7.859   0.291  0.00  0.00    -0.086 HD
ENDROOT
BRANCH   5  15
ATOM     15  C   UNL     1      -1.491  -7.595   1.724  0.00  0.00    +0.218 C 
ATOM     16  O   UNL     1      -1.188  -6.451   1.990  0.00  0.00    -0.275 OA
ATOM     17  N   UNL     1      -1.548  -8.521   2.701  0.00  0.00    -0.312 N 
ATOM     18  H   UNL     1      -1.790  -9.436   2.489  0.00  0.00    +0.149 HD
BRANCH  17  19
ATOM     19  C   UNL     1      -1.244  -8.147   4.085  0.00  0.00    +0.076 C 
ATOM     20  C   UNL     1      -2.502  -7.581   4.748  0.00  0.00    +0.041 C 
ATOM     21  C   UNL     1      -2.171  -7.159   6.183  0.00  0.00    +0.109 C 
ATOM     22  N   UNL     1      -1.580  -8.304   6.889  0.00  0.00    -0.301 N 
ATOM     23  C   UNL     1      -0.421  -8.980   6.291  0.00  0.00    +0.109 C 
ATOM     24  C   UNL     1      -0.771  -9.382   4.855  0.00  0.00    +0.041 C 
ATOM     25  C   UNL     1      -2.092  -8.725   8.062  0.00  0.00    +0.218 C 
ATOM     26  O   UNL     1      -1.537  -9.607   8.684  0.00  0.00    -0.275 OA
BRANCH  25  27
ATOM     27  C   UNL     1      -3.352  -8.101   8.603  0.00  0.00    +0.069 C 
ATOM     28  C   UNL     1      -3.833  -8.893   9.820  0.00  0.00    +0.017 C 
ATOM     29  C   UNL     1      -3.069  -6.655   9.015  0.00  0.00    +0.017 C 
ENDBRANCH  25  27
ENDBRANCH  17  19
ENDBRANCH   5  15
BRANCH   1  30
ATOM     30  C   UNL     1      -0.105  -4.267  -1.061  0.00  0.00    +0.099 C 
BRANCH  30  31
ATOM     31  C   UNL     1      -0.004  -2.763  -1.320  0.00  0.00    -0.006 C 
ATOM     32  C   UNL     1      -0.796  -2.007  -0.251  0.00  0.00    +0.008 C 
BRANCH  31  34
ATOM     33  C   UNL     1       1.577  -0.856  -1.647  0.00  0.00    +0.004 C 
ATOM     34  C   UNL     1       1.464  -2.334  -1.266  0.00  0.00    +0.000 C 
ENDBRANCH  31  34
ENDBRANCH  30  31
ENDBRANCH   1  30
TORSDOF 6
