REMARK  Name = ZINC17025779
REMARK  9 active torsions:
REMARK  status: ('A' for Active; 'I' for Inactive)
REMARK    1  A    between atoms: C_1  and  C_2
REMARK    2  A    between atoms: C_5  and  N_9
REMARK    3  A    between atoms: C_6  and  C_8
REMARK    4  A    between atoms: C_10  and  C_12
REMARK    5  A    between atoms: N_14  and  C_15
REMARK    6  A    between atoms: C_15  and  C_16
REMARK    7  A    between atoms: C_16  and  C_17
REMARK    8  A    between atoms: C_18  and  C_29
REMARK    9  A    between atoms: C_20  and  C_22
REMARK                            x       y       z     vdW  Elec       q    Type
REMARK                         _______ _______ _______ _____ _____    ______ ____
ROOT
ATOM      1  C   UNL     1       1.844   6.090   2.627  0.00  0.00    +0.299 C 
ATOM      2  O   UNL     1       1.766   5.484   3.676  0.00  0.00    -0.265 OA
ATOM      3  N   UNL     1       1.730   5.430   1.458  0.00  0.00    -0.307 N 
ATOM      4  H   UNL     1       1.793   5.914   0.620  0.00  0.00    +0.149 HD
ENDROOT
BRANCH   1   6
ATOM      5  N   UNL     1       2.181   8.226   3.803  0.00  0.00    -0.278 N 
ATOM      6  C   UNL     1       2.067   7.566   2.633  0.00  0.00    +0.303 C 
ATOM      7  O   UNL     1       2.145   8.172   1.584  0.00  0.00    -0.265 OA
ATOM      8  H   UNL     1       2.039   7.758   4.640  0.00  0.00    +0.155 HD
BRANCH   5  13
ATOM      9  C   UNL     1       3.487  13.745   3.828  0.00  0.00    +0.044 C 
ATOM     10  C   UNL     1       3.141  12.278   3.821  0.00  0.00    -0.050 A 
ATOM     11  C   UNL     1       3.511  11.487   2.749  0.00  0.00    +0.005 A 
ATOM     12  C   UNL     1       3.194  10.143   2.740  0.00  0.00    +0.024 A 
ATOM     13  C   UNL     1       2.503   9.586   3.809  0.00  0.00    +0.037 A 
ATOM     14  C   UNL     1       2.129  10.385   4.882  0.00  0.00    -0.029 A 
ATOM     15  C   UNL     1       2.453  11.728   4.887  0.00  0.00    +0.008 A 
ATOM     16  C   UNL     1       1.373   9.787   6.041  0.00  0.00    +0.045 C 
ENDBRANCH   5  13
ENDBRANCH   1   6
BRANCH   3  17
ATOM     17  C   UNL     1       1.512   3.981   1.452  0.00  0.00    +0.110 C 
BRANCH  17  18
ATOM     18  C   UNL     1       1.420   3.485   0.008  0.00  0.00    +0.063 C 
BRANCH  18  19
ATOM     19  C   UNL     1       1.195   1.994   0.003  0.00  0.00    +0.014 A 
ATOM     20  C   UNL     1       0.032   1.292   0.012  0.00  0.00    +0.049 A 
ATOM     21  N   UNL     1       0.060  -0.020   0.005  0.00  0.00    -0.244 NA
ATOM     22  C   UNL     1       1.207  -0.684  -0.012  0.00  0.00    +0.109 A 
ATOM     23  S   UNL     1       2.386   0.660  -0.018  0.00  0.00    -0.072 S 
ATOM     24  C   UNL     1      -1.289   2.018   0.025  0.00  0.00    +0.066 C 
BRANCH  22  25
ATOM     25  C   UNL     1       1.447  -2.143  -0.023  0.00  0.00    +0.007 A 
ATOM     26  C   UNL     1       2.752  -2.638  -0.047  0.00  0.00    +0.012 A 
ATOM     27  C   UNL     1       2.970  -4.000  -0.053  0.00  0.00    +0.020 A 
ATOM     28  C   UNL     1       1.897  -4.876  -0.045  0.00  0.00    +0.041 A 
ATOM     29  C   UNL     1       0.600  -4.390  -0.027  0.00  0.00    +0.020 A 
ATOM     30  C   UNL     1       0.370  -3.030  -0.016  0.00  0.00    +0.012 A 
ATOM     31 CL   UNL     1       2.179  -6.588  -0.059  0.00  0.00    -0.084 Cl
ENDBRANCH  22  25
ENDBRANCH  18  19
ENDBRANCH  17  18
ENDBRANCH   3  17
TORSDOF 6
