REMARK  Name = ZINC04730175
REMARK  10 active torsions:
REMARK  status: ('A' for Active; 'I' for Inactive)
REMARK    1  A    between atoms: C_1  and  C_2
REMARK    2  A    between atoms: C_2  and  O_3
REMARK    3  A    between atoms: O_3  and  C_4
REMARK    4  A    between atoms: C_8  and  C_11
REMARK    5  A    between atoms: C_9  and  O_10
REMARK    6  A    between atoms: C_14  and  C_25
REMARK    7  A    between atoms: C_16  and  C_18
REMARK    8  A    between atoms: C_23  and  C_24
REMARK    9  A    between atoms: C_29  and  O_31
REMARK   10  A    between atoms: O_31  and  C_32
REMARK                            x       y       z     vdW  Elec       q    Type
REMARK                         _______ _______ _______ _____ _____    ______ ____
ROOT
ATOM      1  C   UNL     1      -1.539   7.910   0.172  0.00  0.00    -0.028 C 
ATOM      2  C   UNL     1      -1.833   6.455   0.544  0.00  0.00    +0.044 C 
ATOM      3  C   UNL     1      -0.567   5.649   0.459  0.00  0.00    +0.040 C 
ATOM      4  N   UNL     1       0.597   6.178   0.401  0.00  0.00    -0.299 NA
ATOM      5  C   UNL     1       0.843   7.615   0.406  0.00  0.00    +0.081 C 
ATOM      6  N   UNL     1      -0.333   8.344   0.904  0.00  0.00    +0.401 N 
ATOM      7  H   UNL     1      -0.455   8.152   1.905  0.00  0.00    -0.081 HD
ATOM      8  H   UNL     1      -0.193   9.352   0.763  0.00  0.00    -0.081 HD
ENDROOT
BRANCH   5   9
ATOM      9  C   UNL     1       2.021   7.913   1.298  0.00  0.00    -0.038 A 
ATOM     10  C   UNL     1       2.354   7.042   2.318  0.00  0.00    +0.004 A 
ATOM     11  C   UNL     1       3.434   7.316   3.136  0.00  0.00    +0.000 A 
ATOM     12  C   UNL     1       4.182   8.461   2.933  0.00  0.00    +0.000 A 
ATOM     13  C   UNL     1       3.850   9.331   1.912  0.00  0.00    +0.003 A 
ATOM     14  C   UNL     1       2.772   9.055   1.092  0.00  0.00    -0.047 A 
ATOM     15  C   UNL     1       2.413  10.002  -0.025  0.00  0.00    +0.044 C 
ENDBRANCH   5   9
BRANCH   1  20
ATOM     16  C   UNL     1      -4.894   9.663   0.099  0.00  0.00    +0.162 A 
ATOM     17  C   UNL     1      -4.848  10.385   1.280  0.00  0.00    +0.049 A 
ATOM     18  C   UNL     1      -3.735  10.305   2.097  0.00  0.00    +0.004 A 
ATOM     19  C   UNL     1      -2.669   9.501   1.740  0.00  0.00    +0.006 A 
ATOM     20  C   UNL     1      -2.706   8.782   0.560  0.00  0.00    -0.016 A 
ATOM     21  C   UNL     1      -3.818   8.858  -0.263  0.00  0.00    +0.160 A 
BRANCH  21  22
ATOM     22  O   UNL     1      -3.858   8.146  -1.422  0.00  0.00    -0.503 OA
ATOM     23  H   UNL     1      -4.234   7.261  -1.327  0.00  0.00    +0.292 HD
ENDBRANCH  21  22
BRANCH  16  24
ATOM     24  O   UNL     1      -5.987   9.740  -0.706  0.00  0.00    -0.489 OA
BRANCH  24  26
ATOM     25  C   UNL     1      -8.188  10.545  -1.296  0.00  0.00    +0.048 C 
ATOM     26  C   UNL     1      -7.054  10.586  -0.271  0.00  0.00    +0.226 C 
ENDBRANCH  24  26
ENDBRANCH  16  24
ENDBRANCH   1  20
BRANCH   3  27
ATOM     27  C   UNL     1      -0.671   4.176   0.434  0.00  0.00    -0.001 A 
ATOM     28  C   UNL     1      -1.910   3.559   0.622  0.00  0.00    +0.010 A 
ATOM     29  C   UNL     1      -2.005   2.183   0.592  0.00  0.00    +0.004 A 
ATOM     30  C   UNL     1      -0.875   1.411   0.387  0.00  0.00    +0.045 A 
ATOM     31  C   UNL     1       0.360   2.016   0.200  0.00  0.00    +0.121 A 
ATOM     32  C   UNL     1       0.466   3.397   0.222  0.00  0.00    +0.055 A 
BRANCH  31  33
ATOM     33  O   UNL     1       1.466   1.253  -0.006  0.00  0.00    -0.495 OA
ATOM     34  C   UNL     1       1.283  -0.164  -0.016  0.00  0.00    +0.277 C 
ENDBRANCH  31  33
ENDBRANCH   3  27
TORSDOF 7
