REMARK  Name = ZINC35442266
REMARK  8 active torsions:
REMARK  status: ('A' for Active; 'I' for Inactive)
REMARK    1  A    between atoms: C_6  and  C_7
REMARK    2  A    between atoms: C_7  and  N_8
REMARK    3  A    between atoms: N_8  and  C_9
REMARK    4  A    between atoms: C_18  and  C_22
REMARK    5  A    between atoms: C_22  and  C_23
REMARK    6  A    between atoms: C_23  and  C_24
REMARK    7  A    between atoms: N_26  and  C_27
REMARK    8  A    between atoms: C_27  and  C_28
REMARK                            x       y       z     vdW  Elec       q    Type
REMARK                         _______ _______ _______ _____ _____    ______ ____
ROOT
ATOM      1  C   UNL     1      -2.943  -1.522  -1.525  0.00  0.00    +0.036 C 
ATOM      2  C   UNL     1      -4.202  -0.609  -1.471  0.00  0.00    +0.010 C 
ATOM      3  C   UNL     1      -5.180  -1.373  -2.375  0.00  0.00    +0.021 C 
ATOM      4  C   UNL     1      -6.281  -0.554  -2.963  0.00  0.00    +0.200 C 
ATOM      5  O   UNL     1      -6.772   0.360  -2.336  0.00  0.00    -0.278 OA
ATOM      6  N   UNL     1      -6.721  -0.848  -4.204  0.00  0.00    -0.318 N 
ATOM      7  C   UNL     1      -6.114  -1.843  -5.078  0.00  0.00    +0.089 C 
ATOM      8  C   UNL     1      -5.060  -2.688  -4.347  0.00  0.00    -0.050 C 
ATOM      9  N   UNL     1      -4.292  -1.810  -3.487  0.00  0.00    +0.391 N 
ATOM     10  C   UNL     1      -3.097  -2.341  -2.833  0.00  0.00    -0.059 C 
ATOM     11  H   UNL     1      -7.493  -0.363  -4.536  0.00  0.00    +0.149 HD
ATOM     12  H   UNL     1      -4.023  -1.001  -4.025  0.00  0.00    -0.080 HD
ENDROOT
BRANCH   1  13
ATOM     13  N   UNL     1      -1.722  -0.706  -1.575  0.00  0.00    -0.311 NA
ATOM     14  H   UNL     1      -1.868   0.129  -2.122  0.00  0.00    +0.122 HD
BRANCH  13  15
ATOM     15  C   UNL     1      -1.256  -0.374  -0.222  0.00  0.00    +0.116 C 
BRANCH  15  21
ATOM     16  C   UNL     1      -0.098   1.840  -0.369  0.00  0.00    +0.008 A 
ATOM     17  C   UNL     1       1.049   2.607  -0.452  0.00  0.00    +0.038 A 
ATOM     18  C   UNL     1       2.290   1.995  -0.480  0.00  0.00    +0.123 A 
ATOM     19  C   UNL     1       2.382   0.615  -0.424  0.00  0.00    +0.038 A 
ATOM     20  C   UNL     1       1.234  -0.151  -0.341  0.00  0.00    +0.008 A 
ATOM     21  C   UNL     1      -0.005   0.462  -0.313  0.00  0.00    -0.033 A 
ATOM     22  F   UNL     1       3.412   2.744  -0.562  0.00  0.00    -0.205 F 
ENDBRANCH  15  21
ENDBRANCH  13  15
ENDBRANCH   1  13
BRANCH   8  23
ATOM     23  C   UNL     1      -4.134  -3.357  -5.365  0.00  0.00    -0.005 C 
BRANCH  23  24
ATOM     24  C   UNL     1      -4.932  -4.364  -6.196  0.00  0.00    +0.094 C 
BRANCH  24  25
ATOM     25  C   UNL     1      -3.997  -5.111  -7.112  0.00  0.00    +0.213 C 
ATOM     26  O   UNL     1      -2.810  -4.863  -7.101  0.00  0.00    -0.276 OA
ATOM     27  N   UNL     1      -4.481  -6.055  -7.944  0.00  0.00    -0.311 N 
ATOM     28  H   UNL     1      -5.430  -6.253  -7.953  0.00  0.00    +0.149 HD
BRANCH  27  29
ATOM     29  C   UNL     1      -3.572  -6.782  -8.835  0.00  0.00    +0.139 C 
BRANCH  29  30
ATOM     30  C   UNL     1      -4.358  -7.773  -9.654  0.00  0.00    -0.030 A 
ATOM     31  C   UNL     1      -4.558  -9.056  -9.180  0.00  0.00    +0.008 A 
ATOM     32  C   UNL     1      -5.279  -9.966  -9.931  0.00  0.00    +0.038 A 
ATOM     33  C   UNL     1      -5.801  -9.591 -11.157  0.00  0.00    +0.123 A 
ATOM     34  C   UNL     1      -5.600  -8.306 -11.630  0.00  0.00    +0.038 A 
ATOM     35  C   UNL     1      -4.884  -7.396 -10.876  0.00  0.00    +0.008 A 
ATOM     36  F   UNL     1      -6.505 -10.480 -11.892  0.00  0.00    -0.205 F 
ENDBRANCH  29  30
ENDBRANCH  27  29
ENDBRANCH  24  25
ENDBRANCH  23  24
ENDBRANCH   8  23
TORSDOF 8
