REMARK  Name = ZINC25389340
REMARK  2 active torsions:
REMARK  status: ('A' for Active; 'I' for Inactive)
REMARK    1  A    between atoms: C_11  and  C_24
REMARK    2  A    between atoms: C_15  and  C_17
REMARK                            x       y       z     vdW  Elec       q    Type
REMARK                         _______ _______ _______ _____ _____    ______ ____
ROOT
ATOM      1  C   UNL     1       5.884   2.771   0.166  0.00  0.00    +0.001 A 
ATOM      2  C   UNL     1       5.450   4.028  -0.223  0.00  0.00    +0.002 A 
ATOM      3  C   UNL     1       4.112   4.318  -0.421  0.00  0.00    +0.026 A 
ATOM      4  C   UNL     1       3.203   3.283  -0.210  0.00  0.00    +0.047 A 
ATOM      5  C   UNL     1       3.653   1.997   0.188  0.00  0.00    +0.004 A 
ATOM      6  C   UNL     1       5.012   1.732   0.381  0.00  0.00    +0.010 A 
ATOM      7  C   UNL     1       2.465   1.182   0.312  0.00  0.00    -0.009 A 
ATOM      8  C   UNL     1       1.408   1.966  -0.001  0.00  0.00    +0.039 A 
ATOM      9  N   UNL     1       1.842   3.225  -0.313  0.00  0.00    -0.356 N 
ATOM     10  H   UNL     1       1.275   4.119  -0.611  0.00  0.00    +0.166 HD
ATOM     11  C   UNL     1      -0.018   1.468   0.010  0.00  0.00    +0.116 C 
ATOM     12  N   UNL     1       0.002  -0.004   0.002  0.00  0.00    -0.306 NA
ATOM     13  C   UNL     1       0.868  -0.534   1.065  0.00  0.00    +0.094 C 
ATOM     14  C   UNL     1       2.337  -0.268   0.708  0.00  0.00    +0.066 C 
ATOM     15  H   UNL     1      -1.018  -0.386   0.160  0.00  0.00    +0.123 HD
ENDROOT
BRANCH  14  16
ATOM     16  C   UNL     1       3.211  -0.550   1.903  0.00  0.00    -0.020 A 
ATOM     17  C   UNL     1       3.028   0.158   3.076  0.00  0.00    +0.006 A 
ATOM     18  C   UNL     1       3.826  -0.104   4.173  0.00  0.00    +0.000 A 
ATOM     19  C   UNL     1       4.815  -1.067   4.095  0.00  0.00    +0.001 A 
ATOM     20  C   UNL     1       5.002  -1.772   2.922  0.00  0.00    +0.020 A 
ATOM     21  C   UNL     1       4.200  -1.514   1.824  0.00  0.00    +0.045 A 
ATOM     22 CL   UNL     1       4.434  -2.399   0.349  0.00  0.00    -0.083 Cl
ENDBRANCH  14  16
BRANCH  11  23
ATOM     23  C   UNL     1      -0.727   1.965   1.271  0.00  0.00    +0.133 C 
ATOM     24 CL   UNL     1      -2.419   1.344   1.295  0.00  0.00    -0.123 Cl
ENDBRANCH  11  23
TORSDOF 2
