REMARK  Name = ZINC44464812
REMARK  12 active torsions:
REMARK  status: ('A' for Active; 'I' for Inactive)
REMARK    1  A    between atoms: C_1  and  N_2
REMARK    2  A    between atoms: C_3  and  S_19
REMARK    3  A    between atoms: C_4  and  C_13
REMARK    4  A    between atoms: C_5  and  C_7
REMARK    5  A    between atoms: C_13  and  CA_14
REMARK    6  A    between atoms: CA_14  and  C_16
REMARK    7  A    between atoms: CA_14  and  N_18
REMARK    8  A    between atoms: C_16  and  O_17
REMARK    9  A    between atoms: S_19  and  C_20
REMARK   10  A    between atoms: C_25  and  C_26
REMARK   11  A    between atoms: C_26  and  O_28
REMARK   12  A    between atoms: O_28  and  C_29
REMARK                            x       y       z     vdW  Elec       q    Type
REMARK                         _______ _______ _______ _____ _____    ______ ____
ROOT
ATOM      1  C   UNL     1      -0.642   1.375  -0.027  0.00  0.00    +0.173 C 
ATOM      2  N   UNL     1      -0.267  -0.041  -0.014  0.00  0.00    -0.260 N 
ATOM      3  C   UNL     1      -0.028  -0.814  -1.106  0.00  0.00    +0.103 A 
ATOM      4  C   UNL     1       0.289  -2.062  -0.668  0.00  0.00    +0.011 A 
ATOM      5  C   UNL     1       0.240  -2.049   0.738  0.00  0.00    +0.097 A 
ATOM      6  N   UNL     1      -0.087  -0.835   1.126  0.00  0.00    -0.170 NA
ENDROOT
BRANCH   5   7
ATOM      7  C   UNL     1       0.518  -3.203   1.630  0.00  0.00    +0.002 A 
ATOM      8  C   UNL     1       1.285  -3.029   2.779  0.00  0.00    +0.010 A 
ATOM      9  C   UNL     1       1.540  -4.105   3.605  0.00  0.00    +0.001 A 
ATOM     10  C   UNL     1       1.034  -5.355   3.293  0.00  0.00    +0.000 A 
ATOM     11  C   UNL     1       0.272  -5.533   2.152  0.00  0.00    +0.001 A 
ATOM     12  C   UNL     1       0.007  -4.462   1.323  0.00  0.00    +0.010 A 
ENDBRANCH   5   7
BRANCH   4  13
ATOM     13  C   UNL     1       0.630  -3.248  -1.534  0.00  0.00    +0.026 C 
BRANCH  13  14
ATOM     14  CA  UNL     1       2.150  -3.361  -1.667  0.00  0.00    -0.045 C 
BRANCH  14  15
ATOM     15  N   UNL     1       2.667  -2.190  -2.390  0.00  0.00    +0.382 N 
ATOM     16  H1  UNL     1       2.435  -1.351  -1.879  0.00  0.00    -0.090 HD
ATOM     17  H2  UNL     1       3.669  -2.265  -2.478  0.00  0.00    -0.090 HD
ATOM     18  H3  UNL     1       2.250  -2.151  -3.308  0.00  0.00    -0.090 HD
ENDBRANCH  14  15
BRANCH  14  19
ATOM     19  C   UNL     1       2.501  -4.633  -2.441  0.00  0.00    +0.140 C 
BRANCH  19  20
ATOM     20  O   UNL     1       3.920  -4.800  -2.466  0.00  0.00    -0.397 OA
ATOM     21  H   UNL     1       4.215  -5.588  -2.941  0.00  0.00    +0.209 HD
ENDBRANCH  19  20
ENDBRANCH  14  19
ENDBRANCH  13  14
ENDBRANCH   4  13
BRANCH   3  22
ATOM     22  S   UNL     1      -0.112  -0.293  -2.788  0.00  0.00    -0.069 S 
BRANCH  22  23
ATOM     23  C   UNL     1       1.082   0.998  -2.894  0.00  0.00    +0.028 A 
ATOM     24  C   UNL     1       1.822   1.360  -1.774  0.00  0.00    +0.016 A 
ATOM     25  C   UNL     1       2.756   2.371  -1.860  0.00  0.00    +0.001 A 
ATOM     26  C   UNL     1       2.966   3.034  -3.060  0.00  0.00    +0.001 A 
ATOM     27  C   UNL     1       2.243   2.690  -4.181  0.00  0.00    +0.016 A 
ATOM     28  C   UNL     1       1.296   1.664  -4.112  0.00  0.00    +0.073 A 
BRANCH  28  29
ATOM     29  C   UNL     1       0.523   1.288  -5.308  0.00  0.00    +0.340 C 
ATOM     30  O   UNL     1      -0.302   0.399  -5.243  0.00  0.00    -0.245 OA
BRANCH  29  31
ATOM     31  O   UNL     1       0.732   1.930  -6.475  0.00  0.00    -0.464 OA
ATOM     32  C   UNL     1      -0.053   1.513  -7.594  0.00  0.00    +0.280 C 
ENDBRANCH  29  31
ENDBRANCH  28  29
ENDBRANCH  22  23
ENDBRANCH   3  22
TORSDOF 10
