REMARK  Name = ZINC59565686
REMARK  4 active torsions:
REMARK  status: ('A' for Active; 'I' for Inactive)
REMARK    1  A    between atoms: C_6  and  C_7
REMARK    2  A    between atoms: C_7  and  O_8
REMARK    3  A    between atoms: O_8  and  C_9
REMARK    4  A    between atoms: C_12  and  C_16
REMARK                            x       y       z     vdW  Elec       q    Type
REMARK                         _______ _______ _______ _____ _____    ______ ____
ROOT
ATOM      1  C   UNL     1      -2.729  -2.008  -1.361  0.00  0.00    +0.135 A 
ATOM      2  C   UNL     1      -3.276  -2.847  -0.395  0.00  0.00    +0.047 A 
ATOM      3  C   UNL     1      -4.488  -3.439  -0.606  0.00  0.00    +0.011 A 
ATOM      4  C   UNL     1      -5.183  -3.200  -1.802  0.00  0.00    -0.023 A 
ATOM      5  C   UNL     1      -4.627  -2.353  -2.773  0.00  0.00    +0.027 A 
ATOM      6  C   UNL     1      -3.416  -1.762  -2.547  0.00  0.00    +0.060 A 
ATOM      7 BR   UNL     1      -2.668  -0.615  -3.851  0.00  0.00    -0.046 Br
ENDROOT
BRANCH   4   8
ATOM      8  C   UNL     1      -6.481  -3.831  -2.035  0.00  0.00    +0.026 C 
ATOM      9  C   UNL     1      -7.445  -3.819  -1.040  0.00  0.00    +0.101 C 
ATOM     10  C   UNL     1      -7.299  -2.984   0.163  0.00  0.00    +0.274 C 
ATOM     11  O   UNL     1      -6.214  -2.199   0.331  0.00  0.00    -0.268 OA
ATOM     12  N   UNL     1      -8.256  -3.019   1.073  0.00  0.00    -0.154 NA
ATOM     13  C   UNL     1      -9.337  -3.782   0.934  0.00  0.00    +0.164 C 
ATOM     14  S   UNL     1     -10.514  -3.750   2.177  0.00  0.00    -0.016 S 
ATOM     15  N   UNL     1      -9.556  -4.574  -0.125  0.00  0.00    -0.262 N 
ATOM     16  C   UNL     1      -8.669  -4.640  -1.142  0.00  0.00    +0.255 C 
ATOM     17  O   UNL     1      -8.869  -5.354  -2.106  0.00  0.00    -0.270 OA
ATOM     18  H   UNL     1     -10.366  -5.105  -0.165  0.00  0.00    +0.157 HD
ENDBRANCH   4   8
BRANCH   1  19
ATOM     19  O   UNL     1      -1.525  -1.423  -1.145  0.00  0.00    -0.486 OA
BRANCH  19  20
ATOM     20  C   UNL     1      -0.873  -1.717   0.092  0.00  0.00    +0.264 C 
BRANCH  20  26
ATOM     21  C   UNL     1       0.497   0.288   0.694  0.00  0.00    +0.011 A 
ATOM     22  C   UNL     1       1.701   0.965   0.754  0.00  0.00    +0.050 A 
ATOM     23  C   UNL     1       2.855   0.370   0.273  0.00  0.00    +0.166 A 
ATOM     24  C   UNL     1       2.800  -0.911  -0.271  0.00  0.00    +0.167 A 
ATOM     25  C   UNL     1       1.590  -1.584  -0.327  0.00  0.00    +0.056 A 
ATOM     26  C   UNL     1       0.442  -0.984   0.155  0.00  0.00    -0.007 A 
ATOM     27  O   UNL     1       4.055  -1.271  -0.670  0.00  0.00    -0.453 OA
ATOM     28  C   UNL     1       4.802  -0.042  -0.740  0.00  0.00    +0.466 C 
ATOM     29  O   UNL     1       4.145   0.813   0.214  0.00  0.00    -0.453 OA
ENDBRANCH  20  26
ENDBRANCH  19  20
ENDBRANCH   1  19
TORSDOF 4
