REMARK  Name = ZINC09419112
REMARK  0 active torsions:
REMARK  status: ('A' for Active; 'I' for Inactive)
REMARK                            x       y       z     vdW  Elec       q    Type
REMARK                         _______ _______ _______ _____ _____    ______ ____
ROOT
ATOM      1  C   UNL     1       2.349   1.436  -0.005  0.00  0.00    +0.005 A 
ATOM      2  C   UNL     1       1.106   2.056   0.005  0.00  0.00    +0.018 A 
ATOM      3  C   UNL     1      -0.036   1.281   0.006  0.00  0.00    +0.084 A 
ATOM      4  N   UNL     1       0.040  -0.036  -0.002  0.00  0.00    -0.350 N 
ATOM      5  C   UNL     1       1.206  -0.665  -0.011  0.00  0.00    +0.099 A 
ATOM      6  C   UNL     1       2.397   0.054  -0.014  0.00  0.00    +0.042 A 
ATOM      7  N   UNL     1       1.239  -2.054  -0.020  0.00  0.00    -0.314 N 
ATOM      8  C   UNL     1       2.515  -2.771  -0.162  0.00  0.00    +0.125 C 
ATOM      9  C   UNL     1       2.669  -3.737   1.019  0.00  0.00    +0.125 C 
ATOM     10  N   UNL     1       1.430  -4.516   1.153  0.00  0.00    -0.310 N 
ATOM     11  C   UNL     1       0.154  -3.799   1.296  0.00  0.00    +0.125 C 
ATOM     12  C   UNL     1       0.001  -2.833   0.120  0.00  0.00    +0.125 C 
ATOM     13  C   UNL     1       1.463  -5.899   1.145  0.00  0.00    +0.154 A 
ATOM     14  C   UNL     1       2.688  -6.588   1.135  0.00  0.00    +0.148 A 
ATOM     15  C   UNL     1       2.659  -7.993   1.127  0.00  0.00    +0.164 A 
ATOM     16  N   UNL     1       3.970  -8.398   1.118  0.00  0.00    -0.329 N 
ATOM     17  H   UNL     1       4.287  -9.315   1.111  0.00  0.00    +0.168 HD
ATOM     18  C   UNL     1       4.744  -7.277   1.121  0.00  0.00    +0.198 A 
ATOM     19  N   UNL     1       3.991  -6.216   1.131  0.00  0.00    -0.231 NA
ATOM     20  N   UNL     1       1.484  -8.615   1.129  0.00  0.00    -0.198 NA
ATOM     21  C   UNL     1       0.360  -7.928   1.138  0.00  0.00    +0.226 A 
ATOM     22  N   UNL     1       0.338  -6.606   1.152  0.00  0.00    -0.200 NA
ATOM     23 CL   UNL     1      -1.147  -8.790   1.139  0.00  0.00    -0.041 Cl
ATOM     24  H   UNL     1      -0.778  -0.558  -0.001  0.00  0.00    +0.166 HD
ENDROOT
TORSDOF 0
