REMARK  Name = ZINC12870782
REMARK  14 active torsions:
REMARK  status: ('A' for Active; 'I' for Inactive)
REMARK    1  A    between atoms: C_1  and  C_2
REMARK    2  A    between atoms: C_2  and  C_3
REMARK    3  A    between atoms: C_2  and  C_4
REMARK    4  A    between atoms: C_4  and  C_5
REMARK    5  A    between atoms: C_5  and  C_7
REMARK    6  A    between atoms: C_5  and  N_76
REMARK    7  A    between atoms: C_12  and  C_15
REMARK    8  A    between atoms: N_17  and  C_18
REMARK    9  A    between atoms: C_18  and  C_20
REMARK   10  A    between atoms: C_18  and  C_27
REMARK   11  A    between atoms: C_20  and  C_21
REMARK   12  A    between atoms: N_29  and  C_30
REMARK   13  A    between atoms: C_30  and  C_32
REMARK   14  A    between atoms: C_30  and  C_33
REMARK                            x       y       z     vdW  Elec       q    Type
REMARK                         _______ _______ _______ _____ _____    ______ ____
ROOT
ATOM      1  C   UNL     1      -5.846  -1.476  -2.862  0.00  0.00    +0.217 C 
ATOM      2  O   UNL     1      -6.614  -1.331  -1.935  0.00  0.00    -0.275 OA
ATOM      3  N   UNL     1      -4.536  -1.690  -2.625  0.00  0.00    -0.303 N 
ATOM      4  H   UNL     1      -3.921  -1.806  -3.366  0.00  0.00    +0.149 HD
ENDROOT
BRANCH   1  10
ATOM      5  C   UNL     1      -8.236   0.829  -7.159  0.00  0.00    +0.201 C 
ATOM      6  O   UNL     1      -9.447   0.897  -7.149  0.00  0.00    -0.277 OA
ATOM      7  N   UNL     1      -7.611  -0.149  -6.474  0.00  0.00    -0.303 N 
ATOM      8  C   UNL     1      -8.383  -1.139  -5.710  0.00  0.00    +0.108 C 
ATOM      9  C   UNL     1      -7.864  -1.165  -4.269  0.00  0.00    +0.032 C 
ATOM     10  C   UNL     1      -6.354  -1.417  -4.279  0.00  0.00    +0.078 C 
ATOM     11  C   UNL     1      -5.651  -0.281  -5.027  0.00  0.00    +0.032 C 
ATOM     12  C   UNL     1      -6.145  -0.246  -6.476  0.00  0.00    +0.108 C 
BRANCH   5  13
ATOM     13  C   UNL     1      -7.430   1.837  -7.938  0.00  0.00    +0.013 C 
BRANCH  13  16
ATOM     14  H   UNL     1      -9.008   3.027  -8.514  0.00  0.00    -0.089 HD
ATOM     15  H   UNL     1      -7.738   3.028  -9.588  0.00  0.00    -0.089 HD
ATOM     16  N   UNL     1      -8.296   2.451  -8.960  0.00  0.00    +0.386 N 
ATOM     17  H   UNL     1      -8.755   1.711  -9.503  0.00  0.00    -0.089 HD
ENDBRANCH  13  16
BRANCH  13  18
ATOM     18  C   UNL     1      -6.889   2.903  -6.984  0.00  0.00    -0.004 C 
BRANCH  18  20
ATOM     19  C   UNL     1      -5.585   5.029  -6.840  0.00  0.00    +0.007 C 
ATOM     20  C   UNL     1      -6.007   3.882  -7.761  0.00  0.00    -0.018 C 
ATOM     21  C   UNL     1      -4.762   3.152  -8.269  0.00  0.00    +0.007 C 
ENDBRANCH  18  20
ENDBRANCH  13  18
ENDBRANCH   5  13
ENDBRANCH   1  10
BRANCH   3  22
ATOM     22  C   UNL     1      -4.042  -1.748  -1.247  0.00  0.00    +0.163 C 
BRANCH  22  23
ATOM     23  C   UNL     1      -2.580  -1.383  -1.222  0.00  0.00    +0.234 C 
ATOM     24  O   UNL     1      -2.007  -1.102  -2.254  0.00  0.00    -0.274 OA
ATOM     25  N   UNL     1      -1.908  -1.368  -0.054  0.00  0.00    -0.307 N 
ATOM     26  H   UNL     1      -2.366  -1.593   0.771  0.00  0.00    +0.149 HD
BRANCH  25  27
ATOM     27  C   UNL     1      -0.487  -1.013  -0.030  0.00  0.00    +0.100 C 
ATOM     28  C   UNL     1      -0.343   0.508   0.037  0.00  0.00    +0.033 C 
BRANCH  27  29
ATOM     29  C   UNL     1       0.165  -1.633   1.179  0.00  0.00    -0.027 A 
ATOM     30  C   UNL     1      -0.501  -1.653   2.390  0.00  0.00    +0.005 A 
ATOM     31  C   UNL     1       0.096  -2.225   3.498  0.00  0.00    +0.000 A 
ATOM     32  C   UNL     1       1.362  -2.770   3.397  0.00  0.00    +0.000 A 
ATOM     33  C   UNL     1       2.030  -2.746   2.187  0.00  0.00    +0.000 A 
ATOM     34  C   UNL     1       1.432  -2.178   1.078  0.00  0.00    +0.005 A 
ENDBRANCH  27  29
ENDBRANCH  25  27
ENDBRANCH  22  23
BRANCH  22  35
ATOM     35  C   UNL     1      -4.223  -3.165  -0.699  0.00  0.00    +0.067 C 
BRANCH  35  36
ATOM     36  C   UNL     1      -5.692  -3.485  -0.609  0.00  0.00    -0.045 A 
ATOM     37  C   UNL     1      -6.391  -3.203   0.550  0.00  0.00    +0.004 A 
ATOM     38  C   UNL     1      -7.741  -3.492   0.631  0.00  0.00    +0.000 A 
ATOM     39  C   UNL     1      -8.389  -4.073  -0.443  0.00  0.00    +0.000 A 
ATOM     40  C   UNL     1      -7.689  -4.360  -1.600  0.00  0.00    +0.000 A 
ATOM     41  C   UNL     1      -6.341  -4.066  -1.683  0.00  0.00    +0.004 A 
ENDBRANCH  35  36
ENDBRANCH  22  35
ENDBRANCH   3  22
TORSDOF 11
