REMARK  Name = ZINC39704655
REMARK  5 active torsions:
REMARK  status: ('A' for Active; 'I' for Inactive)
REMARK    1  A    between atoms: C_6  and  C_7
REMARK    2  A    between atoms: C_9  and  S_13
REMARK    3  A    between atoms: S_13  and  C_14
REMARK    4  A    between atoms: C_14  and  C_15
REMARK    5  A    between atoms: C_19  and  C_26
REMARK                            x       y       z     vdW  Elec       q    Type
REMARK                         _______ _______ _______ _____ _____    ______ ____
ROOT
ATOM      1  C   UNL     1      -3.057  -2.910   4.187  0.00  0.00    +0.120 A 
ATOM      2  N   UNL     1      -3.556  -4.108   4.163  0.00  0.00    -0.233 NA
ATOM      3  C   UNL     1      -3.848  -4.781   5.304  0.00  0.00    +0.079 A 
ATOM      4  C   UNL     1      -4.384  -6.070   5.276  0.00  0.00    +0.043 A 
ATOM      5  C   UNL     1      -4.667  -6.719   6.473  0.00  0.00    +0.065 A 
ATOM      6  C   UNL     1      -4.419  -6.087   7.699  0.00  0.00    +0.016 A 
ATOM      7  C   UNL     1      -3.896  -4.826   7.737  0.00  0.00    +0.016 A 
ATOM      8  C   UNL     1      -3.604  -4.159   6.548  0.00  0.00    +0.065 A 
ATOM      9  C   UNL     1      -3.038  -2.799   6.540  0.00  0.00    +0.259 A 
ATOM     10  O   UNL     1      -2.803  -2.206   7.577  0.00  0.00    -0.267 OA
ATOM     11  N   UNL     1      -2.784  -2.237   5.336  0.00  0.00    -0.310 N 
ATOM     12  H   UNL     1      -2.408  -1.344   5.292  0.00  0.00    +0.170 HD
ENDROOT
BRANCH   5  13
ATOM     13  C   UNL     1      -5.234  -8.084   6.452  0.00  0.00    +0.387 C 
ATOM     14  O   UNL     1      -5.453  -8.638   5.385  0.00  0.00    -0.241 OA
ATOM     15  O   UNL     1      -5.485  -8.658   7.502  0.00  0.00    -0.241 OA
ENDBRANCH   5  13
BRANCH   1  16
ATOM     16  C   UNL     1      -2.760  -2.232   2.874  0.00  0.00    +0.147 C 
BRANCH  16  17
ATOM     17  S   UNL     1      -3.213  -3.337   1.508  0.00  0.00    -0.104 S 
BRANCH  17  20
ATOM     18  C   UNL     1      -1.269  -0.765   0.010  0.00  0.00    +0.087 C 
ATOM     19  N   UNL     1      -1.367  -2.062   0.009  0.00  0.00    -0.245 NA
ATOM     20  C   UNL     1      -2.799  -2.386   0.020  0.00  0.00    +0.280 C 
ATOM     21  N   UNL     1      -3.509  -1.101   0.027  0.00  0.00    -0.253 NA
ATOM     22  C   UNL     1      -2.619  -0.168   0.027  0.00  0.00    +0.136 C 
BRANCH  18  28
ATOM     23  C   UNL     1      -0.017   1.391   0.010  0.00  0.00    +0.011 A 
ATOM     24  C   UNL     1       1.170   2.094   0.002  0.00  0.00    +0.016 A 
ATOM     25  C   UNL     1       2.378   1.418  -0.013  0.00  0.00    +0.018 A 
ATOM     26  C   UNL     1       2.403   0.034  -0.021  0.00  0.00    +0.016 A 
ATOM     27  C   UNL     1       1.223  -0.680  -0.013  0.00  0.00    +0.011 A 
ATOM     28  C   UNL     1       0.002  -0.004   0.002  0.00  0.00    +0.002 A 
ATOM     29 BR   UNL     1       4.001   2.389  -0.025  0.00  0.00    -0.050 Br
ENDBRANCH  18  28
ENDBRANCH  17  20
ENDBRANCH  16  17
ENDBRANCH   1  16
TORSDOF 5
