REMARK  Name = ZINC22716238
REMARK  11 active torsions:
REMARK  status: ('A' for Active; 'I' for Inactive)
REMARK    1  A    between atoms: C_1  and  C_2
REMARK    2  A    between atoms: C_5  and  C_9
REMARK    3  A    between atoms: C_7  and  C_8
REMARK    4  A    between atoms: C_12  and  C_32
REMARK    5  A    between atoms: C_17  and  C_19
REMARK    6  A    between atoms: N_23  and  C_24
REMARK    7  A    between atoms: C_24  and  C_25
REMARK    8  A    between atoms: C_25  and  C_26
REMARK    9  A    between atoms: C_26  and  N_27
REMARK   10  A    between atoms: N_27  and  C_28
REMARK   11  A    between atoms: N_27  and  C_29
REMARK                            x       y       z     vdW  Elec       q    Type
REMARK                         _______ _______ _______ _____ _____    ______ ____
ROOT
ATOM      1  C   UNL     1       0.059  -4.275  -0.021  0.00  0.00    +0.104 C 
ATOM      2  C   UNL     1       1.485  -4.770  -0.292  0.00  0.00    +0.063 C 
ATOM      3  C   UNL     1       1.525  -6.301  -0.234  0.00  0.00    +0.215 C 
ATOM      4  N   UNL     1       0.450  -6.837  -1.075  0.00  0.00    -0.238 N 
ATOM      5  C   UNL     1      -0.637  -6.110  -1.469  0.00  0.00    +0.119 A 
ATOM      6  C   UNL     1      -1.418  -6.902  -2.230  0.00  0.00    +0.076 A 
ATOM      7  C   UNL     1      -0.794  -8.167  -2.309  0.00  0.00    +0.132 A 
ATOM      8  N   UNL     1       0.327  -8.117  -1.613  0.00  0.00    -0.166 NA
ATOM      9  N   UNL     1      -0.827  -4.777  -1.090  0.00  0.00    -0.322 N 
ATOM     10  H   UNL     1      -1.498  -4.214  -1.507  0.00  0.00    +0.148 HD
ENDROOT
BRANCH   1  15
ATOM     11  C   UNL     1      -0.018   1.503   0.010  0.00  0.00    +0.044 C 
ATOM     12  C   UNL     1       0.002  -0.004   0.002  0.00  0.00    -0.048 A 
ATOM     13  C   UNL     1       0.006  -0.689  -1.199  0.00  0.00    +0.004 A 
ATOM     14  C   UNL     1       0.025  -2.071  -1.207  0.00  0.00    +0.006 A 
ATOM     15  C   UNL     1       0.040  -2.768  -0.013  0.00  0.00    -0.027 A 
ATOM     16  C   UNL     1       0.037  -2.084   1.188  0.00  0.00    +0.009 A 
ATOM     17  C   UNL     1       0.023  -0.702   1.195  0.00  0.00    -0.047 A 
ATOM     18  C   UNL     1       0.025   0.045   2.504  0.00  0.00    +0.044 C 
ENDBRANCH   1  15
BRANCH   7  19
ATOM     19  C   UNL     1      -1.306  -9.343  -3.046  0.00  0.00    +0.185 A 
ATOM     20  N   UNL     1      -2.414  -9.402  -3.746  0.00  0.00    -0.127 NA
ATOM     21  N   UNL     1      -2.552 -10.576  -4.251  0.00  0.00    -0.121 NA
ATOM     22  C   UNL     1      -1.539 -11.338  -3.905  0.00  0.00    +0.203 A 
ATOM     23  N   UNL     1      -0.708 -10.579  -3.131  0.00  0.00    -0.300 N 
ATOM     24  S   UNL     1      -1.294 -13.022  -4.360  0.00  0.00    -0.009 SA
BRANCH  23  25
ATOM     25  C   UNL     1       0.556 -10.994  -2.517  0.00  0.00    +0.124 C 
BRANCH  25  26
ATOM     26  C   UNL     1       0.283 -11.566  -1.124  0.00  0.00    +0.003 C 
BRANCH  26  27
ATOM     27  C   UNL     1       1.602 -12.000  -0.483  0.00  0.00    -0.078 C 
BRANCH  27  28
ATOM     28  N   UNL     1       1.340 -12.549   0.854  0.00  0.00    +0.376 N 
ATOM     29  C   UNL     1       2.589 -13.075   1.421  0.00  0.00    -0.097 C 
ATOM     30  C   UNL     1       0.816 -11.488   1.724  0.00  0.00    -0.097 C 
ATOM     31  H   UNL     1       0.662 -13.293   0.785  0.00  0.00    -0.083 HD
ENDBRANCH  27  28
ENDBRANCH  26  27
ENDBRANCH  25  26
ENDBRANCH  23  25
ENDBRANCH   7  19
BRANCH   3  32
ATOM     32  C   UNL     1       2.877  -6.798  -0.749  0.00  0.00    +0.412 C 
ATOM     33  F   UNL     1       3.901  -6.275   0.048  0.00  0.00    -0.168 F 
ATOM     34  F   UNL     1       2.912  -8.196  -0.696  0.00  0.00    -0.168 F 
ATOM     35  F   UNL     1       3.056  -6.378  -2.072  0.00  0.00    -0.168 F 
ENDBRANCH   3  32
TORSDOF 7
