REMARK  Name = ZINC00673203
REMARK  8 active torsions:
REMARK  status: ('A' for Active; 'I' for Inactive)
REMARK    1  A    between atoms: C_1  and  C_2
REMARK    2  A    between atoms: C_2  and  C_4
REMARK    3  A    between atoms: C_2  and  S_17
REMARK    4  A    between atoms: N_6  and  N_7
REMARK    5  A    between atoms: C_8  and  C_9
REMARK    6  A    between atoms: C_12  and  O_16
REMARK    7  A    between atoms: C_14  and  O_15
REMARK    8  A    between atoms: S_17  and  C_18
REMARK                            x       y       z     vdW  Elec       q    Type
REMARK                         _______ _______ _______ _____ _____    ______ ____
ROOT
ATOM      1  C   UNL     1      -1.193   2.055   0.019  0.00  0.00    +0.245 C 
ATOM      2  O   UNL     1      -2.236   1.434   0.020  0.00  0.00    -0.273 OA
ATOM      3  N   UNL     1      -0.017   1.397   0.010  0.00  0.00    -0.206 N 
ATOM      4  H   UNL     1       0.816   1.893   0.004  0.00  0.00    +0.177 HD
ENDROOT
BRANCH   1   6
ATOM      5  C   UNL     1      -0.963   4.067   1.449  0.00  0.00    +0.029 C 
ATOM      6  C   UNL     1      -1.214   3.562   0.027  0.00  0.00    +0.138 C 
BRANCH   6   7
ATOM      7  S   UNL     1      -2.828   4.146  -0.546  0.00  0.00    -0.075 S 
BRANCH   7   8
ATOM      8  C   UNL     1      -2.530   5.882  -0.581  0.00  0.00    +0.168 A 
ATOM      9  N   UNL     1      -3.441   6.828  -0.958  0.00  0.00    -0.333 N 
ATOM     10  H   UNL     1      -4.380   6.661  -1.258  0.00  0.00    +0.168 HD
ATOM     11  C   UNL     1      -2.822   8.062  -0.845  0.00  0.00    +0.067 A 
ATOM     12  C   UNL     1      -3.229   9.367  -1.079  0.00  0.00    +0.028 A 
ATOM     13  C   UNL     1      -2.349  10.409  -0.872  0.00  0.00    +0.002 A 
ATOM     14  C   UNL     1      -1.058  10.161  -0.430  0.00  0.00    +0.002 A 
ATOM     15  C   UNL     1      -0.636   8.872  -0.194  0.00  0.00    +0.030 A 
ATOM     16  C   UNL     1      -1.515   7.805  -0.398  0.00  0.00    +0.090 A 
ATOM     17  N   UNL     1      -1.399   6.459  -0.256  0.00  0.00    -0.222 NA
ENDBRANCH   7   8
ENDBRANCH   6   7
ENDBRANCH   1   6
BRANCH   3  18
ATOM     18  N   UNL     1       0.002  -0.004   0.002  0.00  0.00    -0.188 NA
ATOM     19  C   UNL     1       1.135  -0.638  -0.012  0.00  0.00    +0.142 C 
BRANCH  19  20
ATOM     20  C   UNL     1       1.155  -2.111  -0.020  0.00  0.00    +0.036 A 
ATOM     21  C   UNL     1       2.373  -2.796  -0.036  0.00  0.00    +0.016 A 
ATOM     22  C   UNL     1       2.387  -4.173  -0.043  0.00  0.00    +0.046 A 
ATOM     23  C   UNL     1       1.194  -4.885  -0.035  0.00  0.00    +0.120 A 
ATOM     24  C   UNL     1      -0.021  -4.215  -0.019  0.00  0.00    +0.091 A 
ATOM     25  C   UNL     1      -0.048  -2.831  -0.007  0.00  0.00    +0.129 A 
BRANCH  25  26
ATOM     26  O   UNL     1      -1.236  -2.173   0.014  0.00  0.00    -0.506 OA
ATOM     27  H   UNL     1      -1.593  -1.978  -0.863  0.00  0.00    +0.292 HD
ENDBRANCH  25  26
BRANCH  23  28
ATOM     28  O   UNL     1       1.216  -6.244  -0.042  0.00  0.00    -0.507 OA
ATOM     29  H   UNL     1       1.231  -6.641   0.839  0.00  0.00    +0.292 HD
ENDBRANCH  23  28
ENDBRANCH  19  20
ENDBRANCH   3  18
TORSDOF 7
