REMARK  Name = ZINC18200722
REMARK  7 active torsions:
REMARK  status: ('A' for Active; 'I' for Inactive)
REMARK    1  A    between atoms: C_1  and  O_2
REMARK    2  A    between atoms: O_2  and  C_3
REMARK    3  A    between atoms: C_6  and  C_11
REMARK    4  A    between atoms: C_8  and  O_9
REMARK    5  A    between atoms: O_9  and  C_10
REMARK    6  A    between atoms: C_16  and  C_25
REMARK    7  A    between atoms: C_28  and  C_31
REMARK                            x       y       z     vdW  Elec       q    Type
REMARK                         _______ _______ _______ _____ _____    ______ ____
ROOT
ATOM      1  C   UNL     1      -0.018   1.503   0.010  0.00  0.00    +0.032 C 
ATOM      2  C   UNL     1      -0.746   2.002   1.261  0.00  0.00    +0.060 C 
ATOM      3  C   UNL     1      -0.800   3.511   1.247  0.00  0.00    +0.020 C 
ATOM      4  C   UNL     1      -0.865   4.192   0.083  0.00  0.00    +0.041 C 
ATOM      5  C   UNL     1      -0.938   5.702   0.038  0.00  0.00    +0.175 C 
ATOM      6  N   UNL     1      -0.588   6.257   1.340  0.00  0.00    -0.219 N 
ATOM      7  C   UNL     1      -0.519   5.516   2.472  0.00  0.00    +0.220 A 
ATOM      8  N   UNL     1      -0.193   6.308   3.457  0.00  0.00    -0.180 NA
ATOM      9  C   UNL     1      -0.040   7.557   2.995  0.00  0.00    +0.233 A 
ATOM     10  N   UNL     1      -0.272   7.566   1.700  0.00  0.00    -0.132 NA
ATOM     11  N   UNL     1       0.311   8.668   3.763  0.00  0.00    -0.326 N 
ATOM     12  N   UNL     1      -0.773   4.154   2.462  0.00  0.00    -0.287 N 
ATOM     13  C   UNL     1      -0.864   3.514  -1.150  0.00  0.00    +0.164 C 
ATOM     14  O   UNL     1      -0.939   4.155  -2.180  0.00  0.00    -0.292 OA
ATOM     15  C   UNL     1      -0.770   2.016  -1.222  0.00  0.00    +0.088 C 
ATOM     16  H   UNL     1       0.401   9.538   3.344  0.00  0.00    +0.145 HD
ATOM     17  H   UNL     1       0.465   8.570   4.716  0.00  0.00    +0.145 HD
ATOM     18  H   UNL     1      -0.928   3.668   3.287  0.00  0.00    +0.155 HD
ENDROOT
BRANCH   1  22
ATOM     19  C   UNL     1       0.034  -2.773  -0.013  0.00  0.00    +0.161 A 
ATOM     20  C   UNL     1      -1.173  -2.092   0.002  0.00  0.00    +0.049 A 
ATOM     21  C   UNL     1      -1.187  -0.710   0.015  0.00  0.00    +0.008 A 
ATOM     22  C   UNL     1       0.002  -0.004   0.002  0.00  0.00    -0.040 A 
ATOM     23  C   UNL     1       1.209  -0.677  -0.013  0.00  0.00    +0.053 A 
ATOM     24  C   UNL     1       1.230  -2.063  -0.021  0.00  0.00    +0.162 A 
BRANCH  19  26
ATOM     25  C   UNL     1      -1.218  -4.796  -0.012  0.00  0.00    +0.277 C 
ATOM     26  O   UNL     1       0.049  -4.133  -0.020  0.00  0.00    -0.491 OA
ENDBRANCH  19  26
BRANCH  24  27
ATOM     27  O   UNL     1       2.417  -2.727  -0.035  0.00  0.00    -0.491 OA
ATOM     28  C   UNL     1       3.604  -1.932  -0.042  0.00  0.00    +0.277 C 
ENDBRANCH  24  27
ENDBRANCH   1  22
BRANCH   5  29
ATOM     29  C   UNL     1      -2.339   6.123  -0.325  0.00  0.00    -0.018 A 
ATOM     30  C   UNL     1      -3.400   5.762   0.485  0.00  0.00    +0.006 A 
ATOM     31  C   UNL     1      -4.685   6.152   0.155  0.00  0.00    +0.013 A 
ATOM     32  C   UNL     1      -4.909   6.894  -0.990  0.00  0.00    +0.055 A 
ATOM     33  C   UNL     1      -3.849   7.250  -1.802  0.00  0.00    +0.013 A 
ATOM     34  C   UNL     1      -2.564   6.864  -1.469  0.00  0.00    +0.006 A 
BRANCH  32  35
ATOM     35  C   UNL     1      -6.310   7.314  -1.352  0.00  0.00    +0.417 C 
ATOM     36  F   UNL     1      -6.899   6.331  -2.155  0.00  0.00    -0.166 F 
ATOM     37  F   UNL     1      -7.065   7.477  -0.185  0.00  0.00    -0.166 F 
ATOM     38  F   UNL     1      -6.268   8.524  -2.053  0.00  0.00    -0.166 F 
ENDBRANCH  32  35
ENDBRANCH   5  29
TORSDOF 5
