REMARK  Name = ZINC65256688
REMARK  6 active torsions:
REMARK  status: ('A' for Active; 'I' for Inactive)
REMARK    1  A    between atoms: C_7  and  C_10
REMARK    2  A    between atoms: C_10  and  C_11
REMARK    3  A    between atoms: N_13  and  C_14
REMARK    4  A    between atoms: C_14  and  C_15
REMARK    5  A    between atoms: N_18  and  C_21
REMARK    6  A    between atoms: C_24  and  C_27
REMARK                            x       y       z     vdW  Elec       q    Type
REMARK                         _______ _______ _______ _____ _____    ______ ____
ROOT
ATOM      1  C   UNL     1      -1.532  -6.336  -3.059  0.00  0.00    +0.009 C 
ATOM      2  C   UNL     1      -0.866  -7.523  -2.358  0.00  0.00    +0.020 C 
ATOM      3  C   UNL     1      -1.802  -8.733  -2.414  0.00  0.00    +0.087 C 
ATOM      4  N   UNL     1      -2.090  -9.067  -3.814  0.00  0.00    -0.276 NA
ATOM      5  C   UNL     1      -2.772  -7.960  -4.495  0.00  0.00    +0.087 C 
ATOM      6  C   UNL     1      -1.866  -6.727  -4.502  0.00  0.00    +0.020 C 
ENDROOT
BRANCH   4   7
ATOM      7  C   UNL     1      -2.873 -10.306  -3.909  0.00  0.00    +0.224 C 
ATOM      8  C   UNL     1      -3.110 -10.680  -5.362  0.00  0.00    +0.049 C 
ATOM      9  C   UNL     1      -4.451 -10.649  -5.488  0.00  0.00    +0.110 C 
ATOM     10  N   UNL     1      -5.030 -10.308  -4.307  0.00  0.00    -0.151 NA
ATOM     11  N   UNL     1      -4.233 -10.104  -3.384  0.00  0.00    -0.163 NA
BRANCH   9  12
ATOM     12  C   UNL     1      -5.191 -10.945  -6.739  0.00  0.00    +0.091 A 
ATOM     13  C   UNL     1      -6.582 -10.875  -6.752  0.00  0.00    +0.030 A 
ATOM     14  C   UNL     1      -7.259 -11.154  -7.927  0.00  0.00    +0.004 A 
ATOM     15  C   UNL     1      -6.520 -11.495  -9.052  0.00  0.00    +0.020 A 
ATOM     16  C   UNL     1      -5.141 -11.545  -8.967  0.00  0.00    +0.111 A 
ATOM     17  N   UNL     1      -4.522 -11.269  -7.838  0.00  0.00    -0.253 NA
ENDBRANCH   9  12
ENDBRANCH   4   7
BRANCH   1  18
ATOM     18  C   UNL     1      -0.577  -5.141  -3.061  0.00  0.00    +0.107 C 
BRANCH  18  21
ATOM     19  C   UNL     1       0.460  -3.646  -1.440  0.00  0.00    +0.217 C 
ATOM     20  O   UNL     1       1.006  -3.075  -2.360  0.00  0.00    -0.275 OA
ATOM     21  N   UNL     1      -0.353  -4.693  -1.684  0.00  0.00    -0.315 N 
ATOM     22  H   UNL     1      -0.790  -5.150  -0.948  0.00  0.00    +0.149 HD
BRANCH  19  23
ATOM     23  C   UNL     1       0.691  -3.186  -0.024  0.00  0.00    +0.129 C 
BRANCH  23  30
ATOM     24  C   UNL     1      -0.016   1.348   0.009  0.00  0.00    +0.001 A 
ATOM     25  C   UNL     1       1.166   2.101   0.002  0.00  0.00    +0.002 A 
ATOM     26  C   UNL     1       2.391   1.535  -0.013  0.00  0.00    +0.026 A 
ATOM     27  C   UNL     1       2.529   0.120  -0.022  0.00  0.00    +0.043 A 
ATOM     28  N   UNL     1       3.587  -0.654  -0.037  0.00  0.00    -0.380 N 
ATOM     29  C   UNL     1       3.143  -2.053  -0.041  0.00  0.00    +0.145 C 
ATOM     30  C   UNL     1       1.631  -2.008  -0.025  0.00  0.00    -0.033 C 
ATOM     31  C   UNL     1       1.295  -0.698  -0.014  0.00  0.00    -0.001 A 
ATOM     32  C   UNL     1       0.002  -0.004   0.002  0.00  0.00    +0.010 A 
ATOM     33  H   UNL     1       4.509  -0.353  -0.045  0.00  0.00    +0.160 HD
ENDBRANCH  23  30
ENDBRANCH  19  23
ENDBRANCH  18  21
ENDBRANCH   1  18
TORSDOF 6
