REMARK  Name = ZINC14066270
REMARK  13 active torsions:
REMARK  status: ('A' for Active; 'I' for Inactive)
REMARK    1  A    between atoms: C_1  and  C_2
REMARK    2  A    between atoms: C_2  and  N_63
REMARK    3  A    between atoms: C_3  and  C_4
REMARK    4  A    between atoms: C_3  and  N_63
REMARK    5  A    between atoms: N_6  and  C_7
REMARK    6  A    between atoms: C_7  and  C_8
REMARK    7  A    between atoms: C_15  and  C_16
REMARK    8  A    between atoms: C_15  and  N_63
REMARK    9  A    between atoms: N_18  and  C_19
REMARK   10  A    between atoms: C_20  and  C_30
REMARK   11  A    between atoms: C_25  and  C_29
REMARK   12  A    between atoms: C_30  and  O_32
REMARK   13  A    between atoms: O_32  and  C_33
REMARK                            x       y       z     vdW  Elec       q    Type
REMARK                         _______ _______ _______ _____ _____    ______ ____
ROOT
ATOM      1  C   UNL     1       1.461   1.926   0.357  0.00  0.00    +0.020 C 
ENDROOT
BRANCH   1   2
ATOM      2  C   UNL     1       0.225   1.091   0.571  0.00  0.00    +0.201 C 
ATOM      3  O   UNL     1       0.265  -0.108   0.397  0.00  0.00    -0.278 OA
ATOM      4  N   UNL     1      -0.927   1.679   0.951  0.00  0.00    -0.281 N 
ATOM      5  H   UNL     1      -0.959   2.638   1.090  0.00  0.00    +0.155 HD
BRANCH   4   6
ATOM      6  C   UNL     1      -2.066   0.912   1.142  0.00  0.00    +0.086 A 
ATOM      7  C   UNL     1      -3.333   1.330   1.529  0.00  0.00    +0.091 A 
ATOM      8  C   UNL     1      -4.364   0.314   1.658  0.00  0.00    -0.021 A 
ATOM      9  C   UNL     1      -3.967  -0.947   1.383  0.00  0.00    -0.004 A 
ATOM     10  S   UNL     1      -2.256  -0.799   0.950  0.00  0.00    -0.077 S 
ATOM     11  C   UNL     1      -4.803  -2.188   1.431  0.00  0.00    +0.046 C 
ATOM     12  C   UNL     1      -6.092  -1.873   2.204  0.00  0.00    -0.009 C 
ATOM     13  C   UNL     1      -6.684  -0.568   1.665  0.00  0.00    +0.008 C 
ATOM     14  C   UNL     1      -5.800   0.612   2.071  0.00  0.00    +0.037 C 
ATOM     15  C   UNL     1      -7.096  -3.012   2.014  0.00  0.00    +0.008 C 
BRANCH   7  16
ATOM     16  C   UNL     1      -3.619   2.741   1.796  0.00  0.00    +0.342 C 
ATOM     17  O   UNL     1      -4.000   3.465   0.896  0.00  0.00    -0.245 OA
BRANCH  16  18
ATOM     18  O   UNL     1      -3.459   3.238   3.039  0.00  0.00    -0.464 OA
ATOM     19  C   UNL     1      -3.761   4.646   3.231  0.00  0.00    +0.280 C 
ENDBRANCH  16  18
ENDBRANCH   7  16
ENDBRANCH   4   6
ENDBRANCH   1   2
BRANCH   1  20
ATOM     20  N   UNL     1       2.574   1.036  -0.037  0.00  0.00    +0.391 N 
ATOM     21  H   UNL     1       2.646   0.270   0.643  0.00  0.00    -0.080 HD
BRANCH  20  23
ATOM     22  C   UNL     1       2.132   1.583  -2.407  0.00  0.00    -0.017 C 
ATOM     23  C   UNL     1       2.316   0.467  -1.377  0.00  0.00    -0.081 C 
ENDBRANCH  20  23
BRANCH  20  24
ATOM     24  C   UNL     1       3.845   1.791  -0.046  0.00  0.00    +0.019 C 
BRANCH  24  25
ATOM     25  C   UNL     1       4.989   0.811  -0.091  0.00  0.00    +0.197 C 
ATOM     26  O   UNL     1       4.771  -0.380  -0.025  0.00  0.00    -0.278 OA
ATOM     27  N   UNL     1       6.255   1.259  -0.206  0.00  0.00    -0.313 N 
ATOM     28  H   UNL     1       6.430   2.212  -0.259  0.00  0.00    +0.149 HD
BRANCH  27  29
ATOM     29  C   UNL     1       7.368   0.307  -0.251  0.00  0.00    +0.139 C 
BRANCH  29  30
ATOM     30  C   UNL     1       8.668   1.058  -0.381  0.00  0.00    -0.030 A 
ATOM     31  C   UNL     1       9.176   1.348  -1.633  0.00  0.00    +0.006 A 
ATOM     32  C   UNL     1      10.365   2.042  -1.753  0.00  0.00    +0.020 A 
ATOM     33  C   UNL     1      11.053   2.437  -0.619  0.00  0.00    +0.041 A 
ATOM     34  C   UNL     1      10.546   2.142   0.634  0.00  0.00    +0.020 A 
ATOM     35  C   UNL     1       9.354   1.453   0.753  0.00  0.00    +0.006 A 
ATOM     36 CL   UNL     1      12.550   3.304  -0.769  0.00  0.00    -0.084 Cl
ENDBRANCH  29  30
ENDBRANCH  27  29
ENDBRANCH  24  25
ENDBRANCH  20  24
ENDBRANCH   1  20
TORSDOF 10
