REMARK  Name = ZINC13169478
REMARK  6 active torsions:
REMARK  status: ('A' for Active; 'I' for Inactive)
REMARK    1  A    between atoms: C_3  and  O_32
REMARK    2  A    between atoms: C_6  and  N_7
REMARK    3  A    between atoms: N_7  and  C_8
REMARK    4  A    between atoms: N_11  and  C_16
REMARK    5  A    between atoms: C_25  and  C_28
REMARK    6  A    between atoms: C_28  and  C_29
REMARK                            x       y       z     vdW  Elec       q    Type
REMARK                         _______ _______ _______ _____ _____    ______ ____
ROOT
ATOM      1  C   UNL     1      -1.268  -2.103  -0.055  0.00  0.00    +0.075 A 
ATOM      2  C   UNL     1      -0.088  -2.875  -0.043  0.00  0.00    +0.157 A 
ATOM      3  N   UNL     1      -0.149  -4.176  -0.104  0.00  0.00    -0.174 NA
ATOM      4  N   UNL     1      -1.380  -4.837  -0.182  0.00  0.00    -0.222 N 
ATOM      5  C   UNL     1      -2.533  -4.139  -0.196  0.00  0.00    +0.288 A 
ATOM      6  O   UNL     1      -3.604  -4.722  -0.264  0.00  0.00    -0.265 OA
ATOM      7  C   UNL     1      -2.495  -2.738  -0.126  0.00  0.00    +0.129 A 
ATOM      8 CL   UNL     1      -3.966  -1.816  -0.135  0.00  0.00    -0.076 Cl
ENDROOT
BRANCH   4   9
ATOM      9  C   UNL     1      -1.416  -6.300  -0.250  0.00  0.00    +0.068 C 
ATOM     10  C   UNL     1      -2.100  -6.733  -1.548  0.00  0.00    +0.034 C 
ATOM     11  C   UNL     1      -2.137  -8.261  -1.619  0.00  0.00    -0.008 C 
ATOM     12  C   UNL     1      -2.919  -8.808  -0.422  0.00  0.00    +0.007 C 
ATOM     13  C   UNL     1      -2.235  -8.374   0.875  0.00  0.00    -0.008 C 
ATOM     14  C   UNL     1      -2.197  -6.846   0.946  0.00  0.00    +0.034 C 
ATOM     15  C   UNL     1      -0.806  -8.921   0.906  0.00  0.00    +0.011 C 
ATOM     16  C   UNL     1      -0.024  -8.374  -0.290  0.00  0.00    -0.016 C 
ATOM     17  C   UNL     1      -0.709  -8.808  -1.587  0.00  0.00    +0.011 C 
ATOM     18  C   UNL     1       0.013  -6.847  -0.219  0.00  0.00    +0.037 C 
BRANCH  16  19
ATOM     19  C   UNL     1       1.404  -8.921  -0.259  0.00  0.00    +0.132 C 
BRANCH  19  20
ATOM     20  C   UNL     1       1.367 -10.427  -0.328  0.00  0.00    +0.357 C 
ATOM     21  O   UNL     1       0.298 -11.008  -0.397  0.00  0.00    -0.246 OA
ATOM     22  O   UNL     1       2.407 -11.063  -0.317  0.00  0.00    -0.246 OA
ENDBRANCH  19  20
ENDBRANCH  16  19
ENDBRANCH   4   9
BRANCH   1  23
ATOM     23  N   UNL     1      -1.200  -0.721   0.010  0.00  0.00    -0.312 N 
ATOM     24  H   UNL     1      -1.641  -0.247   0.733  0.00  0.00    +0.152 HD
BRANCH  23  30
ATOM     25  C   UNL     1       0.002  -0.667  -2.084  0.00  0.00    +0.027 A 
ATOM     26  C   UNL     1       0.697   0.037  -3.047  0.00  0.00    +0.047 A 
ATOM     27  C   UNL     1       0.899   1.401  -2.900  0.00  0.00    +0.117 A 
ATOM     28  C   UNL     1       0.403   2.060  -1.784  0.00  0.00    +0.047 A 
ATOM     29  C   UNL     1      -0.292   1.358  -0.820  0.00  0.00    +0.027 A 
ATOM     30  C   UNL     1      -0.495  -0.008  -0.967  0.00  0.00    +0.032 A 
BRANCH  27  31
ATOM     31  O   UNL     1       1.583   2.094  -3.849  0.00  0.00    -0.507 OA
ATOM     32  H   UNL     1       1.026   2.452  -4.553  0.00  0.00    +0.292 HD
ENDBRANCH  27  31
ENDBRANCH  23  30
ENDBRANCH   1  23
TORSDOF 6
