REMARK  Name = ZINC36083119
REMARK  9 active torsions:
REMARK  status: ('A' for Active; 'I' for Inactive)
REMARK    1  A    between atoms: C_1  and  C_2
REMARK    2  A    between atoms: C_2  and  O_3
REMARK    3  A    between atoms: O_3  and  C_4
REMARK    4  A    between atoms: C_4  and  C_6
REMARK    5  A    between atoms: C_8  and  C_20
REMARK    6  A    between atoms: C_14  and  C_15
REMARK    7  A    between atoms: C_14  and  O_19
REMARK    8  A    between atoms: N_22  and  C_31
REMARK    9  A    between atoms: C_24  and  C_25
REMARK                            x       y       z     vdW  Elec       q    Type
REMARK                         _______ _______ _______ _____ _____    ______ ____
ROOT
ATOM      1  C   UNL     1       1.944  -1.877  -2.163  0.00  0.00    +0.181 C 
ATOM      2  C   UNL     1       1.537  -3.350  -2.273  0.00  0.00    +0.127 C 
ATOM      3  N   UNL     1       0.076  -3.446  -2.262  0.00  0.00    -0.291 N 
ATOM      4  C   UNL     1      -0.692  -2.453  -2.733  0.00  0.00    +0.302 C 
ATOM      5  O   UNL     1      -1.900  -2.588  -2.710  0.00  0.00    -0.253 OA
ATOM      6  N   UNL     1      -0.180  -1.316  -3.228  0.00  0.00    -0.264 N 
ATOM      7  C   UNL     1       1.269  -1.094  -3.295  0.00  0.00    +0.246 C 
ATOM      8  H   UNL     1      -0.345  -4.245  -1.907  0.00  0.00    +0.151 HD
ATOM      9  H   UNL     1      -0.780  -0.625  -3.549  0.00  0.00    +0.153 HD
ENDROOT
BRANCH   2  10
ATOM     10  C   UNL     1       2.102  -4.117  -1.105  0.00  0.00    +0.019 A 
ATOM     11  C   UNL     1       1.419  -4.514  -0.010  0.00  0.00    +0.120 A 
ATOM     12  N   UNL     1       2.285  -5.174   0.804  0.00  0.00    -0.239 N 
ATOM     13  N   UNL     1       3.541  -5.181   0.185  0.00  0.00    -0.166 NA
ATOM     14  C   UNL     1       3.435  -4.551  -0.966  0.00  0.00    +0.098 A 
BRANCH  14  15
ATOM     15  C   UNL     1       4.529  -4.334  -1.944  0.00  0.00    +0.002 A 
ATOM     16  C   UNL     1       5.796  -3.957  -1.504  0.00  0.00    +0.010 A 
ATOM     17  C   UNL     1       6.811  -3.757  -2.418  0.00  0.00    +0.001 A 
ATOM     18  C   UNL     1       6.571  -3.929  -3.770  0.00  0.00    +0.000 A 
ATOM     19  C   UNL     1       5.315  -4.302  -4.213  0.00  0.00    +0.001 A 
ATOM     20  C   UNL     1       4.295  -4.511  -3.307  0.00  0.00    +0.010 A 
ENDBRANCH  14  15
BRANCH  12  21
ATOM     21  C   UNL     1       1.974  -5.746   2.045  0.00  0.00    +0.065 A 
ATOM     22  C   UNL     1       0.680  -5.671   2.542  0.00  0.00    +0.028 A 
ATOM     23  C   UNL     1       0.378  -6.236   3.765  0.00  0.00    +0.002 A 
ATOM     24  C   UNL     1       1.362  -6.876   4.495  0.00  0.00    +0.000 A 
ATOM     25  C   UNL     1       2.652  -6.953   4.003  0.00  0.00    +0.002 A 
ATOM     26  C   UNL     1       2.960  -6.395   2.777  0.00  0.00    +0.028 A 
ENDBRANCH  12  21
ENDBRANCH   2  10
BRANCH   7  27
ATOM     27  C   UNL     1       1.800  -1.585  -4.643  0.00  0.00    +0.436 C 
ATOM     28  F   UNL     1       1.518  -2.948  -4.787  0.00  0.00    -0.166 F 
ATOM     29  F   UNL     1       1.182  -0.871  -5.676  0.00  0.00    -0.166 F 
ATOM     30  F   UNL     1       3.183  -1.387  -4.701  0.00  0.00    -0.166 F 
ENDBRANCH   7  27
BRANCH   1  31
ATOM     31  C   UNL     1       1.500  -1.326  -0.833  0.00  0.00    +0.317 C 
ATOM     32  O   UNL     1       0.923  -2.039  -0.046  0.00  0.00    -0.250 OA
BRANCH  31  33
ATOM     33  O   UNL     1       1.746  -0.044  -0.521  0.00  0.00    -0.465 OA
BRANCH  33  35
ATOM     34  C   UNL     1       1.665   1.885   0.932  0.00  0.00    +0.048 C 
ATOM     35  C   UNL     1       1.298   0.411   0.757  0.00  0.00    +0.229 C 
ENDBRANCH  33  35
ENDBRANCH  31  33
ENDBRANCH   1  31
BRANCH   7  36
ATOM     36  O   UNL     1       1.552   0.299  -3.148  0.00  0.00    -0.364 OA
ATOM     37  H   UNL     1       1.155   0.855  -3.832  0.00  0.00    +0.212 HD
ENDBRANCH   7  36
TORSDOF 8
