REMARK  Name = ZINC12769827
REMARK  10 active torsions:
REMARK  status: ('A' for Active; 'I' for Inactive)
REMARK    1  A    between atoms: C_1  and  C_2
REMARK    2  A    between atoms: C_2  and  O_3
REMARK    3  A    between atoms: O_3  and  C_4
REMARK    4  A    between atoms: C_9  and  C_10
REMARK    5  A    between atoms: C_10  and  N_56
REMARK    6  A    between atoms: C_11  and  C_13
REMARK    7  A    between atoms: C_11  and  C_14
REMARK    8  A    between atoms: C_11  and  N_56
REMARK    9  A    between atoms: C_20  and  C_25
REMARK   10  A    between atoms: C_31  and  C_34
REMARK                            x       y       z     vdW  Elec       q    Type
REMARK                         _______ _______ _______ _____ _____    ______ ____
ROOT
ATOM      1  C   UNL     1       3.662  -0.707  -0.037  0.00  0.00    -0.007 C 
ATOM      2  C   UNL     1       3.700  -1.685   1.139  0.00  0.00    -0.006 C 
ENDROOT
BRANCH   1   3
ATOM      3  C   UNL     1       2.358   0.048  -0.020  0.00  0.00    +0.097 A 
ATOM      4  N   UNL     1       1.188  -0.640  -0.013  0.00  0.00    -0.312 N 
ATOM      5  H   UNL     1       1.207  -1.610  -0.018  0.00  0.00    +0.170 HD
ATOM      6  C   UNL     1       0.002  -0.004   0.002  0.00  0.00    +0.260 A 
ATOM      7  O   UNL     1      -1.040  -0.637   0.008  0.00  0.00    -0.267 OA
ATOM      8  C   UNL     1      -0.017   1.427   0.010  0.00  0.00    +0.080 A 
ATOM      9  C   UNL     1      -1.159   2.334   0.020  0.00  0.00    +0.010 A 
ATOM     10  C   UNL     1      -0.929   3.671   0.030  0.00  0.00    +0.057 A 
ATOM     11  S   UNL     1       0.850   3.783   0.014  0.00  0.00    -0.076 S 
ATOM     12  C   UNL     1       1.240   2.052   0.001  0.00  0.00    +0.116 A 
ATOM     13  N   UNL     1       2.373   1.354  -0.013  0.00  0.00    -0.228 NA
BRANCH   9  14
ATOM     14  C   UNL     1      -2.540   1.808   0.024  0.00  0.00    +0.021 A 
ATOM     15  C   UNL     1      -3.585   2.131   0.848  0.00  0.00    +0.016 A 
ATOM     16  C   UNL     1      -4.798   1.504   0.657  0.00  0.00    +0.008 A 
ATOM     17  C   UNL     1      -4.917   0.581  -0.331  0.00  0.00    +0.046 A 
ATOM     18  S   UNL     1      -3.279   0.579  -1.041  0.00  0.00    -0.097 S 
ENDBRANCH   9  14
ENDBRANCH   1   3
BRANCH   1  19
ATOM     19  N   UNL     1       4.778   0.251   0.083  0.00  0.00    +0.388 N 
ATOM     20  H   UNL     1       4.534   1.117  -0.411  0.00  0.00    -0.084 HD
ATOM     21  H   UNL     1       4.943   0.456   1.075  0.00  0.00    -0.084 HD
BRANCH  19  22
ATOM     22  C   UNL     1       6.005  -0.317  -0.507  0.00  0.00    -0.042 C 
BRANCH  22  28
ATOM     23  C   UNL     1       7.797   0.804   0.836  0.00  0.00    +0.122 A 
ATOM     24  C   UNL     1       8.831   1.723   0.956  0.00  0.00    +0.053 A 
ATOM     25  C   UNL     1       9.184   2.505  -0.121  0.00  0.00    +0.001 A 
ATOM     26  C   UNL     1       8.513   2.394  -1.332  0.00  0.00    +0.125 A 
ATOM     27  C   UNL     1       7.482   1.465  -1.449  0.00  0.00    +0.051 A 
ATOM     28  C   UNL     1       7.126   0.681  -0.371  0.00  0.00    -0.019 A 
ATOM     29  O   UNL     1       9.010   3.267  -2.252  0.00  0.00    -0.488 OA
ATOM     30  C   UNL     1      10.321   3.691  -1.843  0.00  0.00    +0.175 C 
ATOM     31  C   UNL     1      10.257   3.561  -0.302  0.00  0.00    +0.083 C 
ATOM     32  C   UNL     1      11.395   2.767  -2.421  0.00  0.00    +0.052 C 
BRANCH  23  33
ATOM     33  O   UNL     1       7.445   0.029   1.897  0.00  0.00    -0.492 OA
BRANCH  33  35
ATOM     34  C   UNL     1       7.646  -0.739   4.179  0.00  0.00    +0.048 C 
ATOM     35  C   UNL     1       8.182   0.212   3.107  0.00  0.00    +0.225 C 
ENDBRANCH  33  35
ENDBRANCH  23  33
ENDBRANCH  22  28
ENDBRANCH  19  22
ENDBRANCH   1  19
TORSDOF 7
