REMARK  Name = ZINC30448676
REMARK  6 active torsions:
REMARK  status: ('A' for Active; 'I' for Inactive)
REMARK    1  A    between atoms: C_1  and  C_2
REMARK    2  A    between atoms: C_3  and  C_28
REMARK    3  A    between atoms: C_11  and  C_13
REMARK    4  A    between atoms: C_13  and  C_15
REMARK    5  A    between atoms: C_13  and  N_16
REMARK    6  A    between atoms: N_16  and  C_17
REMARK                            x       y       z     vdW  Elec       q    Type
REMARK                         _______ _______ _______ _____ _____    ______ ____
ROOT
ATOM      1  C   UNL     1      -1.807   4.977   0.046  0.00  0.00    +0.133 C 
ATOM      2  C   UNL     1      -1.640   5.939  -1.132  0.00  0.00    +0.036 C 
ENDROOT
BRANCH   1  13
ATOM      3  C   UNL     1       3.748   1.225  -0.027  0.00  0.00    +0.045 C 
ATOM      4  C   UNL     1       2.260   0.993  -0.014  0.00  0.00    -0.026 A 
ATOM      5  C   UNL     1       1.767  -0.256  -0.016  0.00  0.00    -0.008 A 
ATOM      6  S   UNL     1       0.002  -0.004   0.002  0.00  0.00    -0.073 S 
ATOM      7  C   UNL     1      -0.022   1.770   0.012  0.00  0.00    +0.116 A 
ATOM      8  C   UNL     1       1.341   2.116   0.001  0.00  0.00    +0.075 A 
ATOM      9  C   UNL     1       1.623   3.521   0.005  0.00  0.00    +0.260 A 
ATOM     10  O   UNL     1       2.775   3.921  -0.004  0.00  0.00    -0.267 OA
ATOM     11  N   UNL     1       0.597   4.392   0.020  0.00  0.00    -0.309 N 
ATOM     12  H   UNL     1       0.794   5.474   0.024  0.00  0.00    +0.170 HD
ATOM     13  C   UNL     1      -0.692   3.964   0.030  0.00  0.00    +0.131 A 
ATOM     14  N   UNL     1      -0.981   2.691   0.031  0.00  0.00    -0.225 NA
ATOM     15  C   UNL     1       2.524  -1.559  -0.031  0.00  0.00    +0.052 C 
ENDBRANCH   1  13
BRANCH   1  16
ATOM     16  N   UNL     1      -3.095   4.287  -0.066  0.00  0.00    -0.334 N 
ATOM     17  H   UNL     1      -3.149   3.297  -0.542  0.00  0.00    +0.147 HD
BRANCH  16  18
ATOM     18  C   UNL     1      -4.256   4.888   0.433  0.00  0.00    +0.031 A 
ATOM     19  C   UNL     1      -4.187   6.135   1.039  0.00  0.00    +0.027 A 
ATOM     20  C   UNL     1      -5.334   6.732   1.528  0.00  0.00    +0.051 A 
ATOM     21  C   UNL     1      -6.554   6.083   1.424  0.00  0.00    +0.173 A 
ATOM     22  C   UNL     1      -6.625   4.829   0.821  0.00  0.00    +0.174 A 
ATOM     23  C   UNL     1      -5.476   4.234   0.327  0.00  0.00    +0.072 A 
ATOM     24  O   UNL     1      -7.923   4.408   0.843  0.00  0.00    -0.395 OA
ATOM     25  C   UNL     1      -8.578   5.230   1.827  0.00  0.00    +0.589 C 
ATOM     26  O   UNL     1      -7.809   6.447   1.823  0.00  0.00    -0.395 OA
ATOM     27  F   UNL     1      -8.531   4.622   3.086  0.00  0.00    -0.125 F 
ATOM     28  F   UNL     1      -9.903   5.485   1.456  0.00  0.00    -0.125 F 
ENDBRANCH  16  18
ENDBRANCH   1  16
TORSDOF 3
