REMARK  Name = ZINC44714173
REMARK  7 active torsions:
REMARK  status: ('A' for Active; 'I' for Inactive)
REMARK    1  A    between atoms: C_1  and  C_2
REMARK    2  A    between atoms: C_3  and  C_9
REMARK    3  A    between atoms: C_4  and  C_8
REMARK    4  A    between atoms: C_9  and  C_11
REMARK    5  A    between atoms: C_9  and  N_12
REMARK    6  A    between atoms: C_13  and  C_15
REMARK    7  A    between atoms: C_26  and  C_28
REMARK                            x       y       z     vdW  Elec       q    Type
REMARK                         _______ _______ _______ _____ _____    ______ ____
ROOT
ATOM      1  C   UNL     1       2.441  -2.229  -5.592  0.00  0.00    +0.100 C 
ATOM      2  C   UNL     1       3.654  -1.859  -4.709  0.00  0.00    +0.121 C 
ATOM      3  N   UNL     1       4.777  -1.702  -5.662  0.00  0.00    -0.300 N 
ATOM      4  C   UNL     1       4.173  -1.025  -6.835  0.00  0.00    +0.115 C 
ATOM      5  C   UNL     1       2.786  -1.679  -6.986  0.00  0.00    -0.004 C 
ATOM      6  C   UNL     1       2.846  -2.816  -8.002  0.00  0.00    -0.010 C 
ATOM      7  C   UNL     1       3.135  -2.238  -9.391  0.00  0.00    -0.082 C 
ATOM      8  N   UNL     1       2.079  -1.285  -9.755  0.00  0.00    +0.379 N 
ATOM      9  C   UNL     1       2.088  -0.148  -8.826  0.00  0.00    -0.082 C 
ATOM     10  C   UNL     1       1.756  -0.638  -7.414  0.00  0.00    -0.010 C 
ATOM     11  C   UNL     1       6.058  -2.087  -5.500  0.00  0.00    +0.219 C 
ATOM     12  O   UNL     1       6.385  -2.704  -4.508  0.00  0.00    -0.275 OA
ATOM     13  H   UNL     1       2.238  -0.952 -10.694  0.00  0.00    -0.086 HD
ATOM     14  H   UNL     1       1.183  -1.746  -9.712  0.00  0.00    -0.086 HD
ENDROOT
BRANCH  11  15
ATOM     15  C   UNL     1       7.085  -1.750  -6.550  0.00  0.00    +0.079 C 
ATOM     16  C   UNL     1       8.235  -2.764  -6.491  0.00  0.00    +0.017 C 
ATOM     17  C   UNL     1       9.168  -2.507  -7.676  0.00  0.00    +0.027 C 
ATOM     18  C   UNL     1       9.516  -1.050  -7.754  0.00  0.00    -0.031 C 
ATOM     19  C   UNL     1       8.856  -0.113  -7.151  0.00  0.00    -0.030 C 
ATOM     20  C   UNL     1       7.652  -0.353  -6.286  0.00  0.00    +0.039 C 
ENDBRANCH  11  15
BRANCH   1  22
ATOM     21  N   UNL     1      -0.011  -2.152  -5.274  0.00  0.00    -0.308 N 
ATOM     22  C   UNL     1       1.189  -1.576  -5.065  0.00  0.00    +0.219 C 
ATOM     23  O   UNL     1       1.262  -0.531  -4.454  0.00  0.00    -0.275 OA
ATOM     24  H   UNL     1      -0.069  -2.988  -5.763  0.00  0.00    +0.149 HD
BRANCH  21  25
ATOM     25  C   UNL     1      -1.228  -1.517  -4.762  0.00  0.00    +0.104 C 
ATOM     26  C   UNL     1      -1.719  -0.472  -5.766  0.00  0.00    +0.033 C 
BRANCH  25  29
ATOM     27  C   UNL     1      -3.089  -1.796  -2.263  0.00  0.00    +0.065 C 
ATOM     28  C   UNL     1      -3.100  -2.683  -3.482  0.00  0.00    +0.038 A 
ATOM     29  C   UNL     1      -2.294  -2.563  -4.562  0.00  0.00    +0.015 A 
ATOM     30  C   UNL     1      -2.627  -3.581  -5.462  0.00  0.00    +0.065 A 
ATOM     31  N   UNL     1      -3.598  -4.286  -4.940  0.00  0.00    -0.179 NA
ATOM     32  N   UNL     1      -3.910  -3.742  -3.688  0.00  0.00    -0.281 N 
ATOM     33  H   UNL     1      -4.590  -4.068  -3.077  0.00  0.00    +0.189 HD
ATOM     34  C   UNL     1      -1.981  -3.823  -6.802  0.00  0.00    +0.068 C 
ENDBRANCH  25  29
ENDBRANCH  21  25
ENDBRANCH   1  22
TORSDOF 4
