REMARK  Name = ZINC58819008
REMARK  4 active torsions:
REMARK  status: ('A' for Active; 'I' for Inactive)
REMARK    1  A    between atoms: C_8  and  C_10
REMARK    2  A    between atoms: C_13  and  C_15
REMARK    3  A    between atoms: C_15  and  N_16
REMARK    4  A    between atoms: C_17  and  C_19
REMARK                            x       y       z     vdW  Elec       q    Type
REMARK                         _______ _______ _______ _____ _____    ______ ____
ROOT
ATOM      1  C   UNL     1       2.223  -7.587  -0.072  0.00  0.00    +0.179 C 
ENDROOT
BRANCH   1   5
ATOM      2  C   UNL     1       2.985  -4.014  -0.049  0.00  0.00    +0.160 A 
ATOM      3  C   UNL     1       4.254  -4.513  -0.059  0.00  0.00    +0.052 A 
ATOM      4  C   UNL     1       4.137  -5.915  -0.069  0.00  0.00    +0.047 A 
ATOM      5  C   UNL     1       2.819  -6.202  -0.064  0.00  0.00    +0.123 A 
ATOM      6  O   UNL     1       2.127  -5.053  -0.047  0.00  0.00    -0.456 OA
BRANCH   2  14
ATOM      7  C   UNL     1      -0.016   1.355   0.009  0.00  0.00    +0.002 A 
ATOM      8  C   UNL     1       1.155   2.100   0.002  0.00  0.00    +0.001 A 
ATOM      9  C   UNL     1       2.373   1.447  -0.013  0.00  0.00    +0.017 A 
ATOM     10  C   UNL     1       2.403   0.074  -0.020  0.00  0.00    +0.040 A 
ATOM     11  C   UNL     1       1.227  -0.713  -0.013  0.00  0.00    +0.079 A 
ATOM     12  C   UNL     1       0.002  -0.004   0.002  0.00  0.00    +0.029 A 
ATOM     13  N   UNL     1       1.417  -2.046  -0.023  0.00  0.00    -0.236 NA
ATOM     14  C   UNL     1       2.617  -2.590  -0.037  0.00  0.00    +0.144 A 
ATOM     15  S   UNL     1       3.684  -1.156  -0.040  0.00  0.00    -0.064 S 
ENDBRANCH   2  14
ENDBRANCH   1   5
BRANCH   1  16
ATOM     16  N   UNL     1       2.036  -8.046   1.306  0.00  0.00    -0.304 N 
ATOM     17  C   UNL     1       1.513  -9.264   1.546  0.00  0.00    +0.244 C 
ATOM     18  O   UNL     1       1.196  -9.983   0.618  0.00  0.00    -0.270 OA
ATOM     19  H   UNL     1       2.289  -7.473   2.047  0.00  0.00    +0.149 HD
BRANCH  17  20
ATOM     20  C   UNL     1       1.325  -9.727   2.935  0.00  0.00    +0.039 A 
ATOM     21  C   UNL     1       1.687  -8.893   4.003  0.00  0.00    +0.014 A 
ATOM     22  C   UNL     1       1.519  -9.309   5.289  0.00  0.00    +0.011 A 
ATOM     23  C   UNL     1       0.982 -10.575   5.549  0.00  0.00    -0.000 A 
ATOM     24  C   UNL     1       0.676 -11.312   6.774  0.00  0.00    +0.027 A 
ATOM     25  C   UNL     1       0.168 -12.500   6.402  0.00  0.00    +0.083 A 
ATOM     26  N   UNL     1       0.124 -12.583   5.040  0.00  0.00    -0.361 N 
ATOM     27  H   UNL     1      -0.205 -13.345   4.538  0.00  0.00    +0.165 HD
ATOM     28  C   UNL     1       0.615 -11.421   4.484  0.00  0.00    +0.047 A 
ATOM     29  C   UNL     1       0.784 -10.987   3.178  0.00  0.00    +0.039 A 
ENDBRANCH  17  20
ENDBRANCH   1  16
TORSDOF 4
