REMARK  Name = ZINC39983536
REMARK  11 active torsions:
REMARK  status: ('A' for Active; 'I' for Inactive)
REMARK    1  A    between atoms: C_1  and  C_2
REMARK    2  A    between atoms: C_2  and  O_3
REMARK    3  A    between atoms: O_3  and  C_4
REMARK    4  A    between atoms: C_4  and  C_6
REMARK    5  A    between atoms: C_9  and  N_12
REMARK    6  A    between atoms: C_13  and  C_15
REMARK    7  A    between atoms: C_15  and  C_16
REMARK    8  A    between atoms: N_22  and  N_23
REMARK    9  A    between atoms: C_30  and  C_34
REMARK   10  A    between atoms: C_31  and  C_32
REMARK   11  A    between atoms: C_31  and  C_33
REMARK                            x       y       z     vdW  Elec       q    Type
REMARK                         _______ _______ _______ _____ _____    ______ ____
ROOT
ATOM      1  C   UNL     1       4.413  -7.300  -7.052  0.00  0.00    +0.149 C 
ATOM      2  C   UNL     1       5.227  -7.897  -8.188  0.00  0.00    +0.233 C 
ATOM      3  O   UNL     1       6.404  -7.645  -8.339  0.00  0.00    -0.274 OA
ATOM      4  N   UNL     1       4.573  -8.709  -9.001  0.00  0.00    -0.263 N 
ATOM      5  C   UNL     1       3.236  -9.001  -8.836  0.00  0.00    +0.183 C 
ATOM      6  N   UNL     1       2.479  -9.787  -9.572  0.00  0.00    -0.127 NA
ATOM      7  S   UNL     1       2.771  -8.062  -7.388  0.00  0.00    -0.075 S 
ATOM      8  H   UNL     1       5.051  -9.114  -9.741  0.00  0.00    +0.157 HD
ENDROOT
BRANCH   6   9
ATOM      9  N   UNL     1       3.025 -10.446 -10.681  0.00  0.00    -0.156 NA
ATOM     10  C   UNL     1       2.281 -11.219 -11.404  0.00  0.00    +0.048 C 
ATOM     11  C   UNL     1       0.803 -11.524 -11.209  0.00  0.00    +0.057 C 
ATOM     12  C   UNL     1       0.443 -12.511 -12.361  0.00  0.00    +0.001 C 
ATOM     13  C   UNL     1       0.473 -11.630 -13.647  0.00  0.00    +0.005 C 
ATOM     14  C   UNL     1       1.967 -11.284 -13.843  0.00  0.00    +0.013 C 
ATOM     15  C   UNL     1       2.700 -12.018 -12.646  0.00  0.00    +0.013 C 
ATOM     16  C   UNL     1       1.797 -13.296 -12.490  0.00  0.00    -0.021 C 
ATOM     17  C   UNL     1       1.833 -14.180 -13.738  0.00  0.00    +0.012 C 
ATOM     18  C   UNL     1       2.127 -14.087 -11.223  0.00  0.00    +0.012 C 
ATOM     19  C   UNL     1       4.203 -12.251 -12.814  0.00  0.00    +0.018 C 
ENDBRANCH   6   9
BRANCH   1  20
ATOM     20  C   UNL     1       4.348  -5.775  -7.158  0.00  0.00    +0.120 C 
BRANCH  20  22
ATOM     21  N   UNL     1       3.368  -3.894  -5.884  0.00  0.00    -0.285 N 
ATOM     22  C   UNL     1       3.557  -5.224  -5.999  0.00  0.00    +0.219 C 
ATOM     23  O   UNL     1       3.091  -5.977  -5.171  0.00  0.00    -0.275 OA
ATOM     24  H   UNL     1       3.674  -3.298  -6.586  0.00  0.00    +0.155 HD
BRANCH  21  28
ATOM     25  C   UNL     1       1.470  -2.345  -2.516  0.00  0.00    +0.059 A 
ATOM     26  C   UNL     1       2.279  -3.480  -2.405  0.00  0.00    +0.017 A 
ATOM     27  C   UNL     1       2.904  -3.989  -3.520  0.00  0.00    +0.024 A 
ATOM     28  C   UNL     1       2.732  -3.376  -4.757  0.00  0.00    +0.033 A 
ATOM     29  C   UNL     1       1.929  -2.246  -4.872  0.00  0.00    +0.024 A 
ATOM     30  C   UNL     1       1.295  -1.735  -3.762  0.00  0.00    +0.017 A 
BRANCH  25  31
ATOM     31  C   UNL     1       0.797  -1.796  -1.323  0.00  0.00    +0.339 C 
ATOM     32  O   UNL     1       0.091  -0.813  -1.423  0.00  0.00    -0.245 OA
BRANCH  31  33
ATOM     33  O   UNL     1       0.967  -2.386  -0.124  0.00  0.00    -0.461 OA
BRANCH  33  35
ATOM     34  C   UNL     1       0.597  -2.601   2.255  0.00  0.00    +0.048 C 
ATOM     35  C   UNL     1       0.286  -1.801   0.988  0.00  0.00    +0.229 C 
ENDBRANCH  33  35
ENDBRANCH  31  33
ENDBRANCH  25  31
ENDBRANCH  21  28
ENDBRANCH  20  22
ENDBRANCH   1  20
TORSDOF 7
