REMARK  Name = ZINC21877665
REMARK  14 active torsions:
REMARK  status: ('A' for Active; 'I' for Inactive)
REMARK    1  A    between atoms: C_1  and  C_2
REMARK    2  A    between atoms: C_2  and  C_3
REMARK    3  A    between atoms: C_3  and  N_4
REMARK    4  A    between atoms: C_9  and  C_23
REMARK    5  A    between atoms: C_13  and  C_14
REMARK    6  A    between atoms: C_13  and  C_15
REMARK    7  A    between atoms: N_17  and  C_18
REMARK    8  A    between atoms: N_25  and  C_26
REMARK    9  A    between atoms: C_26  and  C_27
REMARK   10  A    between atoms: C_27  and  C_28
REMARK   11  A    between atoms: C_31  and  O_36
REMARK   12  A    between atoms: C_32  and  O_34
REMARK   13  A    between atoms: O_34  and  C_35
REMARK   14  A    between atoms: O_36  and  C_37
REMARK                            x       y       z     vdW  Elec       q    Type
REMARK                         _______ _______ _______ _____ _____    ______ ____
ROOT
ATOM      1  N   UNL     1      -8.851  -4.949  -3.110  0.00  0.00    -0.281 N 
ATOM      2  C   UNL     1      -7.815  -4.575  -3.899  0.00  0.00    +0.266 C 
ATOM      3  O   UNL     1      -7.825  -4.760  -5.101  0.00  0.00    -0.268 OA
ATOM      4  C   UNL     1      -6.677  -3.932  -3.221  0.00  0.00    +0.124 A 
ATOM      5  C   UNL     1      -5.597  -3.282  -3.714  0.00  0.00    +0.067 A 
ATOM      6  C   UNL     1      -4.865  -2.867  -2.579  0.00  0.00    +0.148 A 
ATOM      7  N   UNL     1      -5.528  -3.271  -1.507  0.00  0.00    -0.166 NA
ATOM      8  N   UNL     1      -6.583  -3.904  -1.846  0.00  0.00    -0.256 N 
ATOM      9  C   UNL     1      -7.596  -4.552  -1.002  0.00  0.00    +0.179 C 
ATOM     10  C   UNL     1      -8.945  -4.521  -1.718  0.00  0.00    +0.130 C 
ATOM     11  C   UNL     1      -9.917  -5.445  -0.982  0.00  0.00    +0.044 C 
ENDROOT
BRANCH  10  12
ATOM     12  C   UNL     1      -9.487  -3.116  -1.677  0.00  0.00    +0.238 C 
ATOM     13  O   UNL     1     -10.219  -2.775  -0.772  0.00  0.00    -0.273 OA
ATOM     14  N   UNL     1      -9.158  -2.238  -2.645  0.00  0.00    -0.311 N 
ATOM     15  H   UNL     1      -8.494  -2.547  -3.465  0.00  0.00    +0.149 HD
BRANCH  14  16
ATOM     16  C   UNL     1      -9.685  -0.871  -2.604  0.00  0.00    +0.073 C 
ATOM     17  C   UNL     1     -11.052  -0.811  -3.315  0.00  0.00    +0.022 C 
ATOM     18  C   UNL     1     -11.044   0.560  -4.037  0.00  0.00    +0.002 C 
ATOM     19  C   UNL     1      -9.579   0.682  -4.522  0.00  0.00    +0.002 C 
ATOM     20  C   UNL     1      -8.748   0.078  -3.371  0.00  0.00    +0.022 C 
ENDBRANCH  14  16
ENDBRANCH  10  12
BRANCH   6  21
ATOM     21  C   UNL     1      -3.595  -2.112  -2.586  0.00  0.00    +0.264 C 
ATOM     22  O   UNL     1      -3.082  -1.796  -3.642  0.00  0.00    -0.268 OA
ATOM     23  N   UNL     1      -3.005  -1.774  -1.423  0.00  0.00    -0.310 N 
ATOM     24  H   UNL     1      -3.469  -2.060  -0.467  0.00  0.00    +0.149 HD
BRANCH  23  25
ATOM     25  C   UNL     1      -1.745  -1.026  -1.430  0.00  0.00    +0.109 C 
BRANCH  25  26
ATOM     26  C   UNL     1      -1.294  -0.774   0.010  0.00  0.00    +0.054 C 
BRANCH  26  27
ATOM     27  C   UNL     1       0.002  -0.004   0.002  0.00  0.00    -0.042 A 
ATOM     28  C   UNL     1       1.207  -0.682  -0.013  0.00  0.00    +0.007 A 
ATOM     29  C   UNL     1       2.398   0.019  -0.020  0.00  0.00    +0.049 A 
ATOM     30  C   UNL     1       2.386   1.405  -0.013  0.00  0.00    +0.161 A 
ATOM     31  C   UNL     1       1.174   2.087   0.002  0.00  0.00    +0.162 A 
ATOM     32  C   UNL     1      -0.017   1.378   0.010  0.00  0.00    +0.053 A 
BRANCH  31  33
ATOM     33  O   UNL     1       1.157   3.447   0.010  0.00  0.00    -0.491 OA
ATOM     34  C   UNL     1      -0.124   4.080   0.026  0.00  0.00    +0.277 C 
ENDBRANCH  31  33
BRANCH  30  35
ATOM     35  O   UNL     1       3.557   2.096  -0.020  0.00  0.00    -0.491 OA
ATOM     36  C   UNL     1       4.763   1.330  -0.036  0.00  0.00    +0.277 C 
ENDBRANCH  30  35
ENDBRANCH  26  27
ENDBRANCH  25  26
ENDBRANCH  23  25
ENDBRANCH   6  21
BRANCH   1  37
ATOM     37  C   UNL     1      -9.902  -5.803  -3.668  0.00  0.00    +0.109 C 
BRANCH  37  39
ATOM     38  C   UNL     1     -10.632  -8.165  -4.035  0.00  0.00    +0.005 C 
ATOM     39  C   UNL     1      -9.534  -7.272  -3.453  0.00  0.00    +0.016 C 
ENDBRANCH  37  39
ENDBRANCH   1  37
TORSDOF 10
