REMARK  Name = ZINC39609091
REMARK  9 active torsions:
REMARK  status: ('A' for Active; 'I' for Inactive)
REMARK    1  A    between atoms: C_4  and  C_7
REMARK    2  A    between atoms: C_7  and  C_8
REMARK    3  A    between atoms: C_8  and  C_9
REMARK    4  A    between atoms: C_9  and  C_10
REMARK    5  A    between atoms: C_14  and  C_23
REMARK    6  A    between atoms: N_25  and  C_26
REMARK    7  A    between atoms: C_31  and  O_33
REMARK    8  A    between atoms: O_33  and  C_34
REMARK    9  A    between atoms: C_34  and  C_35
REMARK                            x       y       z     vdW  Elec       q    Type
REMARK                         _______ _______ _______ _____ _____    ______ ____
ROOT
ATOM      1  C   UNL     1       5.931  -2.077   2.501  0.00  0.00    +0.216 C 
ATOM      2  O   UNL     1       5.172  -1.692   3.364  0.00  0.00    -0.276 OA
ATOM      3  N   UNL     1       7.089  -2.678   2.840  0.00  0.00    -0.300 N 
ATOM      4  C   UNL     1       8.138  -3.205   1.935  0.00  0.00    +0.121 C 
ATOM      5  C   UNL     1       9.470  -2.836   2.626  0.00  0.00    +0.100 C 
ATOM      6  C   UNL     1       9.111  -2.679   4.113  0.00  0.00    -0.004 C 
ATOM      7  C   UNL     1       7.603  -2.956   4.202  0.00  0.00    +0.115 C 
ATOM      8  C   UNL     1       9.886  -3.690   4.953  0.00  0.00    -0.010 C 
ATOM      9  C   UNL     1       9.556  -3.476   6.433  0.00  0.00    -0.082 C 
ATOM     10  N   UNL     1       9.916  -2.108   6.823  0.00  0.00    +0.379 N 
ATOM     11  C   UNL     1       9.100  -1.143   6.077  0.00  0.00    -0.082 C 
ATOM     12  C   UNL     1       9.410  -1.258   4.581  0.00  0.00    -0.010 C 
ATOM     13  H   UNL     1       9.755  -1.988   7.812  0.00  0.00    -0.086 HD
ATOM     14  H   UNL     1      10.892  -1.948   6.622  0.00  0.00    -0.086 HD
ENDROOT
BRANCH   5  15
ATOM     15  C   UNL     1      10.005  -1.540   2.073  0.00  0.00    +0.218 C 
ATOM     16  O   UNL     1       9.240  -0.693   1.663  0.00  0.00    -0.275 OA
ATOM     17  N   UNL     1      11.335  -1.322   2.035  0.00  0.00    -0.310 N 
ATOM     18  H   UNL     1      11.947  -1.999   2.363  0.00  0.00    +0.149 HD
BRANCH  17  19
ATOM     19  C   UNL     1      11.855  -0.062   1.498  0.00  0.00    +0.102 C 
ATOM     20  C   UNL     1      12.032  -0.172  -0.027  0.00  0.00    +0.025 C 
ATOM     21  C   UNL     1      13.531   0.052  -0.314  0.00  0.00    +0.004 C 
ATOM     22  C   UNL     1      14.035   0.860   0.908  0.00  0.00    +0.033 C 
ATOM     23  C   UNL     1      13.252   0.226   2.085  0.00  0.00    +0.139 C 
BRANCH  23  24
ATOM     24  O   UNL     1      13.157   1.144   3.176  0.00  0.00    -0.370 OA
BRANCH  24  25
ATOM     25  C   UNL     1      14.168   0.971   4.171  0.00  0.00    +0.195 C 
BRANCH  25  26
ATOM     26  C   UNL     1      13.973   1.986   5.268  0.00  0.00    -0.022 A 
ATOM     27  C   UNL     1      14.585   3.222   5.183  0.00  0.00    +0.006 A 
ATOM     28  C   UNL     1      14.405   4.153   6.189  0.00  0.00    +0.000 A 
ATOM     29  C   UNL     1      13.613   3.848   7.280  0.00  0.00    +0.000 A 
ATOM     30  C   UNL     1      13.000   2.612   7.364  0.00  0.00    +0.000 A 
ATOM     31  C   UNL     1      13.176   1.683   6.356  0.00  0.00    +0.006 A 
ENDBRANCH  25  26
ENDBRANCH  24  25
ENDBRANCH  23  24
ENDBRANCH  17  19
ENDBRANCH   5  15
BRANCH   1  32
ATOM     32  C   UNL     1       5.581  -1.883   1.048  0.00  0.00    +0.096 C 
BRANCH  32  33
ATOM     33  C   UNL     1       4.225  -1.181   0.940  0.00  0.00    +0.014 C 
BRANCH  33  34
ATOM     34  C   UNL     1       3.869  -0.985  -0.535  0.00  0.00    +0.035 C 
BRANCH  34  38
ATOM     35  C   UNL     1       0.085   0.974  -0.840  0.00  0.00    +0.000 A 
ATOM     36  C   UNL     1       1.247   1.721  -0.780  0.00  0.00    +0.000 A 
ATOM     37  C   UNL     1       2.472   1.087  -0.682  0.00  0.00    +0.003 A 
ATOM     38  C   UNL     1       2.534  -0.293  -0.642  0.00  0.00    -0.047 A 
ATOM     39  C   UNL     1       1.372  -1.040  -0.700  0.00  0.00    +0.003 A 
ATOM     40  C   UNL     1       0.148  -0.406  -0.800  0.00  0.00    +0.000 A 
ENDBRANCH  34  38
ENDBRANCH  33  34
ENDBRANCH  32  33
ENDBRANCH   1  32
TORSDOF 9
