REMARK  Name = ZINC38703146
REMARK  7 active torsions:
REMARK  status: ('A' for Active; 'I' for Inactive)
REMARK    1  A    between atoms: C_1  and  C_2
REMARK    2  A    between atoms: C_2  and  O_3
REMARK    3  A    between atoms: O_3  and  C_4
REMARK    4  A    between atoms: C_6  and  C_11
REMARK    5  A    between atoms: C_9  and  O_10
REMARK    6  A    between atoms: C_19  and  C_28
REMARK    7  A    between atoms: C_20  and  C_27
REMARK                            x       y       z     vdW  Elec       q    Type
REMARK                         _______ _______ _______ _____ _____    ______ ____
ROOT
ATOM      1  C   UNL     1       0.654  -4.954  -0.018  0.00  0.00    +0.142 C 
ATOM      2  C   UNL     1       0.899  -5.471  -1.397  0.00  0.00    +0.072 A 
ATOM      3  C   UNL     1       1.188  -4.773  -2.655  0.00  0.00    +0.199 A 
ATOM      4  O   UNL     1       1.447  -3.584  -2.713  0.00  0.00    -0.287 OA
ATOM      5  C   UNL     1       1.136  -5.653  -3.849  0.00  0.00    +0.065 A 
ATOM      6  C   UNL     1       1.191  -5.108  -5.131  0.00  0.00    +0.015 A 
ATOM      7  C   UNL     1       1.136  -5.931  -6.221  0.00  0.00    +0.004 A 
ATOM      8  C   UNL     1       1.026  -7.305  -6.054  0.00  0.00    -0.044 A 
ATOM      9  C   UNL     1       0.973  -7.860  -4.796  0.00  0.00    -0.005 A 
ATOM     10  C   UNL     1       1.029  -7.042  -3.668  0.00  0.00    +0.143 A 
ATOM     11  O   UNL     1       0.985  -7.609  -2.441  0.00  0.00    -0.449 OA
ATOM     12  C   UNL     1       0.808  -6.834  -1.354  0.00  0.00    +0.199 A 
ATOM     13  C   UNL     1       0.499  -7.232   0.031  0.00  0.00    +0.281 C 
ATOM     14  O   UNL     1       0.349  -8.377   0.409  0.00  0.00    -0.267 OA
ATOM     15  N   UNL     1       0.409  -6.139   0.820  0.00  0.00    -0.298 N 
ATOM     16  C   UNL     1       0.854  -9.354  -4.637  0.00  0.00    +0.048 C 
ATOM     17  C   UNL     1       0.965  -8.199  -7.266  0.00  0.00    +0.044 C 
ATOM     18  H   UNL     1       0.217  -6.136   1.770  0.00  0.00    +0.150 HD
ENDROOT
BRANCH   1  21
ATOM     19  C   UNL     1      -1.498  -1.849   0.006  0.00  0.00    +0.162 A 
ATOM     20  C   UNL     1      -0.389  -2.680  -0.003  0.00  0.00    +0.055 A 
ATOM     21  C   UNL     1      -0.553  -4.052  -0.008  0.00  0.00    -0.019 A 
ATOM     22  C   UNL     1      -1.823  -4.600  -0.005  0.00  0.00    +0.009 A 
ATOM     23  C   UNL     1      -2.934  -3.777   0.004  0.00  0.00    +0.049 A 
ATOM     24  C   UNL     1      -2.776  -2.400   0.016  0.00  0.00    +0.158 A 
BRANCH  24  25
ATOM     25  O   UNL     1      -3.868  -1.589   0.030  0.00  0.00    -0.503 OA
ATOM     26  H   UNL     1      -4.192  -1.350  -0.849  0.00  0.00    +0.292 HD
ENDBRANCH  24  25
BRANCH  19  27
ATOM     27  O   UNL     1      -1.339  -0.499   0.012  0.00  0.00    -0.489 OA
BRANCH  27  29
ATOM     28  C   UNL     1      -0.019   1.526   0.010  0.00  0.00    +0.048 C 
ATOM     29  C   UNL     1       0.002  -0.004   0.002  0.00  0.00    +0.226 C 
ENDBRANCH  27  29
ENDBRANCH  19  27
ENDBRANCH   1  21
TORSDOF 4
