REMARK  Name = ZINC05427965
REMARK  4 active torsions:
REMARK  status: ('A' for Active; 'I' for Inactive)
REMARK    1  A    between atoms: C_3  and  C_8
REMARK    2  A    between atoms: N_9  and  N_10
REMARK    3  A    between atoms: C_15  and  C_18
REMARK    4  A    between atoms: C_18  and  C_19
REMARK                            x       y       z     vdW  Elec       q    Type
REMARK                         _______ _______ _______ _____ _____    ______ ____
ROOT
ATOM      1  N   UNL     1       5.080   0.158  -3.057  0.00  0.00    -0.127 NA
ATOM      2  C   UNL     1       4.515   0.245  -1.871  0.00  0.00    +0.183 C 
ATOM      3  N   UNL     1       4.994   0.876  -0.743  0.00  0.00    -0.263 N 
ATOM      4  C   UNL     1       4.325   0.892   0.397  0.00  0.00    +0.233 C 
ATOM      5  O   UNL     1       4.751   1.450   1.386  0.00  0.00    -0.274 OA
ATOM      6  C   UNL     1       2.989   0.167   0.391  0.00  0.00    +0.151 C 
ATOM      7  S   UNL     1       2.945  -0.431  -1.345  0.00  0.00    -0.075 S 
ATOM      8  H   UNL     1       5.852   1.326  -0.788  0.00  0.00    +0.157 HD
ENDROOT
BRANCH   1  10
ATOM      9  C   UNL     1       5.048  -0.563  -5.185  0.00  0.00    +0.143 C 
ATOM     10  N   UNL     1       4.487  -0.478  -4.010  0.00  0.00    -0.155 NA
BRANCH   9  13
ATOM     11  C   UNL     1       8.065   1.620  -4.730  0.00  0.00    +0.002 A 
ATOM     12  C   UNL     1       6.869   0.978  -4.481  0.00  0.00    +0.009 A 
ATOM     13  C   UNL     1       6.323   0.125  -5.444  0.00  0.00    -0.004 A 
ATOM     14  C   UNL     1       6.997  -0.075  -6.653  0.00  0.00    +0.024 A 
ATOM     15  C   UNL     1       8.189   0.577  -6.890  0.00  0.00    +0.018 A 
ATOM     16  C   UNL     1       8.724   1.421  -5.930  0.00  0.00    +0.015 A 
ATOM     17 BR   UNL     1       9.100   0.314  -8.526  0.00  0.00    -0.050 Br
ENDBRANCH   9  13
ENDBRANCH   1  10
BRANCH   6  18
ATOM     18  C   UNL     1       1.834   1.130   0.674  0.00  0.00    +0.149 C 
BRANCH  18  19
ATOM     19  C   UNL     1       0.535   0.367   0.688  0.00  0.00    +0.358 C 
ATOM     20  O   UNL     1       0.533  -0.825   0.491  0.00  0.00    -0.246 OA
ATOM     21  O   UNL     1      -0.620   1.013   0.913  0.00  0.00    -0.246 OA
ENDBRANCH  18  19
ENDBRANCH   6  18
TORSDOF 4
