REMARK  Name = ZINC10014703
REMARK  10 active torsions:
REMARK  status: ('A' for Active; 'I' for Inactive)
REMARK    1  A    between atoms: C_1  and  C_2
REMARK    2  A    between atoms: C_5  and  S_13
REMARK    3  A    between atoms: N_6  and  C_7
REMARK    4  A    between atoms: S_13  and  C_14
REMARK    5  A    between atoms: C_14  and  C_15
REMARK    6  A    between atoms: N_17  and  C_18
REMARK    7  A    between atoms: N_17  and  C_19
REMARK    8  A    between atoms: C_20  and  N_35
REMARK    9  A    between atoms: N_21  and  C_28
REMARK   10  A    between atoms: C_28  and  C_29
REMARK                            x       y       z     vdW  Elec       q    Type
REMARK                         _______ _______ _______ _____ _____    ______ ____
ROOT
ATOM      1  C   UNL     1      -0.089   1.717   2.466  0.00  0.00    +0.139 A 
ATOM      2  C   UNL     1       0.901   2.659   2.659  0.00  0.00    +0.128 A 
ATOM      3  N   UNL     1       1.471   2.790   3.904  0.00  0.00    -0.276 N 
ATOM      4  C   UNL     1       1.073   2.003   4.920  0.00  0.00    +0.331 A 
ATOM      5  O   UNL     1       1.592   2.131   6.013  0.00  0.00    -0.246 OA
ATOM      6  N   UNL     1       0.113   1.077   4.750  0.00  0.00    -0.273 N 
ATOM      7  H   UNL     1      -0.164   0.504   5.522  0.00  0.00    +0.173 HD
ATOM      8  C   UNL     1      -0.480   0.911   3.552  0.00  0.00    +0.277 A 
ATOM      9  O   UNL     1      -1.350   0.069   3.409  0.00  0.00    -0.266 OA
ENDROOT
BRANCH   1  12
ATOM     10  C   UNL     1      -2.001   1.860   1.039  0.00  0.00    +0.230 C 
ATOM     11  O   UNL     1      -2.630   2.353   1.952  0.00  0.00    -0.274 OA
ATOM     12  N   UNL     1      -0.695   1.562   1.202  0.00  0.00    -0.267 N 
ATOM     13  C   UNL     1       0.093   1.077   0.066  0.00  0.00    +0.138 C 
BRANCH  10  14
ATOM     14  C   UNL     1      -2.679   1.580  -0.278  0.00  0.00    +0.173 C 
BRANCH  14  15
ATOM     15  S   UNL     1      -4.414   2.086  -0.183  0.00  0.00    -0.077 S 
BRANCH  15  20
ATOM     16  C   UNL     1      -7.279   1.312  -4.591  0.00  0.00    +0.088 C 
ATOM     17  C   UNL     1      -6.143   1.351  -3.602  0.00  0.00    +0.131 A 
ATOM     18  N   UNL     1      -4.923   0.945  -3.810  0.00  0.00    -0.134 NA
ATOM     19  N   UNL     1      -4.212   1.123  -2.754  0.00  0.00    -0.122 NA
ATOM     20  C   UNL     1      -4.947   1.658  -1.807  0.00  0.00    +0.192 A 
ATOM     21  N   UNL     1      -6.204   1.815  -2.316  0.00  0.00    -0.303 N 
BRANCH  21  22
ATOM     22  C   UNL     1      -7.374   2.368  -1.630  0.00  0.00    +0.091 C 
ATOM     23  C   UNL     1      -7.080   3.806  -1.199  0.00  0.00    +0.025 C 
ATOM     24  C   UNL     1      -8.302   4.384  -0.482  0.00  0.00    +0.002 C 
ATOM     25  C   UNL     1      -8.618   3.537   0.752  0.00  0.00    +0.000 C 
ATOM     26  C   UNL     1      -8.912   2.098   0.321  0.00  0.00    +0.002 C 
ATOM     27  C   UNL     1      -7.690   1.520  -0.396  0.00  0.00    +0.025 C 
ENDBRANCH  21  22
ENDBRANCH  15  20
ENDBRANCH  14  15
ENDBRANCH  10  14
ENDBRANCH   1  12
BRANCH   2  28
ATOM     28  N   UNL     1       1.311   3.459   1.619  0.00  0.00    -0.343 N 
ATOM     29  H   UNL     1       0.956   3.317   0.728  0.00  0.00    +0.144 HD
ATOM     30  H   UNL     1       1.956   4.167   1.777  0.00  0.00    +0.144 HD
ENDBRANCH   2  28
BRANCH   3  31
ATOM     31  C   UNL     1       2.520   3.789   4.124  0.00  0.00    +0.163 C 
BRANCH  31  32
ATOM     32  C   UNL     1       3.866   3.173   3.843  0.00  0.00    -0.028 A 
ATOM     33  C   UNL     1       4.570   2.556   4.861  0.00  0.00    +0.005 A 
ATOM     34  C   UNL     1       5.803   1.987   4.602  0.00  0.00    +0.000 A 
ATOM     35  C   UNL     1       6.337   2.044   3.329  0.00  0.00    +0.000 A 
ATOM     36  C   UNL     1       5.636   2.665   2.312  0.00  0.00    +0.000 A 
ATOM     37  C   UNL     1       4.401   3.230   2.569  0.00  0.00    +0.005 A 
ENDBRANCH  31  32
ENDBRANCH   3  31
TORSDOF 8
