REMARK  Name = ZINC15931858
REMARK  7 active torsions:
REMARK  status: ('A' for Active; 'I' for Inactive)
REMARK    1  A    between atoms: C_1  and  O_2
REMARK    2  A    between atoms: O_2  and  C_3
REMARK    3  A    between atoms: C_3  and  C_5
REMARK    4  A    between atoms: C_9  and  N_10
REMARK    5  A    between atoms: N_10  and  C_11
REMARK    6  A    between atoms: N_18  and  C_21
REMARK    7  A    between atoms: C_21  and  C_22
REMARK                            x       y       z     vdW  Elec       q    Type
REMARK                         _______ _______ _______ _____ _____    ______ ____
ROOT
ATOM      1  C   UNL     1      -1.325  -3.168  -3.526  0.00  0.00    +0.090 C 
ATOM      2  C   UNL     1      -1.423  -2.674  -4.814  0.00  0.00    +0.113 C 
ATOM      3  C   UNL     1      -1.589  -3.570  -5.972  0.00  0.00    +0.258 C 
ATOM      4  O   UNL     1      -1.644  -4.777  -5.825  0.00  0.00    -0.270 OA
ATOM      5  N   UNL     1      -1.677  -3.017  -7.199  0.00  0.00    -0.235 N 
ATOM      6  C   UNL     1      -1.618  -1.690  -7.375  0.00  0.00    +0.316 C 
ATOM      7  O   UNL     1      -1.704  -1.255  -8.507  0.00  0.00    -0.252 OA
ATOM      8  N   UNL     1      -1.469  -0.816  -6.369  0.00  0.00    -0.214 N 
ATOM      9  C   UNL     1      -1.373  -1.226  -5.088  0.00  0.00    +0.261 C 
ATOM     10  O   UNL     1      -1.243  -0.423  -4.183  0.00  0.00    -0.269 OA
ATOM     11  H   UNL     1      -1.786  -3.593  -7.972  0.00  0.00    +0.159 HD
ENDROOT
BRANCH   1  12
ATOM     12  N   UNL     1      -1.347  -2.321  -2.474  0.00  0.00    -0.314 N 
ATOM     13  H   UNL     1      -1.511  -1.376  -2.616  0.00  0.00    +0.152 HD
BRANCH  12  18
ATOM     14  C   UNL     1      -1.121  -2.088  -0.005  0.00  0.00    +0.091 A 
ATOM     15  C   UNL     1      -0.879  -2.836   1.216  0.00  0.00    -0.021 A 
ATOM     16  C   UNL     1      -0.689  -4.160   1.025  0.00  0.00    -0.004 A 
ATOM     17  S   UNL     1      -0.832  -4.386  -0.723  0.00  0.00    -0.077 S 
ATOM     18  C   UNL     1      -1.135  -2.803  -1.194  0.00  0.00    +0.084 A 
ATOM     19  C   UNL     1      -0.418  -5.191   2.077  0.00  0.00    +0.043 C 
ATOM     20  C   UNL     1      -0.013  -4.466   3.369  0.00  0.00    +0.005 C 
ATOM     21  C   UNL     1      -1.014  -3.340   3.641  0.00  0.00    +0.005 C 
ATOM     22  C   UNL     1      -0.835  -2.224   2.609  0.00  0.00    +0.037 C 
BRANCH  14  23
ATOM     23  C   UNL     1      -1.347  -0.641   0.018  0.00  0.00    +0.342 C 
ATOM     24  O   UNL     1      -2.476  -0.204   0.138  0.00  0.00    -0.245 OA
BRANCH  23  26
ATOM     25  C   UNL     1      -0.598   1.605  -0.062  0.00  0.00    +0.280 C 
ATOM     26  O   UNL     1      -0.304   0.206  -0.092  0.00  0.00    -0.464 OA
ENDBRANCH  23  26
ENDBRANCH  14  23
ENDBRANCH  12  18
ENDBRANCH   1  12
BRANCH   8  27
ATOM     27  C   UNL     1      -1.416   0.617  -6.668  0.00  0.00    +0.192 C 
BRANCH  27  28
ATOM     28  C   UNL     1      -2.810   1.190  -6.632  0.00  0.00    +0.123 A 
ATOM     29  C   UNL     1      -3.418   1.711  -5.551  0.00  0.00    +0.046 A 
ATOM     30  C   UNL     1      -4.705   2.125  -5.966  0.00  0.00    +0.041 A 
ATOM     31  C   UNL     1      -4.806   1.833  -7.275  0.00  0.00    +0.195 A 
ATOM     32  O   UNL     1      -3.652   1.272  -7.674  0.00  0.00    -0.466 OA
ENDBRANCH  27  28
ENDBRANCH   8  27
TORSDOF 6
