REMARK  Name = ZINC52565813
REMARK  6 active torsions:
REMARK  status: ('A' for Active; 'I' for Inactive)
REMARK    1  A    between atoms: C_1  and  C_2
REMARK    2  A    between atoms: C_4  and  C_9
REMARK    3  A    between atoms: C_5  and  C_8
REMARK    4  A    between atoms: C_9  and  N_10
REMARK    5  A    between atoms: N_23  and  C_26
REMARK    6  A    between atoms: C_26  and  C_27
REMARK                            x       y       z     vdW  Elec       q    Type
REMARK                         _______ _______ _______ _____ _____    ______ ____
ROOT
ATOM      1  N   UNL     1      -0.493  -1.487  -3.365  0.00  0.00    -0.290 NA
ATOM      2  C   UNL     1       0.003  -2.866  -3.292  0.00  0.00    +0.123 C 
ATOM      3  C   UNL     1      -1.147  -3.776  -2.905  0.00  0.00    +0.008 A 
ATOM      4  C   UNL     1      -1.155  -4.399  -1.675  0.00  0.00    +0.008 A 
ATOM      5  C   UNL     1      -2.200  -5.242  -1.341  0.00  0.00    +0.001 A 
ATOM      6  C   UNL     1      -3.230  -5.458  -2.238  0.00  0.00    +0.004 A 
ATOM      7  C   UNL     1      -3.225  -4.828  -3.468  0.00  0.00    +0.046 A 
ATOM      8  C   UNL     1      -2.182  -3.975  -3.799  0.00  0.00    +0.126 A 
ATOM      9  O   UNL     1      -2.191  -3.313  -4.987  0.00  0.00    -0.484 OA
ATOM     10  C   UNL     1      -2.407  -1.897  -4.906  0.00  0.00    +0.126 C 
ATOM     11  C   UNL     1      -1.099  -1.175  -4.656  0.00  0.00    +0.133 C 
ATOM     12  C   UNL     1      -3.020  -1.416  -6.226  0.00  0.00    +0.064 C 
ATOM     13  C   UNL     1      -4.361  -2.119  -6.447  0.00  0.00    +0.088 C 
ATOM     14  N   UNL     1      -5.265  -1.812  -5.332  0.00  0.00    -0.298 NA
ATOM     15  C   UNL     1      -4.722  -2.303  -4.059  0.00  0.00    +0.088 C 
ATOM     16  C   UNL     1      -3.391  -1.608  -3.768  0.00  0.00    +0.064 C 
ENDROOT
BRANCH   1  17
ATOM     17  C   UNL     1       0.570  -0.527  -3.038  0.00  0.00    +0.120 C 
BRANCH  17  20
ATOM     18  C   UNL     1       0.413   1.409  -0.455  0.00  0.00    +0.045 C 
ATOM     19  C   UNL     1       0.349  -0.118  -0.387  0.00  0.00    +0.174 C 
ATOM     20  C   UNL     1       1.002  -0.725  -1.607  0.00  0.00    -0.004 C 
ATOM     21  C   UNL     1       2.015  -1.458  -1.197  0.00  0.00    +0.039 C 
ATOM     22  N   UNL     1       2.132  -1.422   0.181  0.00  0.00    -0.269 N 
ATOM     23  O   UNL     1       1.114  -0.599   0.729  0.00  0.00    -0.267 OA
ATOM     24  C   UNL     1       2.929  -2.236  -2.109  0.00  0.00    +0.065 C 
ATOM     25  H   UNL     1       2.808  -1.889   0.696  0.00  0.00    +0.194 HD
ENDBRANCH  17  20
ENDBRANCH   1  17
BRANCH  14  26
ATOM     26  C   UNL     1      -6.607  -2.358  -5.577  0.00  0.00    +0.117 C 
BRANCH  26  27
ATOM     27  C   UNL     1      -7.322  -1.498  -6.587  0.00  0.00    -0.028 C 
ATOM     28  C   UNL     1      -7.402  -1.705  -7.920  0.00  0.00    +0.003 A 
ATOM     29  C   UNL     1      -6.881  -2.739  -8.822  0.00  0.00    +0.029 A 
ATOM     30  C   UNL     1      -7.154  -2.643 -10.143  0.00  0.00    +0.111 A 
ATOM     31  N   UNL     1      -7.873  -1.658 -10.671  0.00  0.00    -0.261 NA
ATOM     32  C   UNL     1      -8.395  -0.678  -9.990  0.00  0.00    +0.136 A 
ATOM     33  C   UNL     1      -8.201  -0.617  -8.534  0.00  0.00    +0.061 A 
ATOM     34  N   UNL     1      -8.598   0.226  -7.619  0.00  0.00    -0.379 N 
ATOM     35  C   UNL     1      -8.102  -0.230  -6.314  0.00  0.00    +0.146 C 
ATOM     36  H   UNL     1      -9.133   1.019  -7.775  0.00  0.00    +0.160 HD
ENDBRANCH  26  27
ENDBRANCH  14  26
TORSDOF 4
