REMARK  Name = ZINC58826565
REMARK  8 active torsions:
REMARK  status: ('A' for Active; 'I' for Inactive)
REMARK    1  A    between atoms: C_3  and  N_26
REMARK    2  A    between atoms: C_6  and  C_7
REMARK    3  A    between atoms: C_7  and  C_9
REMARK    4  A    between atoms: C_7  and  O_25
REMARK    5  A    between atoms: C_9  and  C_11
REMARK    6  A    between atoms: C_9  and  N_13
REMARK    7  A    between atoms: C_11  and  O_12
REMARK    8  A    between atoms: N_16  and  C_17
REMARK                            x       y       z     vdW  Elec       q    Type
REMARK                         _______ _______ _______ _____ _____    ______ ____
ROOT
ATOM      1  C   UNK A   1      -1.640  -1.135   1.447  0.00  0.00    +0.133 C 
ENDROOT
BRANCH   1   2
ATOM      2  N   UNK A   1      -0.526  -1.865   2.056  0.00  0.00    -0.291 N 
ATOM      3  C   UNK A   0      -0.378  -1.875   3.396  0.00  0.00    +0.304 C 
ATOM      4  O   UNK A   0      -1.170  -1.277   4.098  0.00  0.00    -0.252 OA
ATOM      5  N   UNK A   0       0.646  -2.547   3.956  0.00  0.00    -0.268 N 
ATOM      6  H   UNK A   1       0.106  -2.342   1.495  0.00  0.00    +0.151 HD
ATOM      7  H   UNK A   0       1.230  -3.090   3.404  0.00  0.00    +0.156 HD
BRANCH   5   8
ATOM      8  C   UNK A   0       0.869  -2.460   5.335  0.00  0.00    +0.055 A 
ATOM      9  C   UNK A   0       0.423  -1.353   6.044  0.00  0.00    +0.044 A 
ATOM     10  C   UNK A   0       0.644  -1.271   7.406  0.00  0.00    +0.043 A 
ATOM     11  C   UNK A   0       1.311  -2.291   8.063  0.00  0.00    +0.021 A 
ATOM     12  C   UNK A   0       1.756  -3.394   7.360  0.00  0.00    +0.023 A 
ATOM     13  C   UNK A   0       1.532  -3.485   5.999  0.00  0.00    +0.062 A 
ATOM     14 CL   UNK A   0       2.086  -4.875   5.119  0.00  0.00    -0.082 Cl
ATOM     15 CL   UNK A   0       0.087   0.114   8.293  0.00  0.00    -0.083 Cl
ENDBRANCH   5   8
ENDBRANCH   1   2
BRANCH   1  16
ATOM     16  C   UNK A   1      -1.272  -0.747   0.013  0.00  0.00    +0.167 C 
BRANCH  16  22
ATOM     17  C   UNK A   1       0.001   1.408   0.037  0.00  0.00    +0.008 A 
ATOM     18  C   UNK A   1       1.188   2.117   0.041  0.00  0.00    +0.033 A 
ATOM     19  C   UNK A   1       2.396   1.443   0.028  0.00  0.00    +0.126 A 
ATOM     20  C   UNK A   1       2.416   0.061   0.010  0.00  0.00    +0.033 A 
ATOM     21  C   UNK A   1       1.229  -0.647   0.006  0.00  0.00    +0.008 A 
ATOM     22  C   UNK A   1       0.022   0.026   0.018  0.00  0.00    -0.017 A 
BRANCH  19  23
ATOM     23  N   UNK A   1       3.666   2.202   0.032  0.00  0.00    +0.056 N 
ATOM     24  O   UNK A   1       3.649   3.411   0.047  0.00  0.00    -0.126 OA
ATOM     25  O   UNK A   1       4.722   1.613   0.020  0.00  0.00    -0.126 OA
ENDBRANCH  19  23
ENDBRANCH  16  22
BRANCH  16  26
ATOM     26  O   UNK A   1      -1.118  -1.928  -0.776  0.00  0.00    -0.385 OA
ATOM     27  H   UNK A   1      -0.429  -2.527  -0.457  0.00  0.00    +0.210 HD
ENDBRANCH  16  26
ENDBRANCH   1  16
BRANCH   1  28
ATOM     28  C   UNK A   1      -2.885  -2.024   1.431  0.00  0.00    +0.181 C 
BRANCH  28  29
ATOM     29  O   UNK A   1      -2.657  -3.147   0.577  0.00  0.00    -0.393 OA
ATOM     30  H   UNK A   1      -3.407  -3.755   0.518  0.00  0.00    +0.209 HD
ENDBRANCH  28  29
ENDBRANCH   1  28
TORSDOF 8
