REMARK  Name = ZINC05163550
REMARK  4 active torsions:
REMARK  status: ('A' for Active; 'I' for Inactive)
REMARK    1  A    between atoms: C_1  and  C_2
REMARK    2  A    between atoms: N_20  and  C_23
REMARK    3  A    between atoms: C_26  and  O_29
REMARK    4  A    between atoms: O_29  and  C_30
REMARK                            x       y       z     vdW  Elec       q    Type
REMARK                         _______ _______ _______ _____ _____    ______ ____
ROOT
ATOM      1  C   UNL     1       2.203   5.893   2.829  0.00  0.00    +0.044 C 
ATOM      2  C   UNL     1       0.898   5.193   2.546  0.00  0.00    -0.050 A 
ATOM      3  C   UNL     1      -0.299   5.862   2.720  0.00  0.00    +0.005 A 
ATOM      4  C   UNL     1      -1.497   5.227   2.462  0.00  0.00    +0.024 A 
ATOM      5  C   UNL     1      -1.508   3.904   2.025  0.00  0.00    +0.036 A 
ATOM      6  C   UNL     1      -0.297   3.241   1.854  0.00  0.00    -0.027 A 
ATOM      7  C   UNL     1       0.896   3.879   2.112  0.00  0.00    +0.008 A 
ATOM      8  C   UNL     1      -0.648   1.857   1.382  0.00  0.00    +0.053 C 
ATOM      9  C   UNL     1      -0.155   0.788   2.343  0.00  0.00    +0.089 C 
ATOM     10  C   UNL     1       0.287  -0.391   1.432  0.00  0.00    +0.074 C 
ATOM     11  C   UNL     1      -0.007   0.077  -0.005  0.00  0.00    -0.054 C 
ATOM     12  C   UNL     1       1.377   1.983   0.067  0.00  0.00    -0.076 C 
ATOM     13  C   UNL     1       2.083   1.005  -0.894  0.00  0.00    -0.020 C 
ATOM     14  C   UNL     1       1.185  -0.248  -0.923  0.00  0.00    -0.016 C 
ATOM     15  C   UNL     1       1.782  -0.469   1.640  0.00  0.00    +0.228 C 
ATOM     16  O   UNL     1       2.523  -1.267   1.106  0.00  0.00    -0.275 OA
ATOM     17  N   UNL     1       2.161   0.478   2.505  0.00  0.00    -0.210 N 
ATOM     18  C   UNL     1       1.164   1.244   2.963  0.00  0.00    +0.229 C 
ATOM     19  O   UNL     1       1.286   2.156   3.752  0.00  0.00    -0.275 OA
ATOM     20  C   UNL     1      -2.151   1.838   1.315  0.00  0.00    +0.212 C 
ATOM     21  O   UNL     1      -2.849   0.905   0.979  0.00  0.00    -0.277 OA
ATOM     22  N   UNL     1      -2.571   3.058   1.702  0.00  0.00    -0.286 N 
ATOM     23  H   UNL     1      -3.505   3.318   1.752  0.00  0.00    +0.155 HD
ATOM     24  N   UNL     1      -0.025   1.519   0.099  0.00  0.00    +0.395 N 
ATOM     25  H   UNL     1      -0.555   1.935  -0.676  0.00  0.00    -0.079 HD
ENDROOT
BRANCH  17  26
ATOM     26  C   UNL     1       3.496   0.656   2.900  0.00  0.00    +0.044 A 
ATOM     27  C   UNL     1       4.125  -0.309   3.675  0.00  0.00    +0.027 A 
ATOM     28  C   UNL     1       5.440  -0.137   4.059  0.00  0.00    +0.047 A 
ATOM     29  C   UNL     1       6.130   1.006   3.680  0.00  0.00    +0.120 A 
ATOM     30  C   UNL     1       5.500   1.973   2.910  0.00  0.00    +0.047 A 
ATOM     31  C   UNL     1       4.187   1.799   2.521  0.00  0.00    +0.027 A 
BRANCH  29  32
ATOM     32  O   UNL     1       7.423   1.178   4.063  0.00  0.00    -0.495 OA
ATOM     33  C   UNL     1       8.008   0.142   4.854  0.00  0.00    +0.277 C 
ENDBRANCH  29  32
ENDBRANCH  17  26
TORSDOF 2
