REMARK  Name = ZINC62703036
REMARK  4 active torsions:
REMARK  status: ('A' for Active; 'I' for Inactive)
REMARK    1  A    between atoms: C_3  and  O_11
REMARK    2  A    between atoms: C_6  and  C_7
REMARK    3  A    between atoms: O_11  and  C_12
REMARK    4  A    between atoms: C_19  and  O_21
REMARK                            x       y       z     vdW  Elec       q    Type
REMARK                         _______ _______ _______ _____ _____    ______ ____
ROOT
ATOM      1  C   UNL     1       0.054   1.452   0.738  0.00  0.00    +0.019 A 
ATOM      2  C   UNL     1       1.221   2.135   0.484  0.00  0.00    +0.047 A 
ATOM      3  C   UNL     1       2.396   1.438   0.229  0.00  0.00    +0.135 A 
ATOM      4  C   UNL     1       2.399   0.046   0.231  0.00  0.00    +0.060 A 
ATOM      5  C   UNL     1       1.236  -0.646   0.485  0.00  0.00    +0.034 A 
ATOM      6  C   UNL     1       0.051   0.053   0.741  0.00  0.00    +0.064 A 
ATOM      7 BR   UNL     1       4.002  -0.895  -0.116  0.00  0.00    -0.046 Br
ENDROOT
BRANCH   6   8
ATOM      8  C   UNL     1      -1.195  -0.683   1.013  0.00  0.00    +0.387 C 
ATOM      9  O   UNL     1      -2.231  -0.070   1.237  0.00  0.00    -0.241 OA
ATOM     10  O   UNL     1      -1.196  -1.906   1.015  0.00  0.00    -0.241 OA
ENDBRANCH   6   8
BRANCH   3  11
ATOM     11  O   UNL     1       3.544   2.116  -0.022  0.00  0.00    -0.483 OA
BRANCH  11  12
ATOM     12  C   UNL     1       3.449   3.538  -0.125  0.00  0.00    +0.224 C 
ATOM     13  C   UNL     1       3.499   4.161   1.298  0.00  0.00    +0.213 C 
ATOM     14  S   UNL     1       3.996   5.885   0.862  0.00  0.00    -0.025 S 
ATOM     15  O   UNL     1       2.849   6.610   0.441  0.00  0.00    -0.174 OA
ATOM     16  O   UNL     1       4.820   6.410   1.894  0.00  0.00    -0.174 OA
ATOM     17  C   UNL     1       5.037   5.495  -0.606  0.00  0.00    +0.201 C 
ATOM     18  C   UNL     1       4.606   4.063  -0.973  0.00  0.00    +0.177 C 
BRANCH  18  19
ATOM     19  O   UNL     1       5.726   3.191  -0.809  0.00  0.00    -0.386 OA
ATOM     20  H   UNL     1       6.507   3.453  -1.315  0.00  0.00    +0.210 HD
ENDBRANCH  18  19
ENDBRANCH  11  12
ENDBRANCH   3  11
TORSDOF 4
