REMARK  Name = ZINC08852694
REMARK  11 active torsions:
REMARK  status: ('A' for Active; 'I' for Inactive)
REMARK    1  A    between atoms: C_1  and  C_2
REMARK    2  A    between atoms: C_3  and  C_12
REMARK    3  A    between atoms: C_8  and  S_10
REMARK    4  A    between atoms: S_10  and  C_11
REMARK    5  A    between atoms: C_12  and  C_13
REMARK    6  A    between atoms: C_13  and  C_14
REMARK    7  A    between atoms: N_16  and  C_17
REMARK    8  A    between atoms: C_17  and  C_18
REMARK    9  A    between atoms: C_18  and  N_19
REMARK   10  A    between atoms: N_19  and  C_20
REMARK   11  A    between atoms: C_23  and  C_25
REMARK                            x       y       z     vdW  Elec       q    Type
REMARK                         _______ _______ _______ _____ _____    ______ ____
ROOT
ATOM      1  C   UNL     1      -3.006   3.211   1.471  0.00  0.00    +0.213 C 
ATOM      2  O   UNL     1      -3.583   3.439   0.428  0.00  0.00    -0.276 OA
ATOM      3  N   UNL     1      -3.535   3.628   2.639  0.00  0.00    -0.314 N 
ATOM      4  H   UNL     1      -3.074   3.446   3.472  0.00  0.00    +0.149 HD
ENDROOT
BRANCH   1   5
ATOM      5  C   UNL     1      -1.698   2.463   1.461  0.00  0.00    +0.100 C 
BRANCH   5   6
ATOM      6  C   UNL     1      -1.325   2.109   0.020  0.00  0.00    +0.051 C 
BRANCH   6   9
ATOM      7  C   UNL     1      -1.294  -0.774   0.011  0.00  0.00    +0.066 C 
ATOM      8  C   UNL     1       0.002  -0.004   0.002  0.00  0.00    +0.049 A 
ATOM      9  C   UNL     1      -0.016   1.361   0.009  0.00  0.00    +0.038 A 
ATOM     10  C   UNL     1       1.205   2.058   0.002  0.00  0.00    +0.256 A 
ATOM     11  O   UNL     1       1.225   3.277   0.008  0.00  0.00    -0.267 OA
ATOM     12  N   UNL     1       2.355   1.351  -0.013  0.00  0.00    -0.302 N 
ATOM     13  H   UNL     1       3.209   1.811  -0.018  0.00  0.00    +0.171 HD
ATOM     14  C   UNL     1       2.312  -0.010  -0.020  0.00  0.00    +0.169 A 
ATOM     15  N   UNL     1       1.162  -0.656  -0.013  0.00  0.00    -0.228 NA
BRANCH  14  16
ATOM     16  S   UNL     1       3.818  -0.924  -0.039  0.00  0.00    -0.091 S 
ATOM     17  C   UNL     1       3.162  -2.611  -0.041  0.00  0.00    +0.093 C 
ENDBRANCH  14  16
ENDBRANCH   6   9
ENDBRANCH   5   6
ENDBRANCH   1   5
BRANCH   3  18
ATOM     18  C   UNL     1      -4.807   4.355   2.648  0.00  0.00    +0.123 C 
BRANCH  18  19
ATOM     19  C   UNL     1      -5.181   4.710   4.089  0.00  0.00    +0.121 C 
BRANCH  19  20
ATOM     20  N   UNL     1      -6.452   5.437   4.099  0.00  0.00    -0.328 N 
ATOM     21  H   UNL     1      -6.914   5.618   3.266  0.00  0.00    +0.147 HD
BRANCH  20  22
ATOM     22  C   UNL     1      -6.998   5.866   5.304  0.00  0.00    +0.115 A 
ATOM     23  C   UNL     1      -8.204   6.562   5.306  0.00  0.00    +0.079 A 
ATOM     24  C   UNL     1      -8.738   6.979   6.513  0.00  0.00    +0.037 A 
ATOM     25  C   UNL     1      -8.040   6.694   7.679  0.00  0.00    +0.072 A 
ATOM     26  C   UNL     1      -6.847   6.005   7.603  0.00  0.00    +0.096 A 
ATOM     27 CL   UNL     1      -9.030   6.896   3.816  0.00  0.00    -0.080 Cl
ATOM     28  N   UNL     1      -6.295   5.576   6.436  0.00  0.00    -0.348 N 
ATOM     29  H   UNL     1      -5.405   5.065   6.410  0.00  0.00    +0.167 HD
BRANCH  25  30
ATOM     30  C   UNL     1      -8.581   7.134   9.016  0.00  0.00    +0.419 C 
ATOM     31  F   UNL     1      -7.704   6.731  10.029  0.00  0.00    -0.166 F 
ATOM     32  F   UNL     1      -8.706   8.527   9.033  0.00  0.00    -0.166 F 
ATOM     33  F   UNL     1      -9.835   6.550   9.226  0.00  0.00    -0.166 F 
ENDBRANCH  25  30
ENDBRANCH  20  22
ENDBRANCH  19  20
ENDBRANCH  18  19
ENDBRANCH   3  18
TORSDOF 9
