REMARK  Name = ZINC09899782
REMARK  4 active torsions:
REMARK  status: ('A' for Active; 'I' for Inactive)
REMARK    1  A    between atoms: C_7  and  C_11
REMARK    2  A    between atoms: C_11  and  C_12
REMARK    3  A    between atoms: C_12  and  C_13
REMARK    4  A    between atoms: C_13  and  C_14
REMARK                            x       y       z     vdW  Elec       q    Type
REMARK                         _______ _______ _______ _____ _____    ______ ____
ROOT
ATOM      1  C   UNL     1      -0.043   2.081   2.253  0.00  0.00    +0.216 C 
ATOM      2  O   UNL     1       1.167   2.147   2.217  0.00  0.00    -0.276 OA
ATOM      3  N   UNL     1      -0.721   1.571   1.206  0.00  0.00    -0.297 N 
ATOM      4  C   UNL     1      -2.191   1.481   1.224  0.00  0.00    +0.114 C 
ATOM      5  C   UNL     1      -2.762   2.388   0.128  0.00  0.00    +0.072 C 
ATOM      6  C   UNL     1      -1.983   2.170  -1.147  0.00  0.00    +0.023 A 
ATOM      7  C   UNL     1      -0.762   1.595  -1.199  0.00  0.00    -0.002 A 
ATOM      8  C   UNL     1      -0.355   1.577  -2.588  0.00  0.00    +0.005 A 
ATOM      9  C   UNL     1       0.795   1.112  -3.235  0.00  0.00    +0.010 A 
ATOM     10  C   UNL     1       0.843   1.262  -4.598  0.00  0.00    +0.001 A 
ATOM     11  C   UNL     1      -0.192   1.843  -5.312  0.00  0.00    +0.002 A 
ATOM     12  C   UNL     1      -1.341   2.311  -4.698  0.00  0.00    +0.026 A 
ATOM     13  C   UNL     1      -1.418   2.173  -3.314  0.00  0.00    +0.047 A 
ATOM     14  N   UNL     1      -2.383   2.516  -2.412  0.00  0.00    -0.358 N 
ATOM     15  H   UNL     1      -3.227   2.942  -2.633  0.00  0.00    +0.166 HD
ATOM     16  C   UNL     1      -0.013   1.086   0.008  0.00  0.00    +0.145 C 
ENDROOT
BRANCH   1  17
ATOM     17  C   UNL     1      -0.789   2.571   3.467  0.00  0.00    +0.096 C 
BRANCH  17  18
ATOM     18  C   UNL     1       0.208   3.097   4.501  0.00  0.00    +0.014 C 
BRANCH  18  19
ATOM     19  C   UNL     1      -0.549   3.594   5.734  0.00  0.00    +0.038 C 
BRANCH  19  26
ATOM     20  C   UNL     1       1.559   7.737   6.336  0.00  0.00    +0.001 A 
ATOM     21  C   UNL     1       2.406   7.758   7.436  0.00  0.00    +0.002 A 
ATOM     22  C   UNL     1       2.561   6.639   8.225  0.00  0.00    +0.026 A 
ATOM     23  C   UNL     1       1.864   5.475   7.918  0.00  0.00    +0.047 A 
ATOM     24  C   UNL     1       1.008   5.459   6.802  0.00  0.00    +0.003 A 
ATOM     25  C   UNL     1       0.865   6.604   6.016  0.00  0.00    +0.010 A 
ATOM     26  C   UNL     1       0.433   4.112   6.752  0.00  0.00    -0.022 A 
ATOM     27  C   UNL     1       0.945   3.429   7.788  0.00  0.00    +0.087 A 
ATOM     28  N   UNL     1       1.806   4.226   8.493  0.00  0.00    -0.360 N 
ATOM     29  H   UNL     1       2.298   3.952   9.283  0.00  0.00    +0.165 HD
ENDBRANCH  19  26
ENDBRANCH  18  19
ENDBRANCH  17  18
ENDBRANCH   1  17
TORSDOF 4
