REMARK  Name = ZINC39556429
REMARK  8 active torsions:
REMARK  status: ('A' for Active; 'I' for Inactive)
REMARK    1  A    between atoms: C_1  and  N_2
REMARK    2  A    between atoms: C_6  and  C_7
REMARK    3  A    between atoms: N_9  and  C_17
REMARK    4  A    between atoms: C_17  and  C_18
REMARK    5  A    between atoms: N_20  and  C_21
REMARK    6  A    between atoms: C_21  and  C_22
REMARK    7  A    between atoms: C_22  and  O_23
REMARK    8  A    between atoms: O_23  and  C_24
REMARK                            x       y       z     vdW  Elec       q    Type
REMARK                         _______ _______ _______ _____ _____    ______ ____
ROOT
ATOM      1  C   UNL     1      -0.618  -4.602  -0.020  0.00  0.00    +0.002 A 
ATOM      2  C   UNL     1       0.745  -4.813  -0.021  0.00  0.00    +0.095 A 
ATOM      3  N   UNL     1       0.996  -6.146  -0.032  0.00  0.00    -0.337 N 
ATOM      4  C   UNL     1      -0.184  -6.861  -0.038  0.00  0.00    +0.050 A 
ATOM      5  C   UNL     1      -1.243  -5.939  -0.025  0.00  0.00    +0.008 A 
ATOM      6  C   UNL     1      -2.561  -6.388  -0.023  0.00  0.00    +0.026 A 
ATOM      7  C   UNL     1      -2.821  -7.742  -0.030  0.00  0.00    +0.019 A 
ATOM      8  C   UNL     1      -1.776  -8.655  -0.039  0.00  0.00    +0.017 A 
ATOM      9  C   UNL     1      -0.467  -8.224  -0.049  0.00  0.00    +0.027 A 
ATOM     10 BR   UNL     1      -4.609  -8.358  -0.026  0.00  0.00    -0.050 Br
ENDROOT
BRANCH   1  16
ATOM     11  C   UNL     1      -0.018   1.461   0.010  0.00  0.00    +0.140 C 
ATOM     12  N   UNL     1       0.002  -0.004   0.002  0.00  0.00    -0.248 N 
ATOM     13  C   UNL     1      -1.083  -0.809   0.003  0.00  0.00    +0.270 C 
ATOM     14  O   UNL     1      -2.253  -0.470   0.009  0.00  0.00    -0.268 OA
ATOM     15  C   UNL     1      -0.555  -2.180  -0.007  0.00  0.00    +0.129 C 
ATOM     16  C   UNL     1      -1.285  -3.352  -0.011  0.00  0.00    +0.043 C 
ATOM     17  N   UNL     1       0.808  -2.058  -0.013  0.00  0.00    -0.220 NA
ATOM     18  C   UNL     1       1.125  -0.791  -0.013  0.00  0.00    +0.174 C 
ATOM     19  S   UNL     1       2.776  -0.175  -0.027  0.00  0.00    -0.013 SA
ENDBRANCH   1  16
BRANCH   3  20
ATOM     20  C   UNL     1       2.334  -6.743  -0.036  0.00  0.00    +0.217 C 
BRANCH  20  21
ATOM     21  C   UNL     1       2.743  -7.049  -1.454  0.00  0.00    +0.233 C 
ATOM     22  O   UNL     1       1.990  -6.794  -2.370  0.00  0.00    -0.274 OA
ATOM     23  N   UNL     1       3.944  -7.607  -1.703  0.00  0.00    -0.312 N 
ATOM     24  H   UNL     1       4.546  -7.811  -0.970  0.00  0.00    +0.149 HD
BRANCH  23  25
ATOM     25  C   UNL     1       4.341  -7.904  -3.082  0.00  0.00    +0.132 C 
BRANCH  25  26
ATOM     26  C   UNL     1       5.739  -8.528  -3.086  0.00  0.00    +0.178 C 
BRANCH  26  27
ATOM     27  O   UNL     1       5.698  -9.793  -2.423  0.00  0.00    -0.381 OA
ATOM     28  C   UNL     1       6.959 -10.463  -2.371  0.00  0.00    +0.194 C 
ENDBRANCH  26  27
ENDBRANCH  25  26
ENDBRANCH  23  25
ENDBRANCH  20  21
ENDBRANCH   3  20
TORSDOF 6
