REMARK  Name = ZINC01317656
REMARK  7 active torsions:
REMARK  status: ('A' for Active; 'I' for Inactive)
REMARK    1  A    between atoms: C_1  and  C_2
REMARK    2  A    between atoms: N_5  and  C_8
REMARK    3  A    between atoms: C_8  and  C_9
REMARK    4  A    between atoms: C_10  and  O_28
REMARK    5  A    between atoms: C_18  and  C_20
REMARK    6  A    between atoms: C_23  and  O_26
REMARK    7  A    between atoms: O_26  and  C_27
REMARK                            x       y       z     vdW  Elec       q    Type
REMARK                         _______ _______ _______ _____ _____    ______ ____
ROOT
ATOM      1  C   UNL     1      -0.143  -4.380   2.730  0.00  0.00    +0.020 A 
ATOM      2  C   UNL     1       1.216  -4.641   2.814  0.00  0.00    +0.122 A 
ATOM      3  C   UNL     1       1.785  -5.032   4.024  0.00  0.00    +0.046 A 
ATOM      4  C   UNL     1       1.012  -5.175   5.139  0.00  0.00    +0.015 A 
ATOM      5  C   UNL     1      -0.367  -4.939   5.068  0.00  0.00    +0.019 A 
ATOM      6  C   UNL     1      -0.940  -4.510   3.855  0.00  0.00    +0.144 A 
ATOM      7  O   UNL     1      -2.261  -4.210   3.799  0.00  0.00    -0.421 OA
ATOM      8  C   UNL     1      -3.065  -4.837   4.689  0.00  0.00    +0.345 A 
ATOM      9  O   UNL     1      -4.178  -5.217   4.372  0.00  0.00    -0.245 OA
ATOM     10  C   UNL     1      -2.550  -5.045   6.052  0.00  0.00    +0.067 A 
ATOM     11  C   UNL     1      -1.190  -5.117   6.211  0.00  0.00    +0.027 A 
ENDROOT
BRANCH  10  12
ATOM     12  C   UNL     1      -3.468  -5.184   7.207  0.00  0.00    -0.011 A 
ATOM     13  C   UNL     1      -3.527  -6.386   7.912  0.00  0.00    +0.012 A 
ATOM     14  C   UNL     1      -4.382  -6.511   8.987  0.00  0.00    +0.046 A 
ATOM     15  C   UNL     1      -5.185  -5.443   9.366  0.00  0.00    +0.120 A 
ATOM     16  C   UNL     1      -5.129  -4.246   8.665  0.00  0.00    +0.046 A 
ATOM     17  C   UNL     1      -4.271  -4.111   7.594  0.00  0.00    +0.012 A 
BRANCH  15  18
ATOM     18  O   UNL     1      -6.027  -5.570  10.425  0.00  0.00    -0.495 OA
ATOM     19  C   UNL     1      -6.824  -4.433  10.760  0.00  0.00    +0.277 C 
ENDBRANCH  15  18
ENDBRANCH  10  12
BRANCH   2  20
ATOM     20  O   UNL     1       1.996  -4.515   1.711  0.00  0.00    -0.506 OA
ATOM     21  H   UNL     1       2.372  -3.632   1.594  0.00  0.00    +0.292 HD
ENDBRANCH   2  20
BRANCH   1  22
ATOM     22  C   UNL     1      -0.750  -3.952   1.419  0.00  0.00    -0.036 C 
BRANCH  22  27
ATOM     23  C   UNL     1      -0.019   1.526   0.010  0.00  0.00    +0.007 C 
ATOM     24  C   UNL     1       0.002  -0.004   0.002  0.00  0.00    -0.018 C 
ATOM     25  C   UNL     1      -1.434  -0.536   0.023  0.00  0.00    -0.016 C 
ATOM     26  C   UNL     1      -1.405  -2.064   0.095  0.00  0.00    -0.078 C 
ATOM     27  N   UNL     1      -0.707  -2.487   1.315  0.00  0.00    +0.383 N 
ATOM     28  C   UNL     1       0.691  -2.042   1.269  0.00  0.00    -0.078 C 
ATOM     29  C   UNL     1       0.743  -0.513   1.242  0.00  0.00    -0.016 C 
ATOM     30  H   UNL     1      -1.162  -2.082   2.119  0.00  0.00    -0.081 HD
ENDBRANCH  22  27
ENDBRANCH   1  22
TORSDOF 5
