REMARK  Name = ZINC03000327
REMARK  6 active torsions:
REMARK  status: ('A' for Active; 'I' for Inactive)
REMARK    1  A    between atoms: C_1  and  C_2
REMARK    2  A    between atoms: C_7  and  N_8
REMARK    3  A    between atoms: C_12  and  C_13
REMARK    4  A    between atoms: C_16  and  O_19
REMARK    5  A    between atoms: O_19  and  S_20
REMARK    6  A    between atoms: S_20  and  C_23
REMARK                            x       y       z     vdW  Elec       q    Type
REMARK                         _______ _______ _______ _____ _____    ______ ____
ROOT
ATOM      1  C   UNL     1      -4.426   0.640  -3.144  0.00  0.00    -0.024 A 
ATOM      2  C   UNL     1      -5.087   1.205  -2.046  0.00  0.00    +0.011 A 
ATOM      3  C   UNL     1      -4.450   2.150  -1.274  0.00  0.00    +0.049 A 
ATOM      4  C   UNL     1      -3.153   2.543  -1.582  0.00  0.00    +0.157 A 
ATOM      5  C   UNL     1      -2.494   1.990  -2.674  0.00  0.00    +0.049 A 
ATOM      6  C   UNL     1      -3.120   1.041  -3.450  0.00  0.00    +0.011 A 
ENDROOT
BRANCH   1  11
ATOM      7  N   UNL     1      -4.182  -2.070  -7.107  0.00  0.00    -0.223 N 
ATOM      8  C   UNL     1      -4.926  -1.889  -6.029  0.00  0.00    +0.263 C 
ATOM      9  O   UNL     1      -5.885  -2.598  -5.787  0.00  0.00    -0.269 OA
ATOM     10  C   UNL     1      -4.533  -0.784  -5.132  0.00  0.00    +0.077 C 
ATOM     11  C   UNL     1      -5.100  -0.369  -3.971  0.00  0.00    +0.028 C 
ATOM     12  S   UNL     1      -3.109  -0.139  -5.999  0.00  0.00    -0.061 S 
ATOM     13  C   UNL     1      -3.120  -1.282  -7.371  0.00  0.00    +0.125 C 
ATOM     14  S   UNL     1      -2.045  -1.357  -8.701  0.00  0.00    -0.027 S 
BRANCH   7  21
ATOM     15  C   UNL     1      -3.004  -4.627  -6.686  0.00  0.00    +0.045 C 
ATOM     16  C   UNL     1      -3.954  -4.366  -7.827  0.00  0.00    -0.029 A 
ATOM     17  C   UNL     1      -4.279  -5.384  -8.702  0.00  0.00    +0.005 A 
ATOM     18  C   UNL     1      -5.145  -5.143  -9.753  0.00  0.00    +0.000 A 
ATOM     19  C   UNL     1      -5.692  -3.885  -9.928  0.00  0.00    +0.002 A 
ATOM     20  C   UNL     1      -5.375  -2.865  -9.053  0.00  0.00    +0.024 A 
ATOM     21  C   UNL     1      -4.506  -3.103  -7.997  0.00  0.00    +0.045 A 
ENDBRANCH   7  21
ENDBRANCH   1  11
BRANCH   4  22
ATOM     22  O   UNL     1      -2.529   3.475  -0.817  0.00  0.00    -0.342 OA
BRANCH  22  23
ATOM     23  S   UNL     1      -1.744   2.894   0.351  0.00  0.00    +0.151 S 
ATOM     24  O   UNL     1      -2.519   1.819   0.865  0.00  0.00    -0.131 OA
ATOM     25  O   UNL     1      -1.338   3.993   1.154  0.00  0.00    -0.131 OA
BRANCH  23  26
ATOM     26  C   UNL     1      -0.275   2.183  -0.312  0.00  0.00    +0.128 A 
ATOM     27  C   UNL     1      -0.268   0.861  -0.716  0.00  0.00    +0.030 A 
ATOM     28  C   UNL     1       0.887   0.302  -1.231  0.00  0.00    +0.002 A 
ATOM     29  C   UNL     1       2.031   1.068  -1.352  0.00  0.00    +0.000 A 
ATOM     30  C   UNL     1       2.023   2.391  -0.953  0.00  0.00    +0.002 A 
ATOM     31  C   UNL     1       0.870   2.949  -0.433  0.00  0.00    +0.030 A 
ENDBRANCH  23  26
ENDBRANCH  22  23
ENDBRANCH   4  22
TORSDOF 5
