REMARK  Name = ZINC33516473
REMARK  11 active torsions:
REMARK  status: ('A' for Active; 'I' for Inactive)
REMARK    1  A    between atoms: C_4  and  C_7
REMARK    2  A    between atoms: C_7  and  O_8
REMARK    3  A    between atoms: O_8  and  C_9
REMARK    4  A    between atoms: C_9  and  C_10
REMARK    5  A    between atoms: C_10  and  C_12
REMARK    6  A    between atoms: C_10  and  O_33
REMARK    7  A    between atoms: C_12  and  N_13
REMARK    8  A    between atoms: C_16  and  C_19
REMARK    9  A    between atoms: N_21  and  N_22
REMARK   10  A    between atoms: C_23  and  C_24
REMARK   11  A    between atoms: C_27  and  N_30
REMARK                            x       y       z     vdW  Elec       q    Type
REMARK                         _______ _______ _______ _____ _____    ______ ____
ROOT
ATOM      1  N   UNL     1      -9.810   0.203  -1.407  0.00  0.00    +0.381 N 
ATOM      2  C   UNL     1      -9.559   0.919  -0.149  0.00  0.00    -0.078 C 
ATOM      3  C   UNL     1      -8.242   1.691  -0.255  0.00  0.00    -0.006 C 
ATOM      4  C   UNL     1      -7.102   0.710  -0.542  0.00  0.00    +0.073 C 
ATOM      5  C   UNL     1      -7.412  -0.056  -1.831  0.00  0.00    -0.006 C 
ATOM      6  C   UNL     1      -8.752  -0.778  -1.680  0.00  0.00    -0.078 C 
ATOM      7  H   UNL     1      -9.800   0.942  -2.221  0.00  0.00    -0.082 HD
ENDROOT
BRANCH   4   8
ATOM      8  C   UNL     1      -5.812   1.472  -0.707  0.00  0.00    +0.235 C 
ATOM      9  O   UNL     1      -5.803   2.680  -0.605  0.00  0.00    -0.274 OA
ATOM     10  N   UNL     1      -4.667   0.810  -0.968  0.00  0.00    -0.207 N 
ATOM     11  H   UNL     1      -4.675  -0.286  -1.061  0.00  0.00    +0.177 HD
BRANCH  10  12
ATOM     12  N   UNL     1      -3.468   1.518  -1.121  0.00  0.00    -0.188 NA
ATOM     13  C   UNL     1      -2.366   0.880  -1.373  0.00  0.00    +0.138 C 
BRANCH  13  14
ATOM     14  C   UNL     1      -1.103   1.625  -1.534  0.00  0.00    -0.005 A 
ATOM     15  C   UNL     1       0.085   0.943  -1.804  0.00  0.00    +0.012 A 
ATOM     16  C   UNL     1       1.261   1.647  -1.960  0.00  0.00    +0.033 A 
ATOM     17  C   UNL     1       1.266   3.025  -1.843  0.00  0.00    +0.126 A 
ATOM     18  C   UNL     1       0.094   3.708  -1.569  0.00  0.00    +0.033 A 
ATOM     19  C   UNL     1      -1.089   3.017  -1.411  0.00  0.00    +0.012 A 
BRANCH  17  20
ATOM     20  N   UNL     1       2.532   3.774  -2.012  0.00  0.00    +0.056 N 
ATOM     21  O   UNL     1       3.566   3.176  -2.253  0.00  0.00    -0.126 OA
ATOM     22  O   UNL     1       2.540   4.988  -1.909  0.00  0.00    -0.126 OA
ENDBRANCH  17  20
ENDBRANCH  13  14
ENDBRANCH  10  12
ENDBRANCH   4   8
BRANCH   1  23
ATOM     23  C   UNL     1     -11.132  -0.438  -1.392  0.00  0.00    -0.045 C 
BRANCH  23  24
ATOM     24  C   UNL     1     -12.215   0.622  -1.606  0.00  0.00    +0.124 C 
BRANCH  24  25
ATOM     25  O   UNL     1     -12.047   1.221  -2.893  0.00  0.00    -0.391 OA
ATOM     26  H   UNL     1     -11.111   1.744  -3.138  0.00  0.00    +0.210 HD
ENDBRANCH  24  25
BRANCH  24  27
ATOM     27  C   UNL     1     -13.594  -0.035  -1.525  0.00  0.00    +0.189 C 
BRANCH  27  28
ATOM     28  O   UNL     1     -14.606   0.970  -1.609  0.00  0.00    -0.373 OA
BRANCH  28  29
ATOM     29  C   UNL     1     -15.939   0.460  -1.542  0.00  0.00    +0.195 C 
BRANCH  29  33
ATOM     30  C   UNL     1     -18.717   3.694  -1.816  0.00  0.00    +0.000 A 
ATOM     31  C   UNL     1     -18.283   3.056  -2.963  0.00  0.00    +0.000 A 
ATOM     32  C   UNL     1     -17.384   2.010  -2.875  0.00  0.00    +0.006 A 
ATOM     33  C   UNL     1     -16.919   1.601  -1.639  0.00  0.00    -0.022 A 
ATOM     34  C   UNL     1     -17.357   2.235  -0.491  0.00  0.00    +0.006 A 
ATOM     35  C   UNL     1     -18.252   3.285  -0.580  0.00  0.00    +0.000 A 
ENDBRANCH  29  33
ENDBRANCH  28  29
ENDBRANCH  27  28
ENDBRANCH  24  27
ENDBRANCH  23  24
ENDBRANCH   1  23
TORSDOF 11
