REMARK  Name = ZINC33522340
REMARK  8 active torsions:
REMARK  status: ('A' for Active; 'I' for Inactive)
REMARK    1  A    between atoms: C_1  and  O_2
REMARK    2  A    between atoms: O_2  and  C_3
REMARK    3  A    between atoms: C_10  and  C_12
REMARK    4  A    between atoms: C_12  and  C_14
REMARK    5  A    between atoms: N_18  and  C_28
REMARK    6  A    between atoms: C_19  and  C_21
REMARK    7  A    between atoms: C_24  and  O_27
REMARK    8  A    between atoms: C_28  and  C_29
REMARK                            x       y       z     vdW  Elec       q    Type
REMARK                         _______ _______ _______ _____ _____    ______ ____
ROOT
ATOM      1  C   UNL     1       1.531   2.598   0.142  0.00  0.00    +0.079 C 
ATOM      2  C   UNL     1       1.530   1.272  -0.127  0.00  0.00    +0.249 C 
ATOM      3  C   UNL     1       2.925   0.793  -0.212  0.00  0.00    +0.288 C 
ATOM      4  O   UNL     1       3.255  -0.354  -0.438  0.00  0.00    -0.266 OA
ATOM      5  N   UNL     1       3.775   1.815  -0.006  0.00  0.00    -0.276 N 
ATOM      6  C   UNL     1       2.978   3.023   0.235  0.00  0.00    +0.145 C 
ATOM      7  O   UNL     1       0.427   0.505  -0.288  0.00  0.00    -0.282 OA
ENDROOT
BRANCH   6   8
ATOM      8  C   UNL     1       3.270   3.572   1.608  0.00  0.00    -0.022 A 
ATOM      9  C   UNL     1       3.314   2.721   2.697  0.00  0.00    +0.009 A 
ATOM     10  C   UNL     1       3.587   3.221   3.955  0.00  0.00    +0.046 A 
ATOM     11  C   UNL     1       3.804   4.580   4.129  0.00  0.00    +0.117 A 
ATOM     12  C   UNL     1       3.753   5.433   3.036  0.00  0.00    +0.046 A 
ATOM     13  C   UNL     1       3.487   4.927   1.778  0.00  0.00    +0.009 A 
BRANCH  11  14
ATOM     14  O   UNL     1       4.066   5.075   5.367  0.00  0.00    -0.507 OA
ATOM     15  H   UNL     1       4.239   6.153   5.503  0.00  0.00    +0.292 HD
ENDBRANCH  11  14
ENDBRANCH   6   8
BRANCH   1  16
ATOM     16  C   UNL     1       0.354   3.458   0.311  0.00  0.00    +0.230 C 
ATOM     17  O   UNL     1      -0.401   3.278   1.249  0.00  0.00    -0.283 OA
BRANCH  16  25
ATOM     18  C   UNL     1       0.652   6.446  -3.644  0.00  0.00    +0.163 A 
ATOM     19  C   UNL     1      -0.061   7.547  -4.081  0.00  0.00    +0.049 A 
ATOM     20  C   UNL     1      -1.131   8.036  -3.345  0.00  0.00    +0.004 A 
ATOM     21  C   UNL     1      -1.498   7.437  -2.173  0.00  0.00    +0.012 A 
ATOM     22  C   UNL     1      -0.790   6.323  -1.711  0.00  0.00    +0.025 A 
ATOM     23  C   UNL     1       0.295   5.820  -2.451  0.00  0.00    +0.177 A 
ATOM     24  O   UNL     1       0.790   4.760  -1.780  0.00  0.00    -0.448 OA
ATOM     25  C   UNL     1       0.087   4.535  -0.651  0.00  0.00    +0.176 A 
ATOM     26  C   UNL     1      -0.904   5.461  -0.536  0.00  0.00    +0.062 A 
BRANCH  18  28
ATOM     27  C   UNL     1       2.007   6.670  -5.585  0.00  0.00    +0.277 C 
ATOM     28  O   UNL     1       1.699   5.977  -4.374  0.00  0.00    -0.491 OA
ENDBRANCH  18  28
ENDBRANCH  16  25
ENDBRANCH   1  16
BRANCH   5  29
ATOM     29  C   UNL     1       5.238   1.735  -0.016  0.00  0.00    +0.183 C 
BRANCH  29  30
ATOM     30  C   UNL     1       5.734   1.425   1.373  0.00  0.00    +0.122 A 
ATOM     31  C   UNL     1       5.927   0.196   1.883  0.00  0.00    +0.046 A 
ATOM     32  C   UNL     1       6.397   0.370   3.205  0.00  0.00    +0.041 A 
ATOM     33  C   UNL     1       6.454   1.695   3.427  0.00  0.00    +0.195 A 
ATOM     34  O   UNL     1       6.051   2.329   2.313  0.00  0.00    -0.466 OA
ENDBRANCH  29  30
ENDBRANCH   5  29
TORSDOF 7
