REMARK  Name = ZINC40039741
REMARK  7 active torsions:
REMARK  status: ('A' for Active; 'I' for Inactive)
REMARK    1  A    between atoms: C_3  and  C_6
REMARK    2  A    between atoms: C_9  and  S_15
REMARK    3  A    between atoms: N_10  and  C_11
REMARK    4  A    between atoms: C_11  and  C_12
REMARK    5  A    between atoms: S_15  and  C_16
REMARK    6  A    between atoms: C_16  and  C_17
REMARK    7  A    between atoms: N_19  and  C_20
REMARK                            x       y       z     vdW  Elec       q    Type
REMARK                         _______ _______ _______ _____ _____    ______ ____
ROOT
ATOM      1  C   UNL     1       3.736   1.816  -0.047  0.00  0.00    +0.172 A 
ATOM      2  N   UNL     1       4.128   3.042  -0.317  0.00  0.00    -0.128 NA
ATOM      3  N   UNL     1       5.408   3.122  -0.230  0.00  0.00    -0.122 NA
ATOM      4  C   UNL     1       5.913   1.955   0.101  0.00  0.00    +0.193 A 
ATOM      5  N   UNL     1       4.868   1.084   0.235  0.00  0.00    -0.293 N 
ENDROOT
BRANCH   1   8
ATOM      6  C   UNL     1      -0.015   1.347  -0.029  0.00  0.00    +0.008 A 
ATOM      7  C   UNL     1       1.178   2.035  -0.035  0.00  0.00    +0.019 A 
ATOM      8  C   UNL     1       2.350   1.322  -0.040  0.00  0.00    +0.056 A 
ATOM      9  S   UNL     1       1.755  -0.361  -0.037  0.00  0.00    -0.094 S 
ATOM     10  C   UNL     1       0.005  -0.011  -0.029  0.00  0.00    +0.046 A 
ENDBRANCH   1   8
BRANCH   5  11
ATOM     11  C   UNL     1       4.938  -0.334   0.599  0.00  0.00    +0.221 C 
BRANCH  11  12
ATOM     12  C   UNL     1       5.079  -1.166  -0.650  0.00  0.00    +0.230 C 
ATOM     13  O   UNL     1       5.118  -0.629  -1.736  0.00  0.00    -0.274 OA
ATOM     14  N   UNL     1       5.163  -2.508  -0.559  0.00  0.00    -0.328 N 
ATOM     15  H   UNL     1       5.132  -2.938   0.310  0.00  0.00    +0.145 HD
ATOM     16  H   UNL     1       5.254  -3.044  -1.362  0.00  0.00    +0.145 HD
ENDBRANCH  11  12
ENDBRANCH   5  11
BRANCH   4  17
ATOM     17  S   UNL     1       7.620   1.584   0.335  0.00  0.00    -0.077 S 
BRANCH  17  18
ATOM     18  C   UNL     1       8.459   3.160   0.016  0.00  0.00    +0.173 C 
BRANCH  18  19
ATOM     19  C   UNL     1       9.946   2.981   0.185  0.00  0.00    +0.227 C 
ATOM     20  O   UNL     1      10.395   1.896   0.490  0.00  0.00    -0.275 OA
ATOM     21  N   UNL     1      10.777   4.025  -0.004  0.00  0.00    -0.285 N 
ATOM     22  H   UNL     1      10.425   4.875  -0.313  0.00  0.00    +0.155 HD
BRANCH  21  23
ATOM     23  C   UNL     1      12.146   3.884   0.246  0.00  0.00    +0.033 A 
ATOM     24  C   UNL     1      12.871   4.947   0.771  0.00  0.00    +0.024 A 
ATOM     25  C   UNL     1      14.222   4.804   1.017  0.00  0.00    +0.016 A 
ATOM     26  C   UNL     1      14.854   3.605   0.742  0.00  0.00    +0.013 A 
ATOM     27  C   UNL     1      14.135   2.545   0.220  0.00  0.00    +0.016 A 
ATOM     28  C   UNL     1      12.782   2.679  -0.023  0.00  0.00    +0.024 A 
ATOM     29  I   UNL     1      16.905   3.394   1.116  0.00  0.00    -0.044 I 
ENDBRANCH  21  23
ENDBRANCH  18  19
ENDBRANCH  17  18
ENDBRANCH   4  17
TORSDOF 7
