REMARK  Name = ZINC04382977
REMARK  5 active torsions:
REMARK  status: ('A' for Active; 'I' for Inactive)
REMARK    1  A    between atoms: C_4  and  O_7
REMARK    2  A    between atoms: O_7  and  C_8
REMARK    3  A    between atoms: C_8  and  N_18
REMARK    4  A    between atoms: N_9  and  C_10
REMARK    5  A    between atoms: N_18  and  C_19
REMARK                            x       y       z     vdW  Elec       q    Type
REMARK                         _______ _______ _______ _____ _____    ______ ____
ROOT
ATOM      1  C   UNL     1      -1.107   1.571   0.303  0.00  0.00    +0.323 C 
ATOM      2  N   UNL     1      -2.023   0.731  -0.113  0.00  0.00    -0.197 NA
ENDROOT
BRANCH   2   3
ATOM      3  C   UNL     1      -1.771  -0.616  -0.106  0.00  0.00    +0.072 A 
ATOM      4  C   UNL     1      -0.660  -1.124  -0.781  0.00  0.00    +0.048 A 
ATOM      5  C   UNL     1      -0.408  -2.481  -0.767  0.00  0.00    +0.044 A 
ATOM      6  C   UNL     1      -1.262  -3.339  -0.094  0.00  0.00    +0.040 A 
ATOM      7  C   UNL     1      -2.369  -2.842   0.573  0.00  0.00    +0.044 A 
ATOM      8  C   UNL     1      -2.628  -1.485   0.570  0.00  0.00    +0.048 A 
ATOM      9 CL   UNL     1      -3.432  -3.925   1.415  0.00  0.00    -0.083 Cl
ATOM     10 CL   UNL     1       0.977  -3.115  -1.599  0.00  0.00    -0.083 Cl
ENDBRANCH   2   3
BRANCH   1  11
ATOM     11  O   UNL     1      -1.302   2.901   0.173  0.00  0.00    -0.425 OA
BRANCH  11  15
ATOM     12  C   UNL     1      -4.951   4.194  -1.252  0.00  0.00    +0.000 A 
ATOM     13  C   UNL     1      -4.869   3.596  -0.008  0.00  0.00    +0.004 A 
ATOM     14  C   UNL     1      -3.648   3.162   0.471  0.00  0.00    +0.046 A 
ATOM     15  C   UNL     1      -2.504   3.327  -0.296  0.00  0.00    +0.132 A 
ATOM     16  C   UNL     1      -2.589   3.933  -1.541  0.00  0.00    +0.046 A 
ATOM     17  C   UNL     1      -3.813   4.360  -2.019  0.00  0.00    +0.004 A 
ENDBRANCH  11  15
ENDBRANCH   1  11
BRANCH   1  18
ATOM     18  N   UNL     1       0.052   1.097   0.872  0.00  0.00    -0.086 NA
BRANCH  18  19
ATOM     19  C   UNL     1       0.992   1.966   1.318  0.00  0.00    +0.197 C 
ATOM     20  N   UNL     1       1.779   2.694   1.692  0.00  0.00    -0.172 NA
ENDBRANCH  18  19
ENDBRANCH   1  18
TORSDOF 5
