REMARK  Name = ZINC15936719
REMARK  8 active torsions:
REMARK  status: ('A' for Active; 'I' for Inactive)
REMARK    1  A    between atoms: C_1  and  C_2
REMARK    2  A    between atoms: C_7  and  S_15
REMARK    3  A    between atoms: C_12  and  C_14
REMARK    4  A    between atoms: S_15  and  N_18
REMARK    5  A    between atoms: N_18  and  C_19
REMARK    6  A    between atoms: C_19  and  C_21
REMARK    7  A    between atoms: C_19  and  C_25
REMARK    8  A    between atoms: C_21  and  C_22
REMARK                            x       y       z     vdW  Elec       q    Type
REMARK                         _______ _______ _______ _____ _____    ______ ____
ROOT
ATOM      1  S   UNL     1       5.838  -4.083  -2.027  0.00  0.00    +0.059 S 
ATOM      2  O   UNL     1       6.389  -5.248  -1.428  0.00  0.00    -0.153 OA
ATOM      3  O   UNL     1       5.150  -4.119  -3.270  0.00  0.00    -0.153 OA
ENDROOT
BRANCH   1   9
ATOM      4  C   UNL     1       1.023   0.518   1.174  0.00  0.00    +0.029 C 
ATOM      5  C   UNL     1       1.020  -0.982   0.875  0.00  0.00    +0.083 C 
ATOM      6  C   UNL     1       1.533  -1.243  -0.550  0.00  0.00    +0.059 C 
ATOM      7  C   UNL     1       2.768  -2.095  -0.360  0.00  0.00    -0.022 A 
ATOM      8  C   UNL     1       3.645  -2.636  -1.280  0.00  0.00    +0.034 A 
ATOM      9  C   UNL     1       4.719  -3.394  -0.853  0.00  0.00    +0.106 A 
ATOM     10  C   UNL     1       4.914  -3.610   0.499  0.00  0.00    +0.030 A 
ATOM     11  C   UNL     1       4.041  -3.073   1.421  0.00  0.00    +0.026 A 
ATOM     12  C   UNL     1       2.954  -2.306   0.996  0.00  0.00    +0.040 A 
ATOM     13  N   UNL     1       1.960  -1.679   1.758  0.00  0.00    -0.268 N 
ATOM     14  C   UNL     1       1.880  -1.708   3.103  0.00  0.00    +0.217 C 
ATOM     15  O   UNL     1       2.762  -2.229   3.752  0.00  0.00    -0.276 OA
ATOM     16  C   UNL     1       0.694  -1.094   3.801  0.00  0.00    +0.109 C 
ENDBRANCH   1   9
BRANCH   1  17
ATOM     17  N   UNL     1       7.084  -3.008  -2.206  0.00  0.00    -0.182 NA
ATOM     18  H   UNL     1       7.226  -2.567  -3.059  0.00  0.00    +0.149 HD
BRANCH  17  19
ATOM     19  C   UNL     1       7.972  -2.722  -1.077  0.00  0.00    +0.117 C 
BRANCH  19  20
ATOM     20  C   UNL     1       9.184  -3.615  -1.152  0.00  0.00    -0.028 A 
ATOM     21  C   UNL     1       9.778  -3.872  -2.374  0.00  0.00    +0.006 A 
ATOM     22  C   UNL     1      10.890  -4.691  -2.443  0.00  0.00    +0.015 A 
ATOM     23  C   UNL     1      11.407  -5.253  -1.290  0.00  0.00    +0.018 A 
ATOM     24  C   UNL     1      10.812  -4.996  -0.068  0.00  0.00    +0.015 A 
ATOM     25  C   UNL     1       9.704  -4.173   0.001  0.00  0.00    +0.006 A 
ATOM     26 BR   UNL     1      12.927  -6.374  -1.384  0.00  0.00    -0.050 Br
ENDBRANCH  19  20
BRANCH  19  27
ATOM     27  C   UNL     1       8.414  -1.258  -1.134  0.00  0.00    +0.150 C 
BRANCH  27  28
ATOM     28  C   UNL     1       7.220  -0.364  -0.918  0.00  0.00    +0.358 C 
ATOM     29  O   UNL     1       6.141  -0.850  -0.623  0.00  0.00    -0.246 OA
ATOM     30  O   UNL     1       7.333   0.844  -1.037  0.00  0.00    -0.246 OA
ENDBRANCH  27  28
ENDBRANCH  19  27
ENDBRANCH  17  19
ENDBRANCH   1  17
TORSDOF 6
