REMARK  Name = ZINC09803585
REMARK  11 active torsions:
REMARK  status: ('A' for Active; 'I' for Inactive)
REMARK    1  A    between atoms: C_1  and  C_2
REMARK    2  A    between atoms: C_5  and  N_8
REMARK    3  A    between atoms: C_16  and  S_17
REMARK    4  A    between atoms: S_17  and  C_18
REMARK    5  A    between atoms: C_18  and  C_19
REMARK    6  A    between atoms: C_19  and  C_21
REMARK    7  A    between atoms: C_22  and  N_34
REMARK    8  A    between atoms: N_23  and  C_30
REMARK    9  A    between atoms: C_30  and  C_31
REMARK   10  A    between atoms: C_31  and  O_32
REMARK   11  A    between atoms: O_32  and  C_33
REMARK                            x       y       z     vdW  Elec       q    Type
REMARK                         _______ _______ _______ _____ _____    ______ ____
ROOT
ATOM      1  C   UNL     1      -4.721   3.034  -3.903  0.00  0.00    +0.157 C 
ENDROOT
BRANCH   1   2
ATOM      2  C   UNL     1      -4.135   2.613  -2.580  0.00  0.00    +0.182 C 
ATOM      3  O   UNL     1      -4.274   3.319  -1.602  0.00  0.00    -0.291 OA
BRANCH   2   4
ATOM      4  C   UNL     1      -3.424   1.398  -2.478  0.00  0.00    +0.120 A 
ATOM      5  C   UNL     1      -2.764   1.042  -1.289  0.00  0.00    +0.116 A 
ATOM      6  N   UNL     1      -2.085  -0.142  -1.240  0.00  0.00    -0.279 N 
ATOM      7  C   UNL     1      -2.046  -0.968  -2.297  0.00  0.00    +0.331 A 
ATOM      8  O   UNL     1      -1.431  -2.013  -2.201  0.00  0.00    -0.246 OA
ATOM      9  N   UNL     1      -2.660  -0.683  -3.457  0.00  0.00    -0.274 N 
ATOM     10  H   UNL     1      -2.602  -1.329  -4.218  0.00  0.00    +0.173 HD
ATOM     11  C   UNL     1      -3.353   0.464  -3.609  0.00  0.00    +0.266 A 
ATOM     12  O   UNL     1      -3.909   0.720  -4.661  0.00  0.00    -0.267 OA
BRANCH   5  13
ATOM     13  N   UNL     1      -2.798   1.865  -0.206  0.00  0.00    -0.344 N 
ATOM     14  H   UNL     1      -2.944   2.816  -0.324  0.00  0.00    +0.144 HD
ATOM     15  H   UNL     1      -2.675   1.500   0.684  0.00  0.00    +0.144 HD
ENDBRANCH   5  13
BRANCH   6  16
ATOM     16  C   UNL     1      -1.390  -0.521  -0.007  0.00  0.00    +0.156 C 
BRANCH  16  17
ATOM     17  C   UNL     1       0.046   0.006  -0.048  0.00  0.00    +0.181 C 
BRANCH  17  18
ATOM     18  O   UNL     1       0.029   1.435  -0.049  0.00  0.00    -0.381 OA
ATOM     19  C   UNL     1       1.327   2.031  -0.086  0.00  0.00    +0.194 C 
ENDBRANCH  17  18
ENDBRANCH  16  17
ENDBRANCH   6  16
ENDBRANCH   2   4
ENDBRANCH   1   2
BRANCH   1  20
ATOM     20  S   UNL     1      -5.565   4.623  -3.710  0.00  0.00    -0.079 S 
BRANCH  20  29
ATOM     21  N   UNL     1      -6.860   5.948  -5.789  0.00  0.00    -0.287 N 
ATOM     22  C   UNL     1      -7.110   5.761  -7.141  0.00  0.00    +0.074 A 
ATOM     23  C   UNL     1      -7.780   6.499  -8.105  0.00  0.00    +0.028 A 
ATOM     24  C   UNL     1      -7.855   6.028  -9.400  0.00  0.00    +0.002 A 
ATOM     25  C   UNL     1      -7.265   4.821  -9.744  0.00  0.00    +0.002 A 
ATOM     26  C   UNL     1      -6.596   4.076  -8.799  0.00  0.00    +0.030 A 
ATOM     27  C   UNL     1      -6.511   4.538  -7.484  0.00  0.00    +0.091 A 
ATOM     28  N   UNL     1      -5.931   4.045  -6.358  0.00  0.00    -0.222 NA
ATOM     29  C   UNL     1      -6.138   4.868  -5.359  0.00  0.00    +0.175 A 
BRANCH  21  34
ATOM     30  C   UNL     1      -8.520  10.364  -2.635  0.00  0.00    +0.044 C 
ATOM     31  C   UNL     1      -8.079   9.191  -3.472  0.00  0.00    -0.050 A 
ATOM     32  C   UNL     1      -6.732   8.968  -3.693  0.00  0.00    +0.005 A 
ATOM     33  C   UNL     1      -6.325   7.894  -4.460  0.00  0.00    +0.026 A 
ATOM     34  C   UNL     1      -7.270   7.038  -5.010  0.00  0.00    +0.049 A 
ATOM     35  C   UNL     1      -8.621   7.268  -4.792  0.00  0.00    +0.026 A 
ATOM     36  C   UNL     1      -9.022   8.340  -4.019  0.00  0.00    +0.005 A 
ENDBRANCH  21  34
ENDBRANCH  20  29
ENDBRANCH   1  20
TORSDOF 9
