REMARK  Name = ZINC23976400
REMARK  9 active torsions:
REMARK  status: ('A' for Active; 'I' for Inactive)
REMARK    1  A    between atoms: C_1  and  N_2
REMARK    2  A    between atoms: N_2  and  C_3
REMARK    3  A    between atoms: N_2  and  C_4
REMARK    4  A    between atoms: C_4  and  C_6
REMARK    5  A    between atoms: C_4  and  C_21
REMARK    6  A    between atoms: C_6  and  N_7
REMARK    7  A    between atoms: C_8  and  C_10
REMARK    8  A    between atoms: N_12  and  C_13
REMARK    9  A    between atoms: C_16  and  N_18
REMARK                            x       y       z     vdW  Elec       q    Type
REMARK                         _______ _______ _______ _____ _____    ______ ____
ROOT
ATOM      1  C   UNL     1      -0.735   2.379  -0.553  0.00  0.00    +0.094 C 
ENDROOT
BRANCH   1   2
ATOM      2  N   UNL     1      -0.575   2.136  -1.988  0.00  0.00    -0.309 N 
ATOM      3  C   UNL     1      -1.341   2.803  -2.874  0.00  0.00    +0.304 C 
ATOM      4  O   UNL     1      -2.164   3.604  -2.483  0.00  0.00    -0.265 OA
ATOM      5  H   UNL     1       0.171   1.409  -2.343  0.00  0.00    +0.149 HD
BRANCH   3   6
ATOM      6  C   UNL     1      -1.177   2.555  -4.338  0.00  0.00    +0.334 C 
ATOM      7  O   UNL     1      -0.354   1.754  -4.729  0.00  0.00    -0.260 OA
ATOM      8  N   UNL     1      -1.944   3.222  -5.224  0.00  0.00    -0.179 NA
BRANCH   8   9
ATOM      9  C   UNL     1      -1.792   2.992  -6.583  0.00  0.00    +0.198 A 
ATOM     10  N   UNL     1      -0.958   2.174  -7.198  0.00  0.00    -0.227 NA
ATOM     11  C   UNL     1      -0.946   2.072  -8.512  0.00  0.00    +0.153 A 
ATOM     12  C   UNL     1      -1.806   2.838  -9.228  0.00  0.00    +0.185 A 
ATOM     13  S   UNL     1      -2.644   3.712  -7.914  0.00  0.00    -0.024 S 
BRANCH  12  14
ATOM     14  N   UNL     1      -1.998   2.926 -10.693  0.00  0.00    +0.065 N 
ATOM     15  O   UNL     1      -1.320   2.241 -11.438  0.00  0.00    -0.126 OA
ATOM     16  O   UNL     1      -2.832   3.684 -11.154  0.00  0.00    -0.126 OA
ENDBRANCH  12  14
ENDBRANCH   8   9
ENDBRANCH   3   6
ENDBRANCH   1   2
BRANCH   1  17
ATOM     17  C   UNL     1       0.130   1.390   0.232  0.00  0.00    -0.020 C 
BRANCH  17  18
ATOM     18  C   UNL     1       0.065   1.721   1.700  0.00  0.00    -0.052 A 
ATOM     19  C   UNL     1      -0.782   1.037   2.518  0.00  0.00    +0.003 A 
ATOM     20  C   UNL     1      -0.856   1.328   3.879  0.00  0.00    +0.001 A 
ATOM     21  C   UNL     1      -0.084   2.305   4.430  0.00  0.00    +0.008 A 
ATOM     22  C   UNL     1       0.802   3.031   3.617  0.00  0.00    -0.018 A 
ATOM     23  C   UNL     1       0.881   2.732   2.234  0.00  0.00    -0.016 A 
ATOM     24  C   UNL     1       1.772   3.455   1.422  0.00  0.00    +0.009 A 
ATOM     25  C   UNL     1       2.548   4.427   1.974  0.00  0.00    +0.001 A 
ATOM     26  C   UNL     1       2.474   4.719   3.335  0.00  0.00    +0.001 A 
ATOM     27  C   UNL     1       1.616   4.046   4.150  0.00  0.00    +0.008 A 
ENDBRANCH  17  18
BRANCH  17  29
ATOM     28  C   UNL     1      -1.806   0.029  -0.278  0.00  0.00    -0.096 C 
ATOM     29  N   UNL     1      -0.367   0.025   0.014  0.00  0.00    +0.382 N 
ATOM     30  C   UNL     1       0.385  -0.645  -1.055  0.00  0.00    -0.096 C 
ATOM     31  H   UNL     1      -0.212  -0.543   0.943  0.00  0.00    -0.082 HD
ENDBRANCH  17  29
ENDBRANCH   1  17
TORSDOF 7
