REMARK  Name = ZINC19216618
REMARK  6 active torsions:
REMARK  status: ('A' for Active; 'I' for Inactive)
REMARK    1  A    between atoms: C_1  and  C_2
REMARK    2  A    between atoms: C_5  and  C_7
REMARK    3  A    between atoms: C_7  and  N_8
REMARK    4  A    between atoms: C_12  and  C_15
REMARK    5  A    between atoms: C_17  and  N_30
REMARK    6  A    between atoms: C_22  and  C_24
REMARK                            x       y       z     vdW  Elec       q    Type
REMARK                         _______ _______ _______ _____ _____    ______ ____
ROOT
ATOM      1  C   UNL     1       4.041  -0.630  -0.039  0.00  0.00    +0.048 A 
ATOM      2  C   UNL     1       3.265  -1.789  -0.038  0.00  0.00    +0.067 A 
ATOM      3  C   UNL     1       1.901  -1.684  -0.025  0.00  0.00    +0.122 A 
ATOM      4  N   UNL     1       1.332  -0.438  -0.013  0.00  0.00    -0.201 N 
ATOM      5  C   UNL     1       2.133   0.675  -0.015  0.00  0.00    +0.158 A 
ATOM      6  N   UNL     1       3.468   0.554  -0.028  0.00  0.00    -0.232 NA
ATOM      7  C   UNL     1       1.291   1.778  -0.001  0.00  0.00    +0.073 A 
ATOM      8  C   UNL     1      -0.016   1.309   0.009  0.00  0.00    +0.069 A 
ATOM      9  N   UNL     1       0.002  -0.004   0.002  0.00  0.00    -0.168 NA
ENDROOT
BRANCH   1  14
ATOM     10  N   UNL     1       7.495  -1.013  -1.509  0.00  0.00    +0.385 N 
ATOM     11  C   UNL     1       7.934  -2.205  -0.772  0.00  0.00    -0.078 C 
ATOM     12  C   UNL     1       7.503  -2.089   0.692  0.00  0.00    -0.018 C 
ATOM     13  C   UNL     1       5.980  -1.955   0.762  0.00  0.00    +0.006 C 
ATOM     14  C   UNL     1       5.544  -0.735  -0.054  0.00  0.00    +0.021 C 
ATOM     15  C   UNL     1       6.032  -0.890  -1.496  0.00  0.00    -0.069 C 
ATOM     16  H   UNL     1       7.910  -0.132  -0.998  0.00  0.00    -0.081 HD
BRANCH  10  17
ATOM     17  C   UNL     1       8.010  -1.025  -2.884  0.00  0.00    -0.003 C 
BRANCH  17  22
ATOM     18  C   UNL     1      13.034  -0.618  -2.703  0.00  0.00    +0.086 C 
ATOM     19  C   UNL     1      11.655  -1.219  -2.792  0.00  0.00    +0.102 A 
ATOM     20  C   UNL     1      11.374  -2.530  -2.903  0.00  0.00    +0.044 A 
ATOM     21  C   UNL     1       9.966  -2.645  -2.949  0.00  0.00    +0.043 A 
ATOM     22  C   UNL     1       9.471  -1.396  -2.871  0.00  0.00    +0.089 A 
ATOM     23  O   UNL     1      10.499  -0.537  -2.772  0.00  0.00    -0.467 OA
ENDBRANCH  17  22
ENDBRANCH  10  17
ENDBRANCH   1  14
BRANCH   8  24
ATOM     24  C   UNL     1      -1.254   2.168   0.020  0.00  0.00    +0.044 C 
ATOM     25  C   UNL     1      -1.002   3.441  -0.794  0.00  0.00    +0.038 C 
ATOM     26  C   UNL     1      -2.236   4.342  -0.712  0.00  0.00    +0.160 C 
ATOM     27  O   UNL     1      -2.517   4.640   0.657  0.00  0.00    -0.380 OA
ATOM     28  C   UNL     1      -2.808   3.491   1.457  0.00  0.00    +0.160 C 
ATOM     29  C   UNL     1      -1.596   2.556   1.462  0.00  0.00    +0.038 C 
ENDBRANCH   8  24
BRANCH   3  30
ATOM     30  N   UNL     1       1.111  -2.814  -0.023  0.00  0.00    -0.343 N 
ATOM     31  H   UNL     1       0.015  -2.719  -0.012  0.00  0.00    +0.144 HD
ATOM     32  H   UNL     1       1.577  -3.810  -0.033  0.00  0.00    +0.144 HD
ENDBRANCH   3  30
TORSDOF 5
