REMARK  Name = ZINC08636226
REMARK  9 active torsions:
REMARK  status: ('A' for Active; 'I' for Inactive)
REMARK    1  A    between atoms: C_1  and  C_2
REMARK    2  A    between atoms: C_7  and  C_8
REMARK    3  A    between atoms: C_7  and  N_67
REMARK    4  A    between atoms: C_16  and  C_18
REMARK    5  A    between atoms: C_18  and  N_19
REMARK    6  A    between atoms: N_19  and  C_20
REMARK    7  A    between atoms: C_20  and  N_22
REMARK    8  A    between atoms: N_22  and  C_23
REMARK    9  A    between atoms: C_26  and  N_29
REMARK                            x       y       z     vdW  Elec       q    Type
REMARK                         _______ _______ _______ _____ _____    ______ ____
ROOT
ATOM      1  C   UNL     1      -3.791  -5.967   1.982  0.00  0.00    -0.041 C 
ATOM      2  C   UNL     1      -3.556  -4.455   2.035  0.00  0.00    -0.076 C 
ATOM      3  C   UNL     1      -5.387  -4.059   0.501  0.00  0.00    -0.078 C 
ATOM      4  C   UNL     1      -5.675  -5.560   0.403  0.00  0.00    -0.015 C 
ATOM      5  C   UNL     1      -4.365  -6.331   0.606  0.00  0.00    -0.015 C 
ATOM      6  C   UNL     1      -3.366  -5.890  -0.472  0.00  0.00    -0.010 C 
ATOM      7  C   UNL     1      -3.142  -4.380  -0.350  0.00  0.00    -0.051 C 
ATOM      8  N   UNL     1      -3.950  -3.826   0.757  0.00  0.00    +0.383 N 
ATOM      9  H   UNL     1      -3.782  -2.814   0.818  0.00  0.00    -0.081 HD
ENDROOT
BRANCH   1  10
ATOM     10  C   UNL     1      -2.467  -6.703   2.196  0.00  0.00    -0.077 C 
BRANCH  10  17
ATOM     11  C   UNL     1      -0.534  -6.329   7.562  0.00  0.00    +0.007 C 
ATOM     12  C   UNL     1      -1.114  -6.859   6.248  0.00  0.00    -0.018 C 
ATOM     13  C   UNL     1      -0.097  -6.655   5.122  0.00  0.00    -0.016 C 
ATOM     14  C   UNL     1      -0.706  -7.131   3.800  0.00  0.00    -0.079 C 
ATOM     15  C   UNL     1      -2.940  -6.589   4.567  0.00  0.00    -0.079 C 
ATOM     16  C   UNL     1      -2.398  -6.097   5.911  0.00  0.00    -0.016 C 
ATOM     17  N   UNL     1      -1.924  -6.341   3.521  0.00  0.00    +0.380 N 
ATOM     18  H   UNL     1      -1.682  -5.344   3.522  0.00  0.00    -0.082 HD
ENDBRANCH  10  17
ENDBRANCH   1  10
BRANCH   7  19
ATOM     19  C   UNL     1      -1.663  -4.105  -0.073  0.00  0.00    +0.088 C 
BRANCH  19  20
ATOM     20  N   UNL     1      -1.468  -2.672   0.162  0.00  0.00    -0.328 N 
ATOM     21  H   UNL     1      -2.226  -2.068   0.125  0.00  0.00    +0.148 HD
BRANCH  20  22
ATOM     22  C   UNL     1      -0.237  -2.194   0.428  0.00  0.00    +0.134 C 
ATOM     23  S   UNL     1       1.101  -3.261   0.493  0.00  0.00    -0.019 S 
BRANCH  22  24
ATOM     24  N   UNL     1      -0.058  -0.876   0.644  0.00  0.00    -0.297 N 
ATOM     25  H   UNL     1      -0.824  -0.283   0.690  0.00  0.00    +0.154 HD
BRANCH  24  26
ATOM     26  C   UNL     1       1.235  -0.361   0.802  0.00  0.00    +0.033 A 
ATOM     27  C   UNL     1       1.486   0.601   1.772  0.00  0.00    +0.025 A 
ATOM     28  C   UNL     1       2.760   1.107   1.927  0.00  0.00    +0.029 A 
ATOM     29  C   UNL     1       3.791   0.656   1.114  0.00  0.00    +0.065 A 
ATOM     30  C   UNL     1       3.540  -0.306   0.145  0.00  0.00    +0.029 A 
ATOM     31  C   UNL     1       2.266  -0.813  -0.011  0.00  0.00    +0.025 A 
BRANCH  29  32
ATOM     32  N   UNL     1       5.086   1.172   1.272  0.00  0.00    -0.240 N 
ATOM     33  C   UNL     1       5.466   2.107   2.172  0.00  0.00    +0.114 A 
ATOM     34  C   UNL     1       6.790   2.328   2.001  0.00  0.00    +0.041 A 
ATOM     35  C   UNL     1       7.235   1.502   0.964  0.00  0.00    +0.135 A 
ATOM     36  N   UNL     1       6.216   0.805   0.530  0.00  0.00    -0.175 NA
ENDBRANCH  29  32
ENDBRANCH  24  26
ENDBRANCH  22  24
ENDBRANCH  20  22
ENDBRANCH  19  20
ENDBRANCH   7  19
TORSDOF 8
