REMARK  Name = ZINC39430821
REMARK  8 active torsions:
REMARK  status: ('A' for Active; 'I' for Inactive)
REMARK    1  A    between atoms: C_1  and  C_2
REMARK    2  A    between atoms: C_2  and  C_3
REMARK    3  A    between atoms: C_6  and  C_9
REMARK    4  A    between atoms: C_13  and  C_15
REMARK    5  A    between atoms: N_16  and  N_17
REMARK    6  A    between atoms: C_18  and  C_20
REMARK    7  A    between atoms: C_20  and  C_21
REMARK    8  A    between atoms: C_24  and  N_27
REMARK                            x       y       z     vdW  Elec       q    Type
REMARK                         _______ _______ _______ _____ _____    ______ ____
ROOT
ATOM      1  C   UNL     1      -6.491  -1.072  -1.986  0.00  0.00    +0.118 C 
ATOM      2  N   UNL     1      -6.111  -1.037  -3.208  0.00  0.00    -0.192 NA
ENDROOT
BRANCH   1   7
ATOM      3  C   UNL     1      -5.391  -1.995   0.043  0.00  0.00    +0.084 C 
ATOM      4  N   UNL     1      -6.122  -2.264   1.089  0.00  0.00    -0.153 NA
ATOM      5  N   UNL     1      -7.386  -2.731   0.741  0.00  0.00    -0.161 NA
ATOM      6  C   UNL     1      -7.554  -2.795  -0.540  0.00  0.00    +0.123 C 
ATOM      7  C   UNL     1      -6.258  -2.311  -1.160  0.00  0.00    +0.125 C 
BRANCH   3  11
ATOM      8  C   UNL     1      -1.412  -0.526   0.013  0.00  0.00    -0.048 A 
ATOM      9  C   UNL     1      -2.048  -0.765   1.218  0.00  0.00    +0.004 A 
ATOM     10  C   UNL     1      -3.341  -1.243   1.236  0.00  0.00    +0.010 A 
ATOM     11  C   UNL     1      -4.010  -1.485   0.032  0.00  0.00    -0.001 A 
ATOM     12  C   UNL     1      -3.361  -1.240  -1.182  0.00  0.00    +0.010 A 
ATOM     13  C   UNL     1      -2.069  -0.757  -1.183  0.00  0.00    +0.004 A 
BRANCH   8  15
ATOM     14  C   UNL     1      -0.019   1.526   0.010  0.00  0.00    +0.009 C 
ATOM     15  C   UNL     1       0.002  -0.004   0.002  0.00  0.00    +0.032 C 
ENDBRANCH   8  15
ENDBRANCH   3  11
ENDBRANCH   1   7
BRANCH   2  16
ATOM     16  N   UNL     1      -6.328   0.114  -3.976  0.00  0.00    -0.207 N 
ATOM     17  C   UNL     1      -5.928   0.151  -5.262  0.00  0.00    +0.237 C 
ATOM     18  O   UNL     1      -5.380  -0.812  -5.755  0.00  0.00    -0.274 OA
ATOM     19  H   UNL     1      -6.766   0.885  -3.582  0.00  0.00    +0.177 HD
BRANCH  17  20
ATOM     20  C   UNL     1      -6.161   1.390  -6.089  0.00  0.00    +0.132 C 
BRANCH  20  21
ATOM     21  C   UNL     1      -5.625   1.174  -7.480  0.00  0.00    -0.038 A 
ATOM     22  C   UNL     1      -4.314   1.499  -7.774  0.00  0.00    +0.006 A 
ATOM     23  C   UNL     1      -3.821   1.300  -9.050  0.00  0.00    +0.033 A 
ATOM     24  C   UNL     1      -4.640   0.777 -10.033  0.00  0.00    +0.126 A 
ATOM     25  C   UNL     1      -5.951   0.451  -9.739  0.00  0.00    +0.033 A 
ATOM     26  C   UNL     1      -6.442   0.645  -8.462  0.00  0.00    +0.006 A 
BRANCH  24  27
ATOM     27  N   UNL     1      -4.114   0.566 -11.400  0.00  0.00    +0.056 N 
ATOM     28  O   UNL     1      -2.967   0.851 -11.657  0.00  0.00    -0.126 OA
ATOM     29  O   UNL     1      -4.830   0.107 -12.260  0.00  0.00    -0.126 OA
ENDBRANCH  24  27
ENDBRANCH  20  21
ENDBRANCH  17  20
ENDBRANCH   2  16
TORSDOF 7
