REMARK  Name = ZINC59537052
REMARK  7 active torsions:
REMARK  status: ('A' for Active; 'I' for Inactive)
REMARK    1  A    between atoms: C_3  and  O_30
REMARK    2  A    between atoms: C_4  and  O_29
REMARK    3  A    between atoms: C_6  and  C_7
REMARK    4  A    between atoms: N_8  and  N_9
REMARK    5  A    between atoms: C_10  and  S_12
REMARK    6  A    between atoms: S_12  and  C_13
REMARK    7  A    between atoms: N_18  and  C_21
REMARK                            x       y       z     vdW  Elec       q    Type
REMARK                         _______ _______ _______ _____ _____    ______ ____
ROOT
ATOM      1  N   UNL     1      -3.600  -0.847   0.033  0.00  0.00    -0.217 N 
ATOM      2  C   UNL     1      -4.802  -0.177   0.049  0.00  0.00    +0.146 C 
ATOM      3  N   UNL     1      -4.822   1.128   0.056  0.00  0.00    -0.380 N 
ATOM      4  H   UNL     1      -3.585  -1.817   0.028  0.00  0.00    +0.176 HD
ATOM      5  H   UNL     1      -5.669   1.600   0.067  0.00  0.00    +0.158 HD
ATOM      6  H   UNL     1      -3.989   1.625   0.050  0.00  0.00    +0.158 HD
ENDROOT
BRANCH   1   8
ATOM      7  C   UNL     1      -1.264  -0.760   0.011  0.00  0.00    +0.138 C 
ATOM      8  N   UNL     1      -2.397  -0.129   0.025  0.00  0.00    -0.188 NA
BRANCH   7  14
ATOM      9  C   UNL     1      -0.017   1.393   0.010  0.00  0.00    +0.013 A 
ATOM     10  C   UNL     1       1.168   2.098   0.002  0.00  0.00    +0.050 A 
ATOM     11  C   UNL     1       2.380   1.424  -0.013  0.00  0.00    +0.158 A 
ATOM     12  C   UNL     1       2.407   0.031  -0.021  0.00  0.00    +0.159 A 
ATOM     13  C   UNL     1       1.224  -0.683  -0.014  0.00  0.00    +0.058 A 
ATOM     14  C   UNL     1       0.002  -0.004   0.002  0.00  0.00    -0.002 A 
BRANCH  12  15
ATOM     15  O   UNL     1       3.597  -0.626  -0.037  0.00  0.00    -0.503 OA
ATOM     16  H   UNL     1       3.951  -0.821   0.842  0.00  0.00    +0.292 HD
ENDBRANCH  12  15
BRANCH  11  17
ATOM     17  O   UNL     1       3.546   2.125  -0.020  0.00  0.00    -0.503 OA
ATOM     18  H   UNL     1       3.891   2.323   0.861  0.00  0.00    +0.292 HD
ENDBRANCH  11  17
ENDBRANCH   7  14
ENDBRANCH   1   8
BRANCH   2  19
ATOM     19  S   UNL     1      -6.314  -1.081   0.059  0.00  0.00    -0.078 S 
BRANCH  19  20
ATOM     20  C   UNL     1      -7.594   0.205   0.079  0.00  0.00    +0.149 C 
ATOM     21  C   UNL     1      -9.000  -0.427   0.017  0.00  0.00    +0.120 C 
ATOM     22  C   UNL     1      -9.644   0.015   1.313  0.00  0.00    +0.228 C 
ATOM     23  O   UNL     1     -10.768  -0.266   1.670  0.00  0.00    -0.275 OA
ATOM     24  N   UNL     1      -8.776   0.766   2.003  0.00  0.00    -0.208 N 
ATOM     25  C   UNL     1      -7.589   0.941   1.401  0.00  0.00    +0.240 C 
ATOM     26  O   UNL     1      -6.662   1.583   1.844  0.00  0.00    -0.274 OA
BRANCH  24  27
ATOM     27  C   UNL     1      -9.083   1.326   3.251  0.00  0.00    +0.064 A 
ATOM     28  C   UNL     1      -8.810   0.622   4.415  0.00  0.00    +0.045 A 
ATOM     29  C   UNL     1      -9.112   1.177   5.645  0.00  0.00    +0.043 A 
ATOM     30  C   UNL     1      -9.688   2.434   5.715  0.00  0.00    +0.021 A 
ATOM     31  C   UNL     1      -9.960   3.138   4.557  0.00  0.00    +0.023 A 
ATOM     32  C   UNL     1      -9.655   2.590   3.325  0.00  0.00    +0.063 A 
ATOM     33 CL   UNL     1      -9.992   3.478   1.872  0.00  0.00    -0.082 Cl
ATOM     34 CL   UNL     1      -8.771   0.296   7.101  0.00  0.00    -0.083 Cl
ENDBRANCH  24  27
ENDBRANCH  19  20
ENDBRANCH   2  19
TORSDOF 7
