REMARK  Name = ZINC36490808
REMARK  7 active torsions:
REMARK  status: ('A' for Active; 'I' for Inactive)
REMARK    1  A    between atoms: C_4  and  C_10
REMARK    2  A    between atoms: C_6  and  N_7
REMARK    3  A    between atoms: C_10  and  C_12
REMARK    4  A    between atoms: C_10  and  N_21
REMARK    5  A    between atoms: N_14  and  C_15
REMARK    6  A    between atoms: N_21  and  C_22
REMARK    7  A    between atoms: C_28  and  C_30
REMARK                            x       y       z     vdW  Elec       q    Type
REMARK                         _______ _______ _______ _____ _____    ______ ____
ROOT
ATOM      1  C   UNL     1       3.737  -0.710   0.006  0.00  0.00    +0.194 C 
ENDROOT
BRANCH   1   5
ATOM      2  C   UNL     1       0.410   1.656  -1.252  0.00  0.00    +0.034 A 
ATOM      3  C   UNL     1       1.598   2.268  -0.901  0.00  0.00    +0.022 A 
ATOM      4  C   UNL     1       2.676   1.503  -0.493  0.00  0.00    +0.047 A 
ATOM      5  C   UNL     1       2.563   0.125  -0.438  0.00  0.00    +0.002 A 
ATOM      6  C   UNL     1       1.375  -0.486  -0.789  0.00  0.00    +0.040 A 
ATOM      7  C   UNL     1       0.298   0.280  -1.196  0.00  0.00    +0.127 A 
ATOM      8 CL   UNL     1       4.170   2.270  -0.053  0.00  0.00    -0.083 Cl
BRANCH   7   9
ATOM      9  N   UNL     1      -0.975  -0.375  -1.572  0.00  0.00    +0.056 N 
ATOM     10  O   UNL     1      -1.917   0.294  -1.928  0.00  0.00    -0.126 OA
ATOM     11  O   UNL     1      -1.073  -1.579  -1.523  0.00  0.00    -0.126 OA
ENDBRANCH   7   9
ENDBRANCH   1   5
BRANCH   1  12
ATOM     12  C   UNL     1       3.817  -0.706   1.511  0.00  0.00    +0.238 C 
ATOM     13  O   UNL     1       3.738  -1.749   2.125  0.00  0.00    -0.273 OA
ATOM     14  N   UNL     1       3.975   0.457   2.174  0.00  0.00    -0.311 N 
ATOM     15  H   UNL     1       4.038   1.291   1.683  0.00  0.00    +0.149 HD
BRANCH  14  16
ATOM     16  C   UNL     1       4.052   0.461   3.637  0.00  0.00    +0.073 C 
ATOM     17  C   UNL     1       2.639   0.488   4.222  0.00  0.00    +0.022 C 
ATOM     18  C   UNL     1       2.720   0.493   5.750  0.00  0.00    +0.002 C 
ATOM     19  C   UNL     1       3.489   1.730   6.217  0.00  0.00    +0.000 C 
ATOM     20  C   UNL     1       4.903   1.702   5.631  0.00  0.00    +0.002 C 
ATOM     21  C   UNL     1       4.822   1.698   4.103  0.00  0.00    +0.022 C 
ENDBRANCH  14  16
ENDBRANCH   1  12
BRANCH   1  22
ATOM     22  N   UNL     1       3.566  -2.085  -0.470  0.00  0.00    -0.281 N 
ATOM     23  C   UNL     1       2.621  -2.875   0.076  0.00  0.00    +0.237 C 
ATOM     24  O   UNL     1       1.986  -2.487   1.034  0.00  0.00    -0.274 OA
BRANCH  23  25
ATOM     25  C   UNL     1       2.353  -4.240  -0.502  0.00  0.00    +0.159 C 
ATOM     26  C   UNL     1       1.458  -4.123  -1.756  0.00  0.00    +0.041 C 
ATOM     27  C   UNL     1       0.047  -4.319  -1.156  0.00  0.00    +0.098 C 
ATOM     28  C   UNL     1       0.289  -5.111   0.110  0.00  0.00    +0.214 C 
ATOM     29  O   UNL     1      -0.565  -5.710   0.729  0.00  0.00    -0.276 OA
ATOM     30  N   UNL     1       1.590  -5.055   0.451  0.00  0.00    -0.304 N 
ATOM     31  H   UNL     1       1.974  -5.496   1.225  0.00  0.00    +0.149 HD
ENDBRANCH  23  25
BRANCH  22  32
ATOM     32  C   UNL     1       4.423  -2.601  -1.541  0.00  0.00    +0.077 C 
ATOM     33  C   UNL     1       5.870  -2.670  -1.048  0.00  0.00    +0.022 C 
ATOM     34  C   UNL     1       6.764  -3.209  -2.166  0.00  0.00    +0.002 C 
ATOM     35  C   UNL     1       6.682  -2.279  -3.378  0.00  0.00    +0.000 C 
ATOM     36  C   UNL     1       5.235  -2.211  -3.871  0.00  0.00    +0.002 C 
ATOM     37  C   UNL     1       4.341  -1.671  -2.753  0.00  0.00    +0.022 C 
ENDBRANCH  22  32
ENDBRANCH   1  22
TORSDOF 7
