REMARK  Name = ZINC67031819
REMARK  3 active torsions:
REMARK  status: ('A' for Active; 'I' for Inactive)
REMARK    1  A    between atoms: C_3  and  C_8
REMARK    2  A    between atoms: C_11  and  C_13
REMARK    3  A    between atoms: C_22  and  N_24
REMARK                            x       y       z     vdW  Elec       q    Type
REMARK                         _______ _______ _______ _____ _____    ______ ____
ROOT
ATOM      1  C   UNL     1       5.441   3.140   1.622  0.00  0.00    +0.223 C 
ATOM      2  O   UNL     1       5.379   4.196   1.029  0.00  0.00    -0.275 OA
ATOM      3  N   UNL     1       6.232   3.022   2.707  0.00  0.00    -0.271 N 
ATOM      4  C   UNL     1       6.479   1.774   3.435  0.00  0.00    +0.118 C 
ATOM      5  C   UNL     1       7.435   2.156   4.577  0.00  0.00    +0.056 C 
ATOM      6  C   UNL     1       7.663   3.641   4.402  0.00  0.00    -0.022 A 
ATOM      7  C   UNL     1       6.941   4.071   3.300  0.00  0.00    +0.040 A 
ATOM      8  C   UNL     1       7.000   5.417   2.934  0.00  0.00    +0.026 A 
ATOM      9  C   UNL     1       7.769   6.302   3.661  0.00  0.00    +0.034 A 
ATOM     10  C   UNL     1       8.489   5.862   4.756  0.00  0.00    +0.127 A 
ATOM     11  C   UNL     1       8.429   4.531   5.129  0.00  0.00    +0.038 A 
ENDROOT
BRANCH   1  14
ATOM     12  C   UNL     1       3.660   2.190  -0.011  0.00  0.00    +0.032 C 
ATOM     13  C   UNL     1       4.950   1.402  -0.244  0.00  0.00    +0.022 C 
ATOM     14  C   UNL     1       4.634   1.960   1.146  0.00  0.00    +0.083 C 
BRANCH  12  17
ATOM     15  C   UNL     1      -0.029   1.385   0.043  0.00  0.00    +0.003 A 
ATOM     16  C   UNL     1       1.159   2.092   0.029  0.00  0.00    +0.004 A 
ATOM     17  C   UNL     1       2.366   1.418   0.004  0.00  0.00    -0.041 A 
ATOM     18  C   UNL     1       2.385   0.036  -0.006  0.00  0.00    +0.042 A 
ATOM     19  C   UNL     1       1.197  -0.673   0.008  0.00  0.00    +0.124 A 
ATOM     20  C   UNL     1      -0.011   0.004   0.033  0.00  0.00    +0.038 A 
ATOM     21  F   UNL     1       1.215  -2.024  -0.003  0.00  0.00    -0.205 F 
ENDBRANCH  12  17
ENDBRANCH   1  14
BRANCH  10  22
ATOM     22  N   UNL     1       9.313   6.814   5.533  0.00  0.00    +0.056 N 
ATOM     23  O   UNL     1       9.358   7.978   5.210  0.00  0.00    -0.126 OA
ATOM     24  O   UNL     1       9.942   6.427   6.491  0.00  0.00    -0.126 OA
ENDBRANCH  10  22
TORSDOF 3
