REMARK  Name = ZINC05762736
REMARK  3 active torsions:
REMARK  status: ('A' for Active; 'I' for Inactive)
REMARK    1  A    between atoms: C_11  and  C_15
REMARK    2  A    between atoms: N_22  and  C_25
REMARK    3  A    between atoms: C_23  and  O_24
REMARK                            x       y       z     vdW  Elec       q    Type
REMARK                         _______ _______ _______ _____ _____    ______ ____
ROOT
ATOM      1  C   UNL     1       1.426   1.552  -0.073  0.00  0.00    +0.068 A 
ATOM      2  C   UNL     1       1.614   2.941  -0.187  0.00  0.00    +0.258 A 
ATOM      3  O   UNL     1       0.657   3.680  -0.341  0.00  0.00    -0.267 OA
ATOM      4  N   UNL     1       2.861   3.450  -0.126  0.00  0.00    -0.302 N 
ATOM      5  H   UNL     1       2.994   4.407  -0.204  0.00  0.00    +0.171 HD
ATOM      6  C   UNL     1       3.921   2.639   0.043  0.00  0.00    +0.163 A 
ATOM      7  S   UNL     1       5.494   3.312   0.117  0.00  0.00    -0.013 S 
ATOM      8  N   UNL     1       3.764   1.308   0.155  0.00  0.00    -0.289 N 
ATOM      9  C   UNL     1       2.513   0.749   0.104  0.00  0.00    +0.202 A 
ENDROOT
BRANCH   1  20
ATOM     10  C   UNL     1      -3.816   3.103   3.995  0.00  0.00    +0.001 A 
ATOM     11  C   UNL     1      -2.748   2.909   4.855  0.00  0.00    +0.002 A 
ATOM     12  C   UNL     1      -1.533   2.407   4.422  0.00  0.00    +0.026 A 
ATOM     13  C   UNL     1      -1.423   2.100   3.067  0.00  0.00    +0.047 A 
ATOM     14  C   UNL     1      -2.521   2.300   2.191  0.00  0.00    +0.003 A 
ATOM     15  C   UNL     1      -3.738   2.809   2.656  0.00  0.00    +0.010 A 
ATOM     16  C   UNL     1      -2.067   1.883   0.883  0.00  0.00    -0.022 A 
ATOM     17  C   UNL     1      -0.785   1.473   1.018  0.00  0.00    +0.011 A 
ATOM     18  N   UNL     1      -0.394   1.600   2.323  0.00  0.00    -0.359 N 
ATOM     19  H   UNL     1       0.483   1.369   2.667  0.00  0.00    +0.166 HD
ATOM     20  C   UNL     1       0.041   0.961  -0.139  0.00  0.00    +0.018 C 
ATOM     21  C   UNL     1      -2.032   0.979  -1.406  0.00  0.00    -0.076 C 
ATOM     22  C   UNL     1      -2.811   1.869  -0.428  0.00  0.00    +0.018 C 
ATOM     23  N   UNL     1      -0.604   1.369  -1.405  0.00  0.00    +0.388 N 
ATOM     24  H   UNL     1      -0.127   0.910  -2.190  0.00  0.00    -0.084 HD
ATOM     25  H   UNL     1      -0.531   2.388  -1.509  0.00  0.00    -0.084 HD
ENDBRANCH   1  20
BRANCH   8  26
ATOM     26  C   UNL     1       4.938   0.450   0.339  0.00  0.00    +0.093 C 
ATOM     27  C   UNL     1       5.035  -0.537  -0.826  0.00  0.00    +0.025 C 
ATOM     28  C   UNL     1       6.260  -1.433  -0.634  0.00  0.00    +0.002 C 
ATOM     29  C   UNL     1       6.126  -2.206   0.680  0.00  0.00    +0.000 C 
ATOM     30  C   UNL     1       6.028  -1.219   1.845  0.00  0.00    +0.002 C 
ATOM     31  C   UNL     1       4.803  -0.323   1.653  0.00  0.00    +0.025 C 
ENDBRANCH   8  26
BRANCH   9  32
ATOM     32  O   UNL     1       2.359  -0.588   0.222  0.00  0.00    -0.493 OA
ATOM     33  H   UNL     1       1.452  -0.893   0.085  0.00  0.00    +0.294 HD
ENDBRANCH   9  32
TORSDOF 3
