REMARK  Name = ZINC66436452
REMARK  10 active torsions:
REMARK  status: ('A' for Active; 'I' for Inactive)
REMARK    1  A    between atoms: C_1  and  C_2
REMARK    2  A    between atoms: C_2  and  C_4
REMARK    3  A    between atoms: C_2  and  N_13
REMARK    4  A    between atoms: C_6  and  C_9
REMARK    5  A    between atoms: C_9  and  C_10
REMARK    6  A    between atoms: C_9  and  C_11
REMARK    7  A    between atoms: C_9  and  C_12
REMARK    8  A    between atoms: C_16  and  C_19
REMARK    9  A    between atoms: C_26  and  O_29
REMARK   10  A    between atoms: O_29  and  C_30
REMARK                            x       y       z     vdW  Elec       q    Type
REMARK                         _______ _______ _______ _____ _____    ______ ____
ROOT
ATOM      1  N   UNL     1      -1.376  -0.512   0.012  0.00  0.00    +0.387 N 
ATOM      2  C   UNL     1      -2.087  -0.018  -1.173  0.00  0.00    -0.077 C 
ATOM      3  C   UNL     1      -3.546  -0.478  -1.125  0.00  0.00    -0.011 C 
ATOM      4  C   UNL     1      -3.593  -2.009  -1.101  0.00  0.00    +0.018 C 
ATOM      5  C   UNL     1      -2.785  -2.515   0.097  0.00  0.00    -0.011 C 
ATOM      6  C   UNL     1      -1.355  -1.980   0.004  0.00  0.00    -0.077 C 
ATOM      7  H   UNL     1      -1.847  -0.189   0.844  0.00  0.00    -0.081 HD
ENDROOT
BRANCH   4   8
ATOM      8  C   UNL     1      -5.022  -2.467  -0.976  0.00  0.00    -0.019 A 
ATOM      9  C   UNL     1      -5.868  -2.180   0.026  0.00  0.00    +0.087 A 
ATOM     10  N   UNL     1      -7.081  -2.770  -0.203  0.00  0.00    -0.360 N 
ATOM     11  H   UNL     1      -7.852  -2.705   0.382  0.00  0.00    +0.165 HD
ATOM     12  C   UNL     1      -7.044  -3.471  -1.390  0.00  0.00    +0.047 A 
ATOM     13  C   UNL     1      -5.755  -3.307  -1.928  0.00  0.00    +0.007 A 
ATOM     14  C   UNL     1      -5.424  -3.908  -3.144  0.00  0.00    +0.056 A 
ATOM     15  C   UNL     1      -6.370  -4.660  -3.813  0.00  0.00    +0.121 A 
ATOM     16  C   UNL     1      -7.646  -4.818  -3.279  0.00  0.00    +0.047 A 
ATOM     17  C   UNL     1      -7.981  -4.235  -2.077  0.00  0.00    +0.030 A 
BRANCH  15  18
ATOM     18  O   UNL     1      -6.053  -5.247  -4.997  0.00  0.00    -0.495 OA
ATOM     19  C   UNL     1      -7.078  -6.011  -5.637  0.00  0.00    +0.277 C 
ENDBRANCH  15  18
ENDBRANCH   4   8
BRANCH   1  21
ATOM     20  C   UNL     1      -0.019   1.526   0.010  0.00  0.00    -0.003 C 
ATOM     21  C   UNL     1       0.002  -0.004   0.002  0.00  0.00    +0.019 C 
BRANCH  21  22
ATOM     22  C   UNL     1       0.731  -0.503   1.223  0.00  0.00    +0.214 A 
ATOM     23  N   UNL     1       1.939  -0.995   1.244  0.00  0.00    -0.197 NA
ATOM     24  C   UNL     1       2.272  -1.339   2.493  0.00  0.00    +0.177 A 
ATOM     25  N   UNL     1       1.275  -1.069   3.286  0.00  0.00    -0.061 NA
ATOM     26  O   UNL     1       0.252  -0.513   2.473  0.00  0.00    -0.340 OA
BRANCH  24  27
ATOM     27  C   UNL     1       3.588  -1.942   2.914  0.00  0.00    +0.025 C 
ATOM     28  C   UNL     1       4.725  -0.980   2.564  0.00  0.00    +0.019 C 
ATOM     29  C   UNL     1       3.575  -2.190   4.424  0.00  0.00    +0.019 C 
ATOM     30  C   UNL     1       3.799  -3.268   2.181  0.00  0.00    +0.019 C 
ENDBRANCH  24  27
ENDBRANCH  21  22
ENDBRANCH   1  21
TORSDOF 5
