REMARK  Name = ZINC41237611
REMARK  3 active torsions:
REMARK  status: ('A' for Active; 'I' for Inactive)
REMARK    1  A    between atoms: C_3  and  N_9
REMARK    2  A    between atoms: N_9  and  S_10
REMARK    3  A    between atoms: S_10  and  C_13
REMARK                            x       y       z     vdW  Elec       q    Type
REMARK                         _______ _______ _______ _____ _____    ______ ____
ROOT
ATOM      1  S   UNL     1       5.026   1.322   0.086  0.00  0.00    +0.092 S 
ATOM      2  O   UNL     1       5.017   0.635   1.330  0.00  0.00    -0.148 OA
ATOM      3  O   UNL     1       5.210   0.651  -1.153  0.00  0.00    -0.148 OA
ENDROOT
BRANCH   1   4
ATOM      4  C   UNL     1       6.294   2.540   0.192  0.00  0.00    +0.112 A 
ATOM      5  C   UNL     1       6.879   3.028  -0.962  0.00  0.00    +0.032 A 
ATOM      6  C   UNL     1       7.876   3.985  -0.887  0.00  0.00    +0.049 A 
ATOM      7  C   UNL     1       8.288   4.455   0.347  0.00  0.00    +0.142 A 
ATOM      8  C   UNL     1       7.699   3.963   1.510  0.00  0.00    +0.078 A 
ATOM      9  C   UNL     1       6.698   3.009   1.429  0.00  0.00    +0.056 A 
ATOM     10  N   UNL     1       8.128   4.446   2.754  0.00  0.00    -0.280 N 
ATOM     11  C   UNL     1       8.859   5.581   2.799  0.00  0.00    +0.255 C 
ATOM     12  O   UNL     1       9.268   6.001   3.861  0.00  0.00    -0.272 OA
ATOM     13  C   UNL     1       9.165   6.324   1.523  0.00  0.00    +0.325 C 
ATOM     14  O   UNL     1       9.266   5.396   0.439  0.00  0.00    -0.481 OA
ATOM     15  H   UNL     1       7.903   3.973   3.571  0.00  0.00    +0.155 HD
ENDBRANCH   1   4
BRANCH   1  16
ATOM     16  N   UNL     1       3.582   2.126  -0.021  0.00  0.00    -0.096 NA
BRANCH  16  19
ATOM     17  C   UNL     1       1.212  -0.683  -0.090  0.00  0.00    +0.003 A 
ATOM     18  C   UNL     1       2.400   0.022  -0.082  0.00  0.00    +0.028 A 
ATOM     19  C   UNL     1       2.382   1.410  -0.029  0.00  0.00    +0.094 A 
ATOM     20  C   UNL     1       1.168   2.085   0.017  0.00  0.00    +0.084 A 
ATOM     21  C   UNL     1      -0.017   1.373   0.009  0.00  0.00    +0.061 A 
ATOM     22  C   UNL     1       0.006  -0.010  -0.044  0.00  0.00    +0.021 A 
ATOM     23 CL   UNL     1      -1.535   2.213   0.067  0.00  0.00    -0.082 Cl
ATOM     24 CL   UNL     1       1.139   3.819   0.084  0.00  0.00    -0.080 Cl
ENDBRANCH  16  19
ENDBRANCH   1  16
TORSDOF 3
