REMARK  Name = ZINC39449973
REMARK  4 active torsions:
REMARK  status: ('A' for Active; 'I' for Inactive)
REMARK    1  A    between atoms: C_1  and  S_2
REMARK    2  A    between atoms: S_2  and  C_3
REMARK    3  A    between atoms: C_13  and  S_16
REMARK    4  A    between atoms: S_16  and  C_19
REMARK                            x       y       z     vdW  Elec       q    Type
REMARK                         _______ _______ _______ _____ _____    ______ ____
ROOT
ATOM      1  C   UNL     1       0.873  -0.423  -1.533  0.00  0.00    +0.136 C 
ATOM      2  C   UNL     1       1.913  -1.515  -1.256  0.00  0.00    +0.114 C 
ATOM      3  C   UNL     1       3.017  -0.949  -0.403  0.00  0.00    +0.187 C 
ATOM      4  O   UNL     1       3.619  -1.675   0.362  0.00  0.00    -0.290 OA
ATOM      5  C   UNL     1       3.360   0.421  -0.484  0.00  0.00    +0.154 A 
ATOM      6  C   UNL     1       2.638   1.262  -1.310  0.00  0.00    +0.085 A 
ATOM      7  C   UNL     1       2.999   2.684  -1.399  0.00  0.00    +0.099 A 
ATOM      8  C   UNL     1       4.079   3.147  -0.619  0.00  0.00    +0.072 A 
ATOM      9  C   UNL     1       4.440   4.494  -0.686  0.00  0.00    +0.044 A 
ATOM     10  C   UNL     1       3.713   5.320  -1.525  0.00  0.00    +0.112 A 
ATOM     11  C   UNL     1       2.663   4.793  -2.264  0.00  0.00    +0.138 A 
ATOM     12  N   UNL     1       2.336   3.521  -2.187  0.00  0.00    -0.251 NA
ATOM     13  C   UNL     1       4.794   2.195   0.243  0.00  0.00    +0.297 A 
ATOM     14  O   UNL     1       5.727   2.575   0.927  0.00  0.00    -0.264 OA
ATOM     15  N   UNL     1       4.416   0.904   0.278  0.00  0.00    -0.088 N 
ATOM     16  O   UNL     1       5.120   0.007   1.118  0.00  0.00    -0.160 OA
ATOM     17  N   UNL     1       1.577   0.764  -2.044  0.00  0.00    -0.328 N 
ATOM     18  H   UNL     1       1.304   1.185  -2.874  0.00  0.00    +0.147 HD
ENDROOT
BRANCH  10  19
ATOM     19  S   UNL     1       4.119   7.029  -1.656  0.00  0.00    +0.027 S 
ATOM     20  O   UNL     1       2.942   7.694  -2.094  0.00  0.00    -0.164 OA
ATOM     21  O   UNL     1       4.790   7.380  -0.453  0.00  0.00    -0.164 OA
BRANCH  19  22
ATOM     22  C   UNL     1       5.299   7.187  -2.955  0.00  0.00    +0.094 A 
ATOM     23  C   UNL     1       6.650   7.093  -2.677  0.00  0.00    +0.027 A 
ATOM     24  C   UNL     1       7.575   7.216  -3.696  0.00  0.00    +0.002 A 
ATOM     25  C   UNL     1       7.150   7.434  -4.993  0.00  0.00    +0.000 A 
ATOM     26  C   UNL     1       5.799   7.527  -5.271  0.00  0.00    +0.002 A 
ATOM     27  C   UNL     1       4.873   7.399  -4.253  0.00  0.00    +0.027 A 
ENDBRANCH  19  22
ENDBRANCH  10  19
BRANCH   1  29
ATOM     28  C   UNL     1      -0.022   1.810   0.012  0.00  0.00    +0.086 C 
ATOM     29  S   UNL     1       0.002  -0.004   0.002  0.00  0.00    -0.142 S 
ENDBRANCH   1  29
TORSDOF 3
