REMARK  Name = ZINC38731089
REMARK  6 active torsions:
REMARK  status: ('A' for Active; 'I' for Inactive)
REMARK    1  A    between atoms: C_4  and  C_7
REMARK    2  A    between atoms: C_7  and  N_8
REMARK    3  A    between atoms: C_14  and  C_16
REMARK    4  A    between atoms: C_22  and  C_24
REMARK    5  A    between atoms: C_29  and  C_32
REMARK    6  A    between atoms: C_29  and  O_39
REMARK                            x       y       z     vdW  Elec       q    Type
REMARK                         _______ _______ _______ _____ _____    ______ ____
ROOT
ATOM      1  C   UNL     1       6.933  -3.777   4.334  0.00  0.00    +0.091 C 
ATOM      2  C   UNL     1       7.795  -2.651   4.908  0.00  0.00    +0.040 C 
ATOM      3  C   UNL     1       9.182  -3.151   5.184  0.00  0.00    -0.030 C 
ATOM      4  C   UNL     1       9.498  -4.403   5.269  0.00  0.00    -0.030 C 
ATOM      5  C   UNL     1       8.523  -5.530   5.095  0.00  0.00    +0.040 C 
ATOM      6  C   UNL     1       7.088  -5.016   5.226  0.00  0.00    +0.091 C 
ENDROOT
BRANCH   1  13
ATOM      7  N   UNL     1       4.095  -1.593   0.908  0.00  0.00    -0.295 NA
ATOM      8  C   UNL     1       3.202  -2.361   1.786  0.00  0.00    +0.103 C 
ATOM      9  C   UNL     1       3.627  -2.160   3.244  0.00  0.00    +0.123 C 
ATOM     10  N   UNL     1       5.055  -2.491   3.365  0.00  0.00    -0.299 N 
ATOM     11  C   UNL     1       5.997  -1.863   2.427  0.00  0.00    +0.123 C 
ATOM     12  C   UNL     1       5.479  -2.076   1.001  0.00  0.00    +0.103 C 
ATOM     13  C   UNL     1       5.488  -3.348   4.311  0.00  0.00    +0.220 C 
ATOM     14  O   UNL     1       4.716  -3.774   5.144  0.00  0.00    -0.275 OA
BRANCH   7  15
ATOM     15  C   UNL     1       3.620  -1.620  -0.481  0.00  0.00    +0.119 C 
BRANCH  15  19
ATOM     16  C   UNL     1      -0.117   0.432  -0.751  0.00  0.00    +0.000 A 
ATOM     17  C   UNL     1       1.066   1.125  -0.925  0.00  0.00    +0.000 A 
ATOM     18  C   UNL     1       2.275   0.461  -0.837  0.00  0.00    +0.005 A 
ATOM     19  C   UNL     1       2.301  -0.896  -0.576  0.00  0.00    -0.033 A 
ATOM     20  C   UNL     1       1.118  -1.589  -0.401  0.00  0.00    +0.005 A 
ATOM     21  C   UNL     1      -0.091  -0.925  -0.490  0.00  0.00    +0.000 A 
ENDBRANCH  15  19
ENDBRANCH   7  15
ENDBRANCH   1  13
BRANCH   6  22
ATOM     22  C   UNL     1       6.121  -6.083   4.783  0.00  0.00    +0.220 C 
ATOM     23  O   UNL     1       5.836  -6.195   3.610  0.00  0.00    -0.275 OA
ATOM     24  N   UNL     1       5.572  -6.913   5.692  0.00  0.00    -0.301 N 
ATOM     25  C   UNL     1       5.985  -6.860   7.101  0.00  0.00    +0.111 C 
ATOM     26  C   UNL     1       6.408  -8.264   7.545  0.00  0.00    +0.058 C 
ATOM     27  C   UNL     1       5.271  -9.248   7.260  0.00  0.00    +0.094 C 
ATOM     28  C   UNL     1       4.987  -9.281   5.757  0.00  0.00    +0.058 C 
ATOM     29  C   UNL     1       4.544  -7.885   5.294  0.00  0.00    +0.111 C 
BRANCH  27  30
ATOM     30  C   UNL     1       5.669 -10.624   7.727  0.00  0.00    -0.016 A 
ATOM     31  C   UNL     1       7.001 -10.995   7.725  0.00  0.00    +0.008 A 
ATOM     32  C   UNL     1       7.367 -12.258   8.152  0.00  0.00    +0.020 A 
ATOM     33  C   UNL     1       6.401 -13.150   8.582  0.00  0.00    +0.041 A 
ATOM     34  C   UNL     1       5.069 -12.777   8.584  0.00  0.00    +0.020 A 
ATOM     35  C   UNL     1       4.704 -11.513   8.162  0.00  0.00    +0.008 A 
ATOM     36 CL   UNL     1       6.860 -14.735   9.119  0.00  0.00    -0.084 Cl
ENDBRANCH  27  30
BRANCH  27  37
ATOM     37  O   UNL     1       4.095  -8.831   7.958  0.00  0.00    -0.384 OA
ATOM     38  H   UNL     1       3.332  -9.410   7.823  0.00  0.00    +0.211 HD
ENDBRANCH  27  37
ENDBRANCH   6  22
TORSDOF 6
