REMARK  Name = ZINC38570268
REMARK  5 active torsions:
REMARK  status: ('A' for Active; 'I' for Inactive)
REMARK    1  A    between atoms: C_1  and  C_2
REMARK    2  A    between atoms: C_2  and  C_3
REMARK    3  A    between atoms: C_2  and  N_4
REMARK    4  A    between atoms: C_5  and  C_7
REMARK    5  A    between atoms: C_19  and  C_21
REMARK                            x       y       z     vdW  Elec       q    Type
REMARK                         _______ _______ _______ _____ _____    ______ ____
ROOT
ATOM      1  C   UNL     1      -3.023  -2.247  -0.450  0.00  0.00    +0.126 C 
ATOM      2  C   UNL     1      -3.288  -3.509  -0.986  0.00  0.00    +0.039 C 
ATOM      3  C   UNL     1      -4.569  -4.000  -0.785  0.00  0.00    -0.008 C 
ATOM      4  C   UNL     1      -5.325  -4.978  -1.375  0.00  0.00    +0.004 A 
ATOM      5  C   UNL     1      -4.988  -6.037  -2.249  0.00  0.00    +0.010 A 
ATOM      6  C   UNL     1      -6.015  -6.815  -2.700  0.00  0.00    +0.001 A 
ATOM      7  C   UNL     1      -7.348  -6.609  -2.342  0.00  0.00    +0.002 A 
ATOM      8  C   UNL     1      -7.753  -5.628  -1.490  0.00  0.00    +0.026 A 
ATOM      9  C   UNL     1      -6.741  -4.784  -0.954  0.00  0.00    +0.044 A 
ATOM     10  N   UNL     1      -6.833  -3.814  -0.076  0.00  0.00    -0.372 N 
ATOM     11  C   UNL     1      -5.494  -3.378   0.249  0.00  0.00    +0.160 C 
ATOM     12  C   UNL     1      -5.213  -1.920   0.333  0.00  0.00    +0.076 C 
ATOM     13  N   UNL     1      -4.004  -1.486   0.056  0.00  0.00    -0.244 NA
ATOM     14  H   UNL     1      -7.656  -3.452   0.289  0.00  0.00    +0.161 HD
ENDROOT
BRANCH  12  15
ATOM     15  C   UNL     1      -6.268  -0.981   0.725  0.00  0.00    +0.002 A 
ATOM     16  C   UNL     1      -6.217   0.354   0.300  0.00  0.00    +0.013 A 
ATOM     17  C   UNL     1      -7.210   1.232   0.670  0.00  0.00    +0.050 A 
ATOM     18  C   UNL     1      -8.265   0.801   1.464  0.00  0.00    +0.166 A 
ATOM     19  C   UNL     1      -8.324  -0.527   1.893  0.00  0.00    +0.167 A 
ATOM     20  C   UNL     1      -7.336  -1.416   1.523  0.00  0.00    +0.059 A 
ATOM     21  O   UNL     1      -9.447  -0.691   2.651  0.00  0.00    -0.453 OA
ATOM     22  C   UNL     1      -9.857   0.639   3.022  0.00  0.00    +0.466 C 
ATOM     23  O   UNL     1      -9.351   1.464   1.955  0.00  0.00    -0.453 OA
ENDBRANCH  12  15
BRANCH   1  25
ATOM     24  N   UNL     1      -1.361  -0.528   0.086  0.00  0.00    -0.308 N 
ATOM     25  C   UNL     1      -1.631  -1.742  -0.434  0.00  0.00    +0.263 C 
ATOM     26  O   UNL     1      -0.733  -2.423  -0.889  0.00  0.00    -0.269 OA
ATOM     27  H   UNL     1      -2.078   0.015   0.449  0.00  0.00    +0.149 HD
BRANCH  24  29
ATOM     28  C   UNL     1       0.004   1.500   0.133  0.00  0.00    +0.027 C 
ATOM     29  C   UNL     1       0.017  -0.029   0.101  0.00  0.00    +0.067 C 
ATOM     30  C   UNL     1       0.737  -0.559   1.343  0.00  0.00    +0.027 C 
ENDBRANCH  24  29
ENDBRANCH   1  25
TORSDOF 3
