REMARK  Name = ZINC09076866
REMARK  8 active torsions:
REMARK  status: ('A' for Active; 'I' for Inactive)
REMARK    1  A    between atoms: C_1  and  C_2
REMARK    2  A    between atoms: C_2  and  C_3
REMARK    3  A    between atoms: C_2  and  C_4
REMARK    4  A    between atoms: C_4  and  C_6
REMARK    5  A    between atoms: C_4  and  N_17
REMARK    6  A    between atoms: C_18  and  C_20
REMARK    7  A    between atoms: C_20  and  N_69
REMARK    8  A    between atoms: C_23  and  N_26
REMARK                            x       y       z     vdW  Elec       q    Type
REMARK                         _______ _______ _______ _____ _____    ______ ____
ROOT
ATOM      1  N   UNL     1      -1.310   3.469  -0.629  0.00  0.00    -0.310 N 
ATOM      2  C   UNL     1      -2.414   3.979  -1.210  0.00  0.00    +0.197 C 
ATOM      3  O   UNL     1      -3.513   3.625  -0.840  0.00  0.00    -0.278 OA
ATOM      4  H   UNL     1      -0.431   3.752  -0.925  0.00  0.00    +0.149 HD
ENDROOT
BRANCH   1   5
ATOM      5  C   UNL     1      -1.438   2.487   0.451  0.00  0.00    +0.106 C 
BRANCH   5   6
ATOM      6  C   UNL     1      -0.192   1.641   0.511  0.00  0.00    -0.023 A 
ATOM      7  C   UNL     1       1.047   2.225   0.321  0.00  0.00    +0.009 A 
ATOM      8  C   UNL     1       2.194   1.454   0.369  0.00  0.00    +0.050 A 
ATOM      9  C   UNL     1       2.098   0.094   0.608  0.00  0.00    +0.162 A 
ATOM     10  C   UNL     1       0.855  -0.492   0.799  0.00  0.00    +0.162 A 
ATOM     11  C   UNL     1      -0.292   0.282   0.750  0.00  0.00    +0.055 A 
ATOM     12  O   UNL     1       0.770  -1.834   1.036  0.00  0.00    -0.488 OA
ATOM     13  C   UNL     1       1.119  -2.684  -0.059  0.00  0.00    +0.232 C 
ATOM     14  C   UNL     1       2.623  -2.901  -0.114  0.00  0.00    +0.082 C 
ATOM     15  C   UNL     1       3.383  -1.617  -0.407  0.00  0.00    +0.232 C 
ATOM     16  O   UNL     1       3.222  -0.678   0.659  0.00  0.00    -0.488 OA
ENDBRANCH   5   6
BRANCH   5  18
ATOM     17  C   UNL     1      -2.890   4.074   1.722  0.00  0.00    +0.009 C 
ATOM     18  C   UNL     1      -1.625   3.215   1.783  0.00  0.00    +0.008 C 
ATOM     19  C   UNL     1      -1.758   2.189   2.910  0.00  0.00    +0.009 C 
ENDBRANCH   5  18
ENDBRANCH   1   5
BRANCH   2  20
ATOM     20  C   UNL     1      -2.282   4.989  -2.321  0.00  0.00    +0.019 C 
BRANCH  20  26
ATOM     21  C   UNL     1      -3.559   6.429  -3.789  0.00  0.00    -0.076 C 
ATOM     22  C   UNL     1      -4.977   6.786  -4.240  0.00  0.00    +0.006 C 
ATOM     23  C   UNL     1      -5.600   5.582  -4.952  0.00  0.00    +0.089 C 
ATOM     24  C   UNL     1      -5.595   4.380  -4.004  0.00  0.00    +0.006 C 
ATOM     25  C   UNL     1      -4.159   4.092  -3.559  0.00  0.00    -0.076 C 
ATOM     26  N   UNL     1      -3.626   5.281  -2.860  0.00  0.00    +0.386 N 
ATOM     27  H   UNL     1      -4.253   5.519  -2.082  0.00  0.00    -0.081 HD
BRANCH  23  28
ATOM     28  N   UNL     1      -6.978   5.897  -5.337  0.00  0.00    -0.289 N 
ATOM     29  C   UNL     1      -7.482   5.895  -6.635  0.00  0.00    +0.070 A 
ATOM     30  C   UNL     1      -6.921   5.626  -7.874  0.00  0.00    +0.028 A 
ATOM     31  C   UNL     1      -7.697   5.711  -9.013  0.00  0.00    +0.002 A 
ATOM     32  C   UNL     1      -9.033   6.062  -8.923  0.00  0.00    +0.002 A 
ATOM     33  C   UNL     1      -9.601   6.331  -7.694  0.00  0.00    +0.028 A 
ATOM     34  C   UNL     1      -8.830   6.250  -6.544  0.00  0.00    +0.067 A 
ATOM     35  N   UNL     1      -9.102   6.455  -5.194  0.00  0.00    -0.306 N 
ATOM     36  H   UNL     1      -9.960   6.712  -4.820  0.00  0.00    +0.170 HD
ATOM     37  C   UNL     1      -7.974   6.231  -4.495  0.00  0.00    +0.328 A 
ATOM     38  O   UNL     1      -7.869   6.321  -3.286  0.00  0.00    -0.247 OA
ENDBRANCH  23  28
ENDBRANCH  20  26
ENDBRANCH   2  20
TORSDOF 6
