REMARK  Name = ZINC64895826
REMARK  9 active torsions:
REMARK  status: ('A' for Active; 'I' for Inactive)
REMARK    1  A    between atoms: C_1  and  C_2
REMARK    2  A    between atoms: C_4  and  C_29
REMARK    3  A    between atoms: C_5  and  C_28
REMARK    4  A    between atoms: C_7  and  C_8
REMARK    5  A    between atoms: C_14  and  C_17
REMARK    6  A    between atoms: N_19  and  C_20
REMARK    7  A    between atoms: C_20  and  C_21
REMARK    8  A    between atoms: C_29  and  O_31
REMARK    9  A    between atoms: O_31  and  C_32
REMARK                            x       y       z     vdW  Elec       q    Type
REMARK                         _______ _______ _______ _____ _____    ______ ____
ROOT
ATOM      1  C   UNL     1       2.034  -0.312   1.719  0.00  0.00    +0.261 C 
ATOM      2  O   UNL     1       2.814   0.287   1.006  0.00  0.00    -0.269 OA
ATOM      3  N   UNL     1       2.435  -0.772   2.921  0.00  0.00    -0.296 N 
ATOM      4  C   UNL     1       1.541  -1.600   3.742  0.00  0.00    +0.108 C 
ATOM      5  C   UNL     1       1.427  -0.970   5.134  0.00  0.00    +0.020 C 
ATOM      6  C   UNL     1       2.828  -0.783   5.722  0.00  0.00    +0.016 C 
ATOM      7  C   UNL     1       3.636   0.161   4.829  0.00  0.00    +0.092 C 
ATOM      8  C   UNL     1       3.777  -0.460   3.432  0.00  0.00    +0.120 C 
ENDROOT
BRANCH   1  14
ATOM      9  C   UNL     1      -0.032   1.549   0.051  0.00  0.00    +0.019 C 
ATOM     10  C   UNL     1      -0.006   0.019   0.016  0.00  0.00    +0.078 C 
ATOM     11  C   UNL     1      -1.414  -0.544   0.085  0.00  0.00    +0.066 C 
ATOM     12  C   UNL     1      -1.441  -1.275   1.224  0.00  0.00    +0.049 C 
ATOM     13  N   UNL     1      -0.271  -1.249   1.867  0.00  0.00    -0.250 NA
ATOM     14  C   UNL     1       0.643  -0.536   1.269  0.00  0.00    +0.111 C 
ATOM     15  C   UNL     1      -2.651  -2.030   1.711  0.00  0.00    +0.066 C 
BRANCH  11  16
ATOM     16  C   UNL     1      -2.505  -0.341  -0.872  0.00  0.00    +0.337 C 
ATOM     17  O   UNL     1      -3.587  -0.862  -0.680  0.00  0.00    -0.245 OA
BRANCH  16  18
ATOM     18  O   UNL     1      -2.309   0.423  -1.966  0.00  0.00    -0.465 OA
ATOM     19  C   UNL     1      -3.416   0.578  -2.857  0.00  0.00    +0.280 C 
ENDBRANCH  16  18
ENDBRANCH  11  16
ENDBRANCH   1  14
BRANCH   7  20
ATOM     20  C   UNL     1       5.003   0.370   5.426  0.00  0.00    +0.218 C 
ATOM     21  O   UNL     1       5.303  -0.182   6.464  0.00  0.00    -0.275 OA
ATOM     22  N   UNL     1       5.894   1.171   4.808  0.00  0.00    -0.311 N 
ATOM     23  H   UNL     1       5.654   1.613   3.978  0.00  0.00    +0.149 HD
BRANCH  22  24
ATOM     24  C   UNL     1       7.223   1.375   5.388  0.00  0.00    +0.139 C 
BRANCH  24  25
ATOM     25  C   UNL     1       8.018   2.305   4.509  0.00  0.00    -0.030 A 
ATOM     26  C   UNL     1       8.792   1.794   3.483  0.00  0.00    +0.008 A 
ATOM     27  C   UNL     1       9.521   2.646   2.676  0.00  0.00    +0.038 A 
ATOM     28  C   UNL     1       9.477   4.012   2.894  0.00  0.00    +0.123 A 
ATOM     29  C   UNL     1       8.702   4.523   3.922  0.00  0.00    +0.038 A 
ATOM     30  C   UNL     1       7.969   3.670   4.724  0.00  0.00    +0.008 A 
ATOM     31  F   UNL     1      10.189   4.846   2.106  0.00  0.00    -0.205 F 
ENDBRANCH  24  25
ENDBRANCH  22  24
ENDBRANCH   7  20
TORSDOF 6
