REMARK  Name = ZINC39016563
REMARK  5 active torsions:
REMARK  status: ('A' for Active; 'I' for Inactive)
REMARK    1  A    between atoms: C_1  and  C_2
REMARK    2  A    between atoms: C_7  and  C_8
REMARK    3  A    between atoms: N_14  and  N_15
REMARK    4  A    between atoms: C_16  and  C_17
REMARK    5  A    between atoms: C_22  and  O_23
REMARK                            x       y       z     vdW  Elec       q    Type
REMARK                         _______ _______ _______ _____ _____    ______ ____
ROOT
ATOM      1  C   UNL     1      -0.064   0.131   2.644  0.00  0.00    +0.264 C 
ATOM      2  N   UNL     1       0.849   1.265   2.435  0.00  0.00    -0.189 NA
ATOM      3  N   UNL     1       1.887   1.043   3.065  0.00  0.00    -0.219 N 
ATOM      4  C   UNL     1       1.868  -0.139   3.737  0.00  0.00    +0.174 C 
ATOM      5  S   UNL     1       3.149  -0.738   4.703  0.00  0.00    -0.015 S 
ATOM      6  N   UNL     1       0.689  -0.774   3.533  0.00  0.00    -0.172 N 
ATOM      7  H   UNL     1       2.641   1.653   3.080  0.00  0.00    +0.176 HD
ENDROOT
BRANCH   1  14
ATOM      8  C   UNL     1      -0.428   1.706   0.250  0.00  0.00    +0.044 C 
ATOM      9  C   UNL     1      -0.546   0.204   0.190  0.00  0.00    -0.044 A 
ATOM     10  C   UNL     1      -0.824  -0.420  -1.013  0.00  0.00    +0.004 A 
ATOM     11  C   UNL     1      -0.932  -1.796  -1.068  0.00  0.00    +0.000 A 
ATOM     12  C   UNL     1      -0.763  -2.550   0.079  0.00  0.00    +0.000 A 
ATOM     13  C   UNL     1      -0.485  -1.926   1.281  0.00  0.00    +0.008 A 
ATOM     14  C   UNL     1      -0.372  -0.549   1.335  0.00  0.00    +0.001 A 
ENDBRANCH   1  14
BRANCH   6  15
ATOM     15  N   UNL     1       0.277  -2.010   4.047  0.00  0.00    -0.183 NA
ATOM     16  C   UNL     1       1.017  -2.632   4.915  0.00  0.00    +0.142 C 
BRANCH  16  17
ATOM     17  C   UNL     1       0.659  -3.994   5.347  0.00  0.00    +0.038 A 
ATOM     18  C   UNL     1       1.449  -4.664   6.285  0.00  0.00    +0.028 A 
ATOM     19  C   UNL     1       1.108  -5.940   6.685  0.00  0.00    +0.020 A 
ATOM     20  C   UNL     1      -0.015  -6.559   6.161  0.00  0.00    +0.034 A 
ATOM     21  C   UNL     1      -0.805  -5.907   5.232  0.00  0.00    +0.061 A 
ATOM     22  C   UNL     1      -0.479  -4.623   4.824  0.00  0.00    +0.139 A 
ATOM     23 BR   UNL     1      -2.334  -6.764   4.525  0.00  0.00    -0.046 Br
ATOM     24 BR   UNL     1       2.178  -6.846   7.954  0.00  0.00    -0.050 Br
BRANCH  22  25
ATOM     25  O   UNL     1      -1.258  -3.979   3.916  0.00  0.00    -0.505 OA
ATOM     26  H   UNL     1      -0.996  -4.128   2.997  0.00  0.00    +0.292 HD
ENDBRANCH  22  25
ENDBRANCH  16  17
ENDBRANCH   6  15
TORSDOF 4
