REMARK  Name = ZINC33419580
REMARK  5 active torsions:
REMARK  status: ('A' for Active; 'I' for Inactive)
REMARK    1  A    between atoms: C_1  and  O_2
REMARK    2  A    between atoms: O_2  and  C_3
REMARK    3  A    between atoms: C_8  and  C_9
REMARK    4  A    between atoms: C_10  and  C_22
REMARK    5  A    between atoms: C_12  and  C_17
REMARK                            x       y       z     vdW  Elec       q    Type
REMARK                         _______ _______ _______ _____ _____    ______ ____
ROOT
ATOM      1  C   UNL     1       0.368   0.420   1.570  0.00  0.00    +0.104 A 
ATOM      2  C   UNL     1       0.893  -0.432   0.595  0.00  0.00    +0.114 A 
ATOM      3  N   UNL     1       1.029   0.333  -0.579  0.00  0.00    -0.280 N 
ATOM      4  C   UNL     1       1.465   0.149  -1.877  0.00  0.00    +0.098 A 
ATOM      5  C   UNL     1       1.440   1.178  -2.753  0.00  0.00    +0.078 A 
ATOM      6  S   UNL     1       0.777   2.498  -1.751  0.00  0.00    -0.057 S 
ATOM      7  C   UNL     1       0.584   1.579  -0.240  0.00  0.00    +0.179 A 
ATOM      8  N   UNL     1       0.201   1.620   1.011  0.00  0.00    -0.220 NA
ENDROOT
BRANCH   1  14
ATOM      9  C   UNL     1      -0.382   1.037   3.870  0.00  0.00    +0.129 A 
ATOM     10  C   UNL     1      -0.678   0.686   5.177  0.00  0.00    +0.046 A 
ATOM     11  C   UNL     1      -0.533  -0.624   5.593  0.00  0.00    +0.004 A 
ATOM     12  C   UNL     1      -0.097  -1.595   4.707  0.00  0.00    +0.001 A 
ATOM     13  C   UNL     1       0.196  -1.262   3.401  0.00  0.00    +0.014 A 
ATOM     14  C   UNL     1       0.054   0.057   2.970  0.00  0.00    +0.044 A 
BRANCH   9  16
ATOM     15  C   UNL     1      -0.969   3.269   4.435  0.00  0.00    +0.277 C 
ATOM     16  O   UNL     1      -0.519   2.325   3.462  0.00  0.00    -0.494 OA
ENDBRANCH   9  16
ENDBRANCH   1  14
BRANCH   4  17
ATOM     17  C   UNL     1       1.958  -1.170  -2.307  0.00  0.00    +0.152 A 
ATOM     18  C   UNL     1       2.637  -1.435  -3.457  0.00  0.00    +0.051 A 
ATOM     19  C   UNL     1       2.909  -2.818  -3.459  0.00  0.00    +0.042 A 
ATOM     20  C   UNL     1       2.389  -3.324  -2.324  0.00  0.00    +0.196 A 
ATOM     21  O   UNL     1       1.819  -2.326  -1.627  0.00  0.00    -0.461 OA
ENDBRANCH   4  17
BRANCH   2  22
ATOM     22  C   UNL     1       1.221  -1.784   0.754  0.00  0.00    +0.279 C 
ATOM     23  O   UNL     1       2.385  -2.119   0.863  0.00  0.00    -0.294 OA
ENDBRANCH   2  22
TORSDOF 4
