REMARK  Name = ZINC13063938
REMARK  10 active torsions:
REMARK  status: ('A' for Active; 'I' for Inactive)
REMARK    1  A    between atoms: C_1  and  C_2
REMARK    2  A    between atoms: C_2  and  C_3
REMARK    3  A    between atoms: C_3  and  C_5
REMARK    4  A    between atoms: C_3  and  N_66
REMARK    5  A    between atoms: N_9  and  C_10
REMARK    6  A    between atoms: C_10  and  C_11
REMARK    7  A    between atoms: C_18  and  C_19
REMARK    8  A    between atoms: C_18  and  N_66
REMARK    9  A    between atoms: C_24  and  C_31
REMARK   10  A    between atoms: C_32  and  N_66
REMARK                            x       y       z     vdW  Elec       q    Type
REMARK                         _______ _______ _______ _____ _____    ______ ____
ROOT
ATOM      1  N   UNL     1      -1.137   0.729   2.278  0.00  0.00    +0.391 N 
ATOM      2  H   UNL     1      -1.158   1.411   3.045  0.00  0.00    -0.080 HD
ENDROOT
BRANCH   1   3
ATOM      3  C   UNL     1      -0.066   1.106   1.331  0.00  0.00    -0.067 C 
ATOM      4  C   UNL     1      -0.457   2.395   0.566  0.00  0.00    -0.015 C 
ATOM      5  C   UNL     1       0.917   2.976   0.151  0.00  0.00    -0.002 C 
ATOM      6  C   UNL     1       1.830   2.689   1.361  0.00  0.00    -0.002 C 
ATOM      7  C   UNL     1       1.205   1.500   2.111  0.00  0.00    -0.015 C 
ENDBRANCH   1   3
BRANCH   1   8
ATOM      8  C   UNL     1      -2.445   0.738   1.591  0.00  0.00    +0.003 C 
BRANCH   8   9
ATOM      9  C   UNL     1      -2.436  -0.217   0.424  0.00  0.00    +0.138 A 
ATOM     10  N   UNL     1      -1.656  -1.259   0.272  0.00  0.00    -0.115 NA
ATOM     11  N   UNL     1      -1.953  -1.818  -0.850  0.00  0.00    -0.023 NA
ATOM     12  N   UNL     1      -2.903  -1.159  -1.417  0.00  0.00    -0.044 NA
ATOM     13  N   UNL     1      -3.232  -0.168  -0.660  0.00  0.00    -0.226 N 
BRANCH  13  14
ATOM     14  C   UNL     1      -4.274   0.826  -0.931  0.00  0.00    +0.182 C 
BRANCH  14  15
ATOM     15  C   UNL     1      -3.712   1.916  -1.807  0.00  0.00    -0.026 A 
ATOM     16  C   UNL     1      -3.218   3.074  -1.237  0.00  0.00    +0.008 A 
ATOM     17  C   UNL     1      -2.698   4.072  -2.039  0.00  0.00    +0.038 A 
ATOM     18  C   UNL     1      -2.683   3.917  -3.414  0.00  0.00    +0.123 A 
ATOM     19  C   UNL     1      -3.183   2.759  -3.985  0.00  0.00    +0.038 A 
ATOM     20  C   UNL     1      -3.698   1.759  -3.180  0.00  0.00    +0.008 A 
ATOM     21  F   UNL     1      -2.180   4.894  -4.200  0.00  0.00    -0.205 F 
ENDBRANCH  14  15
ENDBRANCH  13  14
ENDBRANCH   8   9
BRANCH   8  23
ATOM     22  C   UNL     1      -3.541   1.288   3.768  0.00  0.00    +0.002 C 
ATOM     23  C   UNL     1      -3.531   0.319   2.584  0.00  0.00    -0.011 C 
ENDBRANCH   8  23
ENDBRANCH   1   8
BRANCH   1  24
ATOM     24  C   UNL     1      -0.868  -0.613   2.836  0.00  0.00    -0.036 C 
BRANCH  24  25
ATOM     25  C   UNL     1       0.183  -0.489   3.908  0.00  0.00    +0.001 A 
ATOM     26  C   UNL     1      -0.145   0.023   5.120  0.00  0.00    +0.017 A 
ATOM     27  C   UNL     1       0.898   0.126   6.142  0.00  0.00    -0.001 A 
ATOM     28  C   UNL     1       0.618   0.641   7.412  0.00  0.00    +0.010 A 
ATOM     29  C   UNL     1       1.615   0.729   8.342  0.00  0.00    +0.004 A 
ATOM     30  C   UNL     1       2.904   0.312   8.037  0.00  0.00    -0.048 A 
ATOM     31  C   UNL     1       3.202  -0.200   6.793  0.00  0.00    +0.029 A 
ATOM     32  C   UNL     1       2.203  -0.298   5.830  0.00  0.00    +0.049 A 
ATOM     33  N   UNL     1       2.474  -0.804   4.577  0.00  0.00    -0.322 N 
ATOM     34  H   UNL     1       3.373  -1.096   4.363  0.00  0.00    +0.169 HD
ATOM     35  C   UNL     1       1.508  -0.900   3.646  0.00  0.00    +0.251 A 
ATOM     36  O   UNL     1       1.783  -1.352   2.548  0.00  0.00    -0.268 OA
ATOM     37  C   UNL     1       3.987   0.419   9.079  0.00  0.00    +0.044 C 
ENDBRANCH  24  25
ENDBRANCH   1  24
TORSDOF 8
