REMARK  Name = ZINC00365814
REMARK  4 active torsions:
REMARK  status: ('A' for Active; 'I' for Inactive)
REMARK    1  A    between atoms: C_1  and  O_2
REMARK    2  A    between atoms: O_2  and  C_3
REMARK    3  A    between atoms: C_7  and  C_9
REMARK    4  A    between atoms: N_15  and  C_16
REMARK                            x       y       z     vdW  Elec       q    Type
REMARK                         _______ _______ _______ _____ _____    ______ ____
ROOT
ATOM      1  C   UNL     1       1.399  -4.095   2.227  0.00  0.00    +0.028 C 
ATOM      2  C   UNL     1       2.110  -4.698   3.211  0.00  0.00    +0.078 C 
ATOM      3  C   UNL     1       2.797  -4.099   4.374  0.00  0.00    +0.256 C 
ATOM      4  O   UNL     1       2.786  -2.898   4.570  0.00  0.00    -0.269 OA
ATOM      5  N   UNL     1       3.425  -4.928   5.191  0.00  0.00    -0.260 N 
ATOM      6  C   UNL     1       3.426  -6.285   4.951  0.00  0.00    +0.166 C 
ATOM      7  N   UNL     1       3.994  -7.238   5.654  0.00  0.00    -0.226 NA
ATOM      8  S   UNL     1       2.461  -6.433   3.456  0.00  0.00    -0.049 S 
ATOM      9  H   UNL     1       3.890  -4.577   5.967  0.00  0.00    +0.157 HD
ENDROOT
BRANCH   7  10
ATOM     10  C   UNL     1       4.696  -6.927   6.788  0.00  0.00    +0.067 A 
ATOM     11  C   UNL     1       5.589  -5.854   6.787  0.00  0.00    +0.030 A 
ATOM     12  C   UNL     1       6.293  -5.545   7.932  0.00  0.00    +0.040 A 
ATOM     13  C   UNL     1       6.116  -6.298   9.082  0.00  0.00    +0.124 A 
ATOM     14  C   UNL     1       5.230  -7.364   9.089  0.00  0.00    +0.040 A 
ATOM     15  C   UNL     1       4.516  -7.678   7.951  0.00  0.00    +0.030 A 
ATOM     16  F   UNL     1       6.809  -5.992  10.200  0.00  0.00    -0.205 F 
ENDBRANCH   7  10
BRANCH   1  21
ATOM     17  C   UNL     1       2.540  -0.519   2.264  0.00  0.00    +0.121 A 
ATOM     18  C   UNL     1       1.366   0.138   1.918  0.00  0.00    +0.045 A 
ATOM     19  C   UNL     1       0.210  -0.581   1.674  0.00  0.00    +0.004 A 
ATOM     20  C   UNL     1       0.213  -1.956   1.772  0.00  0.00    +0.008 A 
ATOM     21  C   UNL     1       1.390  -2.628   2.120  0.00  0.00    -0.020 A 
ATOM     22  C   UNL     1       2.559  -1.899   2.360  0.00  0.00    +0.053 A 
BRANCH  17  24
ATOM     23  C   UNL     1       3.580   1.615   2.385  0.00  0.00    +0.277 C 
ATOM     24  O   UNL     1       3.672   0.194   2.502  0.00  0.00    -0.495 OA
ENDBRANCH  17  24
ENDBRANCH   1  21
TORSDOF 3
