REMARK  Name = ZINC03035397
REMARK  6 active torsions:
REMARK  status: ('A' for Active; 'I' for Inactive)
REMARK    1  A    between atoms: C_1  and  C_2
REMARK    2  A    between atoms: C_6  and  C_23
REMARK    3  A    between atoms: C_7  and  O_8
REMARK    4  A    between atoms: O_8  and  C_9
REMARK    5  A    between atoms: C_9  and  C_10
REMARK    6  A    between atoms: N_12  and  N_13
REMARK                            x       y       z     vdW  Elec       q    Type
REMARK                         _______ _______ _______ _____ _____    ______ ____
ROOT
ATOM      1  C   UNL     1      -1.205   7.253  -0.149  0.00  0.00    +0.270 C 
ATOM      2  O   UNL     1      -0.161   7.870  -0.156  0.00  0.00    -0.270 OA
ATOM      3  N   UNL     1      -1.192   5.909  -0.054  0.00  0.00    -0.203 N 
ATOM      4  H   UNL     1      -2.027   5.415  -0.049  0.00  0.00    +0.177 HD
ENDROOT
BRANCH   3   5
ATOM      5  N   UNL     1      -0.070   5.278   0.029  0.00  0.00    -0.170 NA
ATOM      6  C   UNL     1      -0.052   3.964   0.024  0.00  0.00    +0.205 C 
ATOM      7  C   UNL     1       1.197   3.206   0.262  0.00  0.00    +0.276 C 
ATOM      8  O   UNL     1       2.247   3.781   0.471  0.00  0.00    -0.268 OA
ATOM      9  N   UNL     1       1.136   1.858   0.241  0.00  0.00    -0.234 N 
ATOM     10  C   UNL     1      -0.014   1.211   0.011  0.00  0.00    +0.313 C 
ATOM     11  O   UNL     1       0.002  -0.004   0.006  0.00  0.00    -0.252 OA
ATOM     12  N   UNL     1      -1.181   1.829  -0.217  0.00  0.00    -0.234 N 
ATOM     13  C   UNL     1      -1.279   3.175  -0.221  0.00  0.00    +0.276 C 
ATOM     14  O   UNL     1      -2.345   3.723  -0.425  0.00  0.00    -0.268 OA
ATOM     15  H   UNL     1       1.945   1.346   0.395  0.00  0.00    +0.159 HD
ATOM     16  H   UNL     1      -1.975   1.296  -0.380  0.00  0.00    +0.159 HD
ENDBRANCH   3   5
BRANCH   1  17
ATOM     17  C   UNL     1      -2.516   7.989  -0.247  0.00  0.00    +0.326 C 
BRANCH  17  18
ATOM     18  O   UNL     1      -2.268   9.393  -0.338  0.00  0.00    -0.482 OA
BRANCH  18  25
ATOM     19  C   UNL     1      -3.213  10.006  -2.928  0.00  0.00    +0.047 C 
ATOM     20  C   UNL     1      -3.862  10.543  -1.679  0.00  0.00    -0.008 A 
ATOM     21  C   UNL     1      -4.967  11.366  -1.773  0.00  0.00    +0.021 A 
ATOM     22  C   UNL     1      -5.560  11.863  -0.627  0.00  0.00    +0.014 A 
ATOM     23  C   UNL     1      -5.051  11.533   0.617  0.00  0.00    +0.021 A 
ATOM     24  C   UNL     1      -3.949  10.707   0.716  0.00  0.00    -0.008 A 
ATOM     25  C   UNL     1      -3.353  10.207  -0.433  0.00  0.00    +0.127 A 
ATOM     26  C   UNL     1      -3.395  10.348   2.071  0.00  0.00    +0.047 C 
ATOM     27  I   UNL     1      -7.232  13.117  -0.773  0.00  0.00    -0.044 I 
ENDBRANCH  18  25
ENDBRANCH  17  18
ENDBRANCH   1  17
TORSDOF 4
