REMARK  Name = ZINC43867043
REMARK  7 active torsions:
REMARK  status: ('A' for Active; 'I' for Inactive)
REMARK    1  A    between atoms: C_1  and  C_2
REMARK    2  A    between atoms: C_9  and  O_20
REMARK    3  A    between atoms: C_12  and  C_14
REMARK    4  A    between atoms: C_23  and  O_39
REMARK    5  A    between atoms: C_24  and  C_31
REMARK    6  A    between atoms: C_27  and  O_30
REMARK    7  A    between atoms: N_32  and  C_33
REMARK                            x       y       z     vdW  Elec       q    Type
REMARK                         _______ _______ _______ _____ _____    ______ ____
ROOT
ATOM      1  C   UNL     1       0.610   1.649   0.786  0.00  0.00    +0.014 C 
ATOM      2  C   UNL     1       0.610   0.123   0.731  0.00  0.00    +0.004 C 
ATOM      3  C   UNL     1      -0.776  -0.431   0.542  0.00  0.00    +0.010 C 
ATOM      4  C   UNL     1      -1.562  -0.464   1.859  0.00  0.00    +0.005 C 
ATOM      5  C   UNL     1      -0.841   0.244   2.991  0.00  0.00    +0.009 C 
ATOM      6  C   UNL     1       0.551  -0.326   3.230  0.00  0.00    +0.025 C 
ATOM      7  C   UNL     1       1.297  -0.536   1.946  0.00  0.00    +0.075 C 
ATOM      8  C   UNL     1       2.718   0.035   1.838  0.00  0.00    +0.036 C 
ATOM      9  C   UNL     1       2.997  -0.050   0.309  0.00  0.00    +0.011 C 
ATOM     10  C   UNL     1       1.621  -0.266  -0.374  0.00  0.00    +0.027 C 
ATOM     11  C   UNL     1       1.290   0.536   4.244  0.00  0.00    +0.009 C 
ATOM     12  C   UNL     1       0.505   0.601   5.556  0.00  0.00    +0.036 C 
ATOM     13  C   UNL     1      -0.803  -0.177   5.478  0.00  0.00    +0.079 C 
ATOM     14  C   UNL     1      -1.649   0.258   4.287  0.00  0.00    +0.036 C 
ATOM     15  C   UNL     1      -2.869  -0.656   4.195  0.00  0.00    +0.018 C 
ATOM     16  C   UNL     1      -3.712  -0.531   5.463  0.00  0.00    +0.032 C 
ATOM     17  C   UNL     1      -2.897  -0.790   6.723  0.00  0.00    +0.117 C 
ATOM     18  C   UNL     1      -1.610   0.027   6.768  0.00  0.00    +0.067 C 
ENDROOT
BRANCH  10  19
ATOM     19  C   UNL     1       1.465   0.660  -1.553  0.00  0.00    -0.022 C 
ATOM     20  C   UNL     1       2.339   1.576  -1.964  0.00  0.00    +0.094 C 
ATOM     21  C   UNL     1       1.799   2.256  -3.145  0.00  0.00    +0.332 C 
ATOM     22  O   UNL     1       2.359   3.144  -3.757  0.00  0.00    -0.246 OA
ATOM     23  O   UNL     1       0.591   1.748  -3.451  0.00  0.00    -0.457 OA
ATOM     24  C   UNL     1       0.290   0.721  -2.500  0.00  0.00    +0.264 C 
ENDBRANCH  10  19
BRANCH  14  25
ATOM     25  C   UNL     1      -2.124   1.684   4.487  0.00  0.00    +0.060 C 
ATOM     26  N   UNL     1      -3.364   1.971   4.349  0.00  0.00    -0.390 N 
ATOM     27  H   UNL     1      -3.984   1.298   4.026  0.00  0.00    +0.159 HD
BRANCH  26  28
ATOM     28  C   UNL     1      -3.846   3.314   4.678  0.00  0.00    +0.078 C 
ATOM     29  C   UNL     1      -4.899   3.221   5.784  0.00  0.00    +0.024 C 
ATOM     30  C   UNL     1      -5.402   4.624   6.128  0.00  0.00    +0.002 C 
ATOM     31  C   UNL     1      -6.025   5.262   4.885  0.00  0.00    +0.000 C 
ATOM     32  C   UNL     1      -4.972   5.355   3.778  0.00  0.00    +0.002 C 
ATOM     33  C   UNL     1      -4.468   3.952   3.434  0.00  0.00    +0.024 C 
ENDBRANCH  26  28
ENDBRANCH  14  25
BRANCH   7  34
ATOM     34  O   UNL     1       1.381  -1.962   1.708  0.00  0.00    -0.388 OA
ATOM     35  H   UNL     1       1.802  -2.456   2.425  0.00  0.00    +0.210 HD
ENDBRANCH   7  34
BRANCH  17  36
ATOM     36  O   UNL     1      -2.603  -2.184   6.832  0.00  0.00    -0.392 OA
ATOM     37  H   UNL     1      -3.386  -2.749   6.882  0.00  0.00    +0.210 HD
ENDBRANCH  17  36
BRANCH  13  38
ATOM     38  O   UNL     1      -0.517  -1.581   5.396  0.00  0.00    -0.388 OA
ATOM     39  H   UNL     1      -0.023  -1.927   6.152  0.00  0.00    +0.210 HD
ENDBRANCH  13  38
TORSDOF 6
