REMARK  Name = ZINC15947259
REMARK  7 active torsions:
REMARK  status: ('A' for Active; 'I' for Inactive)
REMARK    1  A    between atoms: C_1  and  C_2
REMARK    2  A    between atoms: C_2  and  N_3
REMARK    3  A    between atoms: C_11  and  O_32
REMARK    4  A    between atoms: C_13  and  C_16
REMARK    5  A    between atoms: C_19  and  O_22
REMARK    6  A    between atoms: O_22  and  C_23
REMARK    7  A    between atoms: C_23  and  C_25
REMARK                            x       y       z     vdW  Elec       q    Type
REMARK                         _______ _______ _______ _____ _____    ______ ____
ROOT
ATOM      1  N   UNL     1      -1.331  -0.814   0.414  0.00  0.00    +0.383 N 
ATOM      2  C   UNL     1      -1.382  -2.281   0.467  0.00  0.00    -0.074 C 
ATOM      3  C   UNL     1      -2.822  -2.752   0.696  0.00  0.00    +0.018 C 
ATOM      4  C   UNL     1      -3.705  -2.084  -0.349  0.00  0.00    -0.027 A 
ATOM      5  C   UNL     1      -3.253  -1.000  -1.024  0.00  0.00    -0.021 A 
ATOM      6  S   UNL     1      -4.579  -0.564  -2.114  0.00  0.00    -0.080 S 
ATOM      7  C   UNL     1      -5.671  -1.741  -1.700  0.00  0.00    +0.080 A 
ATOM      8  C   UNL     1      -5.041  -2.510  -0.713  0.00  0.00    +0.067 A 
ATOM      9  C   UNL     1      -5.794  -3.664  -0.160  0.00  0.00    +0.220 C 
ATOM     10  N   UNL     1      -7.068  -3.745  -0.435  0.00  0.00    -0.223 NA
ATOM     11  C   UNL     1      -7.815  -2.749  -1.192  0.00  0.00    +0.224 C 
ATOM     12  N   UNL     1      -6.947  -2.022  -2.136  0.00  0.00    -0.313 N 
ATOM     13  C   UNL     1      -1.920  -0.344  -0.853  0.00  0.00    -0.035 C 
ATOM     14  H   UNL     1      -7.258  -1.755  -3.015  0.00  0.00    +0.149 HD
ATOM     15  H   UNL     1      -1.853  -0.432   1.189  0.00  0.00    -0.081 HD
ENDROOT
BRANCH  11  16
ATOM     16  C   UNL     1      -8.431  -1.763  -0.234  0.00  0.00    -0.005 A 
ATOM     17  C   UNL     1      -8.644  -0.456  -0.630  0.00  0.00    +0.011 A 
ATOM     18  C   UNL     1      -9.209   0.450   0.247  0.00  0.00    +0.047 A 
ATOM     19  C   UNL     1      -9.564   0.047   1.526  0.00  0.00    +0.132 A 
ATOM     20  C   UNL     1      -9.350  -1.266   1.921  0.00  0.00    +0.047 A 
ATOM     21  C   UNL     1      -8.789  -2.169   1.039  0.00  0.00    +0.011 A 
BRANCH  19  22
ATOM     22  O   UNL     1     -10.120   0.936   2.390  0.00  0.00    -0.422 OA
BRANCH  22  23
ATOM     23  C   UNL     1     -11.367   1.375   2.131  0.00  0.00    +0.344 C 
ATOM     24  O   UNL     1     -12.000   0.899   1.210  0.00  0.00    -0.245 OA
BRANCH  23  25
ATOM     25  C   UNL     1     -11.965   2.434   2.967  0.00  0.00    +0.059 A 
ATOM     26  C   UNL     1     -11.239   2.988   4.024  0.00  0.00    +0.016 A 
ATOM     27  C   UNL     1     -11.803   3.978   4.801  0.00  0.00    +0.021 A 
ATOM     28  C   UNL     1     -13.087   4.423   4.536  0.00  0.00    +0.041 A 
ATOM     29  C   UNL     1     -13.813   3.878   3.489  0.00  0.00    +0.021 A 
ATOM     30  C   UNL     1     -13.258   2.892   2.702  0.00  0.00    +0.016 A 
ATOM     31 CL   UNL     1     -13.791   5.668   5.519  0.00  0.00    -0.084 Cl
ENDBRANCH  23  25
ENDBRANCH  22  23
ENDBRANCH  19  22
ENDBRANCH  11  16
BRANCH   1  33
ATOM     32  C   UNL     1       0.112   1.158   0.573  0.00  0.00    -0.017 C 
ATOM     33  C   UNL     1       0.066  -0.369   0.499  0.00  0.00    -0.082 C 
ENDBRANCH   1  33
BRANCH   9  34
ATOM     34  O   UNL     1      -5.181  -4.600   0.601  0.00  0.00    -0.492 OA
ATOM     35  H   UNL     1      -5.769  -5.305   0.907  0.00  0.00    +0.294 HD
ENDBRANCH   9  34
TORSDOF 6
