REMARK  Name = ZINC21264290
REMARK  13 active torsions:
REMARK  status: ('A' for Active; 'I' for Inactive)
REMARK    1  A    between atoms: C_1  and  C_2
REMARK    2  A    between atoms: C_2  and  N_3
REMARK    3  A    between atoms: C_7  and  C_9
REMARK    4  A    between atoms: C_9  and  N_10
REMARK    5  A    between atoms: N_10  and  C_11
REMARK    6  A    between atoms: N_10  and  C_17
REMARK    7  A    between atoms: C_11  and  C_12
REMARK    8  A    between atoms: C_17  and  N_19
REMARK    9  A    between atoms: N_19  and  C_20
REMARK   10  A    between atoms: C_22  and  C_28
REMARK   11  A    between atoms: C_22  and  C_29
REMARK   12  A    between atoms: C_24  and  C_26
REMARK   13  A    between atoms: C_24  and  C_27
REMARK                            x       y       z     vdW  Elec       q    Type
REMARK                         _______ _______ _______ _____ _____    ______ ____
ROOT
ATOM      1  N   UNL     1      -0.226  -0.318  -0.899  0.00  0.00    -0.307 N 
ENDROOT
BRANCH   1   2
ATOM      2  C   UNL     1      -1.399  -0.528  -1.528  0.00  0.00    +0.133 C 
ATOM      3  S   UNL     1      -1.427  -0.803  -3.218  0.00  0.00    -0.019 S 
BRANCH   2   4
ATOM      4  N   UNL     1      -2.550  -0.520  -0.827  0.00  0.00    -0.324 N 
ATOM      5  H   UNL     1      -2.533  -0.344   0.258  0.00  0.00    +0.148 HD
BRANCH   4   6
ATOM      6  C   UNL     1      -3.829  -0.748  -1.513  0.00  0.00    +0.069 C 
ATOM      7  C   UNL     1      -4.354   0.581  -2.055  0.00  0.00    +0.009 C 
ATOM      8  C   UNL     1      -5.695   0.378  -2.754  0.00  0.00    -0.072 C 
ATOM      9  N   UNL     1      -6.638  -0.382  -1.960  0.00  0.00    +0.386 N 
ATOM     10  C   UNL     1      -6.191  -1.528  -1.196  0.00  0.00    -0.072 C 
ATOM     11  C   UNL     1      -4.845  -1.301  -0.514  0.00  0.00    +0.009 C 
ATOM     12  C   UNL     1      -6.116  -2.784  -2.073  0.00  0.00    -0.010 C 
ATOM     13  C   UNL     1      -7.233  -1.805  -0.089  0.00  0.00    -0.010 C 
ATOM     14  C   UNL     1      -5.467  -0.279  -4.121  0.00  0.00    -0.010 C 
ATOM     15  C   UNL     1      -6.301   1.776  -3.014  0.00  0.00    -0.010 C 
ATOM     16  H   UNL     1      -7.095   0.275  -1.206  0.00  0.00    -0.084 HD
ATOM     17  H   UNL     1      -7.422  -0.791  -2.614  0.00  0.00    -0.084 HD
ENDBRANCH   4   6
ENDBRANCH   2   4
ENDBRANCH   1   2
BRANCH   1  18
ATOM     18  C   UNL     1       1.025  -0.326  -1.660  0.00  0.00    +0.092 C 
BRANCH  18  23
ATOM     19  N   UNL     1       1.782  -2.261  -0.323  0.00  0.00    +0.382 N 
ATOM     20  C   UNL     1       3.012  -3.073  -0.292  0.00  0.00    -0.078 C 
ATOM     21  C   UNL     1       3.619  -3.037  -1.710  0.00  0.00    -0.020 C 
ATOM     22  C   UNL     1       3.009  -1.748  -2.322  0.00  0.00    -0.016 C 
ATOM     23  C   UNL     1       1.591  -1.747  -1.697  0.00  0.00    -0.051 C 
ATOM     24  H   UNL     1       1.876  -1.420   0.380  0.00  0.00    -0.081 HD
BRANCH  19  26
ATOM     25  C   UNL     1       0.900  -3.657   1.486  0.00  0.00    -0.017 C 
ATOM     26  C   UNL     1       0.620  -3.048   0.110  0.00  0.00    -0.082 C 
ENDBRANCH  19  26
ENDBRANCH  18  23
ENDBRANCH   1  18
BRANCH   1  27
ATOM     27  C   UNL     1      -0.202  -0.083   0.547  0.00  0.00    +0.180 C 
BRANCH  27  28
ATOM     28  C   UNL     1      -0.322   1.395   0.817  0.00  0.00    +0.122 A 
ATOM     29  C   UNL     1      -1.472   2.073   0.987  0.00  0.00    +0.046 A 
ATOM     30  C   UNL     1      -1.121   3.423   1.217  0.00  0.00    +0.041 A 
ATOM     31  C   UNL     1       0.222   3.491   1.167  0.00  0.00    +0.195 A 
ATOM     32  O   UNL     1       0.700   2.259   0.925  0.00  0.00    -0.466 OA
ENDBRANCH  27  28
ENDBRANCH   1  27
TORSDOF 8
