REMARK  Name = ZINC24214753
REMARK  9 active torsions:
REMARK  status: ('A' for Active; 'I' for Inactive)
REMARK    1  A    between atoms: C_1  and  C_2
REMARK    2  A    between atoms: C_5  and  N_33
REMARK    3  A    between atoms: C_7  and  N_8
REMARK    4  A    between atoms: C_9  and  C_11
REMARK    5  A    between atoms: C_11  and  N_12
REMARK    6  A    between atoms: C_18  and  C_20
REMARK    7  A    between atoms: C_21  and  C_32
REMARK    8  A    between atoms: N_23  and  C_26
REMARK    9  A    between atoms: C_24  and  C_25
REMARK                            x       y       z     vdW  Elec       q    Type
REMARK                         _______ _______ _______ _____ _____    ______ ____
ROOT
ATOM      1  N   UNL     1       4.061  -0.238   0.939  0.00  0.00    +0.397 N 
ATOM      2  C   UNL     1       5.515  -0.399   0.777  0.00  0.00    -0.058 C 
ATOM      3  C   UNL     1       5.786  -1.101  -0.555  0.00  0.00    +0.085 C 
ATOM      4  N   UNL     1       5.063  -0.429  -1.631  0.00  0.00    -0.318 N 
ATOM      5  C   UNL     1       4.034   0.396  -1.410  0.00  0.00    +0.204 C 
ATOM      6  O   UNL     1       3.469   0.889  -2.364  0.00  0.00    -0.277 OA
ATOM      7  C   UNL     1       3.548   0.739  -0.030  0.00  0.00    +0.054 C 
ATOM      8  H   UNL     1       5.358  -0.592  -2.678  0.00  0.00    +0.149 HD
ATOM      9  H   UNL     1       3.577  -1.207   0.746  0.00  0.00    -0.079 HD
ENDROOT
BRANCH   7  10
ATOM     10  C   UNL     1       2.041   0.719  -0.011  0.00  0.00    -0.009 A 
ATOM     11  C   UNL     1       1.233  -0.424  -0.005  0.00  0.00    +0.063 A 
ATOM     12  N   UNL     1      -0.018  -0.040   0.012  0.00  0.00    -0.171 NA
ATOM     13  N   UNL     1      -0.047   1.360   0.017  0.00  0.00    -0.237 N 
ATOM     14  C   UNL     1       1.231   1.802   0.003  0.00  0.00    +0.044 A 
ATOM     15  C   UNL     1       1.673   3.243   0.002  0.00  0.00    +0.066 C 
ATOM     16  C   UNL     1       1.720  -1.850  -0.016  0.00  0.00    +0.068 C 
BRANCH  13  17
ATOM     17  C   UNL     1      -1.197   2.162   0.029  0.00  0.00    +0.066 A 
ATOM     18  C   UNL     1      -1.201   3.362   0.727  0.00  0.00    +0.028 A 
ATOM     19  C   UNL     1      -2.334   4.152   0.733  0.00  0.00    +0.002 A 
ATOM     20  C   UNL     1      -3.467   3.743   0.054  0.00  0.00    +0.000 A 
ATOM     21  C   UNL     1      -3.468   2.545  -0.637  0.00  0.00    +0.002 A 
ATOM     22  C   UNL     1      -2.336   1.754  -0.651  0.00  0.00    +0.028 A 
ENDBRANCH  13  17
ENDBRANCH   7  10
BRANCH   1  23
ATOM     23  C   UNL     1       3.725   0.158   2.314  0.00  0.00    +0.020 C 
BRANCH  23  25
ATOM     24  N   UNL     1       3.818  -0.837   4.577  0.00  0.00    -0.287 N 
ATOM     25  C   UNL     1       4.045  -0.974   3.255  0.00  0.00    +0.201 C 
ATOM     26  O   UNL     1       4.507  -2.010   2.824  0.00  0.00    -0.278 OA
ATOM     27  H   UNL     1       3.485   0.131   4.979  0.00  0.00    +0.155 HD
BRANCH  24  34
ATOM     28  C   UNL     1       4.394  -0.306   7.312  0.00  0.00    +0.045 C 
ATOM     29  C   UNL     1       4.288  -1.711   6.778  0.00  0.00    -0.029 A 
ATOM     30  C   UNL     1       4.468  -2.788   7.625  0.00  0.00    +0.007 A 
ATOM     31  C   UNL     1       4.376  -4.077   7.134  0.00  0.00    +0.033 A 
ATOM     32  C   UNL     1       4.100  -4.294   5.797  0.00  0.00    +0.128 A 
ATOM     33  C   UNL     1       3.914  -3.222   4.946  0.00  0.00    +0.056 A 
ATOM     34  C   UNL     1       4.005  -1.925   5.436  0.00  0.00    +0.038 A 
BRANCH  32  35
ATOM     35  N   UNL     1       4.002  -5.676   5.276  0.00  0.00    +0.056 N 
ATOM     36  O   UNL     1       3.758  -5.867   4.098  0.00  0.00    -0.126 OA
ATOM     37  O   UNL     1       4.166  -6.622   6.026  0.00  0.00    -0.126 OA
ENDBRANCH  32  35
ENDBRANCH  24  34
ENDBRANCH  23  25
ENDBRANCH   1  23
TORSDOF 6
