REMARK  Name = ZINC13980745
REMARK  7 active torsions:
REMARK  status: ('A' for Active; 'I' for Inactive)
REMARK    1  A    between atoms: C_1  and  C_2
REMARK    2  A    between atoms: C_2  and  C_3
REMARK    3  A    between atoms: C_5  and  N_11
REMARK    4  A    between atoms: C_6  and  O_10
REMARK    5  A    between atoms: N_12  and  C_13
REMARK    6  A    between atoms: C_16  and  S_19
REMARK    7  A    between atoms: S_19  and  N_22
REMARK                            x       y       z     vdW  Elec       q    Type
REMARK                         _______ _______ _______ _____ _____    ______ ____
ROOT
ATOM      1  C   UNL     1      -2.046  -1.420  -5.859  0.00  0.00    +0.086 A 
ATOM      2  C   UNL     1      -1.393  -1.875  -7.008  0.00  0.00    +0.031 A 
ATOM      3  C   UNL     1      -2.113  -2.102  -8.162  0.00  0.00    +0.030 A 
ATOM      4  C   UNL     1      -3.479  -1.880  -8.184  0.00  0.00    +0.106 A 
ATOM      5  C   UNL     1      -4.132  -1.429  -7.051  0.00  0.00    +0.030 A 
ATOM      6  C   UNL     1      -3.426  -1.203  -5.888  0.00  0.00    +0.031 A 
ENDROOT
BRANCH   4   7
ATOM      7  S   UNL     1      -4.391  -2.172  -9.663  0.00  0.00    +0.061 S 
ATOM      8  O   UNL     1      -5.561  -1.369  -9.585  0.00  0.00    -0.153 OA
ATOM      9  O   UNL     1      -3.466  -2.068 -10.737  0.00  0.00    -0.153 OA
BRANCH   7  10
ATOM     10  N   UNL     1      -4.895  -3.749  -9.624  0.00  0.00    -0.172 NA
ATOM     11  C   UNL     1      -4.062  -4.825 -10.185  0.00  0.00    +0.137 C 
ATOM     12  C   UNL     1      -3.933  -5.934  -9.134  0.00  0.00    +0.177 C 
ATOM     13  O   UNL     1      -5.237  -6.309  -8.684  0.00  0.00    -0.377 OA
ATOM     14  C   UNL     1      -5.956  -5.259  -8.033  0.00  0.00    +0.177 C 
ATOM     15  C   UNL     1      -6.187  -4.116  -9.023  0.00  0.00    +0.137 C 
ENDBRANCH   7  10
ENDBRANCH   4   7
BRANCH   1  17
ATOM     16  N   UNL     1      -0.065  -1.394  -4.688  0.00  0.00    -0.146 NA
ATOM     17  N   UNL     1      -1.339  -1.193  -4.711  0.00  0.00    -0.149 NA
BRANCH  16  20
ATOM     18  C   UNL     1       0.707  -0.490  -1.238  0.00  0.00    -0.044 A 
ATOM     19  C   UNL     1      -0.012  -0.717  -2.392  0.00  0.00    +0.037 A 
ATOM     20  C   UNL     1       0.641  -1.167  -3.543  0.00  0.00    +0.129 A 
ATOM     21  C   UNL     1       2.027  -1.385  -3.513  0.00  0.00    +0.158 A 
ATOM     22  C   UNL     1       2.734  -1.152  -2.344  0.00  0.00    +0.062 A 
ATOM     23  C   UNL     1       2.076  -0.701  -1.214  0.00  0.00    +0.022 A 
ATOM     24 BR   UNL     1       4.602  -1.443  -2.295  0.00  0.00    -0.046 Br
BRANCH  18  26
ATOM     25  C   UNL     1      -0.019   1.526   0.010  0.00  0.00    +0.009 C 
ATOM     26  C   UNL     1       0.002  -0.004   0.002  0.00  0.00    +0.032 C 
ENDBRANCH  18  26
BRANCH  21  27
ATOM     27  O   UNL     1       2.673  -1.823  -4.624  0.00  0.00    -0.504 OA
ATOM     28  H   UNL     1       2.997  -1.113  -5.196  0.00  0.00    +0.292 HD
ENDBRANCH  21  27
ENDBRANCH  16  20
ENDBRANCH   1  17
TORSDOF 6
