REMARK  Name = ZINC65225378
REMARK  3 active torsions:
REMARK  status: ('A' for Active; 'I' for Inactive)
REMARK    1  A    between atoms: C_3  and  C_8
REMARK    2  A    between atoms: N_20  and  C_21
REMARK    3  A    between atoms: C_21  and  C_22
REMARK                            x       y       z     vdW  Elec       q    Type
REMARK                         _______ _______ _______ _____ _____    ______ ____
ROOT
ATOM      1  C   UNL     1       3.669   2.153  -0.039  0.00  0.00    +0.093 A 
ATOM      2  C   UNL     1       4.967   1.600  -0.056  0.00  0.00    +0.054 A 
ATOM      3  C   UNL     1       5.840   2.619  -0.058  0.00  0.00    +0.057 A 
ATOM      4  N   UNL     1       5.148   3.778  -0.025  0.00  0.00    -0.266 N 
ATOM      5  N   UNL     1       3.786   3.467  -0.031  0.00  0.00    -0.171 NA
ATOM      6  C   UNL     1       5.756   5.117   0.023  0.00  0.00    +0.145 C 
ATOM      7  C   UNL     1       6.484   5.252   1.368  0.00  0.00    +0.042 C 
ATOM      8  C   UNL     1       7.859   4.616   1.304  0.00  0.00    +0.111 C 
ATOM      9  N   UNL     1       7.844   3.171   1.150  0.00  0.00    -0.280 N 
ATOM     10  C   UNL     1       7.357   2.553  -0.095  0.00  0.00    +0.164 C 
ATOM     11  C   UNL     1       8.281   2.388   2.156  0.00  0.00    +0.303 C 
ATOM     12  O   UNL     1       8.774   2.891   3.147  0.00  0.00    -0.253 OA
ATOM     13  N   UNL     1       8.172   1.048   2.064  0.00  0.00    -0.297 N 
ATOM     14  H   UNL     1       7.846   0.643   1.245  0.00  0.00    +0.150 HD
ENDROOT
BRANCH   1  17
ATOM     15  C   UNL     1      -0.005   1.353  -0.022  0.00  0.00    +0.002 A 
ATOM     16  C   UNL     1       1.177   2.066  -0.024  0.00  0.00    +0.010 A 
ATOM     17  C   UNL     1       2.395   1.391  -0.036  0.00  0.00    +0.003 A 
ATOM     18  C   UNL     1       2.414  -0.002  -0.045  0.00  0.00    +0.030 A 
ATOM     19  C   UNL     1       1.226  -0.706  -0.043  0.00  0.00    +0.042 A 
ATOM     20  C   UNL     1       0.018  -0.030  -0.031  0.00  0.00    +0.020 A 
ATOM     21 CL   UNL     1       1.248  -2.442  -0.055  0.00  0.00    -0.084 Cl
ENDBRANCH   1  17
BRANCH  13  22
ATOM     22  C   UNL     1       8.546   0.203   3.200  0.00  0.00    +0.137 C 
BRANCH  22  23
ATOM     23  C   UNL     1       8.329  -1.267   2.836  0.00  0.00    +0.135 C 
ATOM     24  C   UNL     1       8.605  -2.158   4.066  0.00  0.00    +0.035 C 
ATOM     25  C   UNL     1       9.330  -3.377   3.434  0.00  0.00    +0.031 C 
ATOM     26  C   UNL     1      10.117  -2.691   2.289  0.00  0.00    +0.160 C 
ATOM     27  O   UNL     1       9.246  -1.653   1.806  0.00  0.00    -0.375 OA
ENDBRANCH  22  23
ENDBRANCH  13  22
TORSDOF 3
