REMARK  Name = ZINC63874091
REMARK  15 active torsions:
REMARK  status: ('A' for Active; 'I' for Inactive)
REMARK    1  A    between atoms: C_1  and  C_2
REMARK    2  A    between atoms: C_2  and  N_3
REMARK    3  A    between atoms: N_3  and  C_4
REMARK    4  A    between atoms: N_3  and  S_6
REMARK    5  A    between atoms: C_4  and  C_5
REMARK    6  A    between atoms: S_6  and  C_9
REMARK    7  A    between atoms: C_13  and  C_15
REMARK    8  A    between atoms: N_17  and  C_18
REMARK    9  A    between atoms: C_18  and  C_20
REMARK   10  A    between atoms: C_18  and  C_23
REMARK   11  A    between atoms: C_20  and  C_21
REMARK   12  A    between atoms: C_20  and  C_22
REMARK   13  A    between atoms: N_25  and  C_26
REMARK   14  A    between atoms: C_26  and  C_27
REMARK   15  A    between atoms: C_27  and  C_28
REMARK                            x       y       z     vdW  Elec       q    Type
REMARK                         _______ _______ _______ _____ _____    ______ ____
ROOT
ATOM      1  C   UNL     1      -8.255   3.578   1.944  0.00  0.00    +0.162 C 
ENDROOT
BRANCH   1   4
ATOM      2  C   UNL     1      -6.251   2.197   1.834  0.00  0.00    +0.245 C 
ATOM      3  O   UNL     1      -6.854   1.430   1.110  0.00  0.00    -0.270 OA
ATOM      4  N   UNL     1      -6.863   3.302   2.305  0.00  0.00    -0.300 N 
ATOM      5  H   UNL     1      -6.381   3.914   2.882  0.00  0.00    +0.150 HD
BRANCH   2  10
ATOM      6  C   UNL     1      -2.898   0.520   2.058  0.00  0.00    +0.106 A 
ATOM      7  C   UNL     1      -2.213   1.396   2.882  0.00  0.00    +0.028 A 
ATOM      8  C   UNL     1      -2.838   2.531   3.366  0.00  0.00    +0.003 A 
ATOM      9  C   UNL     1      -4.149   2.797   3.030  0.00  0.00    +0.013 A 
ATOM     10  C   UNL     1      -4.845   1.918   2.198  0.00  0.00    +0.039 A 
ATOM     11  C   UNL     1      -4.207   0.777   1.709  0.00  0.00    +0.041 A 
BRANCH   6  12
ATOM     12  S   UNL     1      -2.092  -0.923   1.446  0.00  0.00    +0.061 S 
ATOM     13  O   UNL     1      -3.116  -1.857   1.133  0.00  0.00    -0.153 OA
ATOM     14  O   UNL     1      -1.043  -1.219   2.357  0.00  0.00    -0.153 OA
BRANCH  12  15
ATOM     15  N   UNL     1      -1.372  -0.511   0.012  0.00  0.00    -0.177 NA
BRANCH  15  17
ATOM     16  C   UNL     1      -0.019   1.526   0.010  0.00  0.00    +0.022 C 
ATOM     17  C   UNL     1       0.002  -0.004   0.002  0.00  0.00    +0.106 C 
ENDBRANCH  15  17
BRANCH  15  18
ATOM     18  C   UNL     1      -2.110  -0.654  -1.245  0.00  0.00    +0.106 C 
ATOM     19  C   UNL     1      -1.773  -2.003  -1.884  0.00  0.00    +0.022 C 
ENDBRANCH  15  18
ENDBRANCH  12  15
ENDBRANCH   6  12
ENDBRANCH   2  10
ENDBRANCH   1   4
BRANCH   1  20
ATOM     20  C   UNL     1      -8.515   5.059   2.041  0.00  0.00    +0.234 C 
ATOM     21  O   UNL     1      -7.625   5.810   2.379  0.00  0.00    -0.274 OA
ATOM     22  N   UNL     1      -9.737   5.549   1.753  0.00  0.00    -0.313 N 
ATOM     23  H   UNL     1     -10.450   4.949   1.483  0.00  0.00    +0.149 HD
BRANCH  22  24
ATOM     24  C   UNL     1      -9.990   6.989   1.848  0.00  0.00    +0.108 C 
BRANCH  24  25
ATOM     25  C   UNL     1     -11.445   7.277   1.471  0.00  0.00    +0.052 C 
BRANCH  25  26
ATOM     26  C   UNL     1     -11.705   8.759   1.569  0.00  0.00    -0.040 C 
ATOM     27  C   UNL     1     -11.649   9.662   0.564  0.00  0.00    -0.001 A 
ATOM     28  C   UNL     1     -11.340   9.541  -0.866  0.00  0.00    +0.010 A 
ATOM     29  C   UNL     1     -11.364  10.651  -1.639  0.00  0.00    +0.001 A 
ATOM     30  C   UNL     1     -11.675  11.911  -1.109  0.00  0.00    +0.002 A 
ATOM     31  C   UNL     1     -11.970  12.102   0.194  0.00  0.00    +0.026 A 
ATOM     32  C   UNL     1     -11.975  11.004   1.098  0.00  0.00    +0.043 A 
ATOM     33  N   UNL     1     -12.223  10.932   2.384  0.00  0.00    -0.380 N 
ATOM     34  C   UNL     1     -12.087   9.535   2.809  0.00  0.00    +0.144 C 
ATOM     35  H   UNL     1     -12.459  11.678   2.957  0.00  0.00    +0.160 HD
ENDBRANCH  25  26
ENDBRANCH  24  25
ENDBRANCH  22  24
ENDBRANCH   1  20
BRANCH   1  36
ATOM     36  C   UNL     1      -9.188   2.832   2.900  0.00  0.00    +0.012 C 
ATOM     37  C   UNL     1      -8.924   1.328   2.801  0.00  0.00    +0.009 C 
ATOM     38  C   UNL     1      -8.930   3.302   4.333  0.00  0.00    +0.009 C 
ENDBRANCH   1  36
TORSDOF 11
