REMARK  Name = ZINC39634753
REMARK  11 active torsions:
REMARK  status: ('A' for Active; 'I' for Inactive)
REMARK    1  A    between atoms: C_1  and  C_2
REMARK    2  A    between atoms: C_2  and  C_3
REMARK    3  A    between atoms: C_2  and  N_4
REMARK    4  A    between atoms: N_4  and  C_5
REMARK    5  A    between atoms: N_4  and  C_27
REMARK    6  A    between atoms: C_5  and  C_6
REMARK    7  A    between atoms: C_6  and  N_7
REMARK    8  A    between atoms: C_8  and  C_10
REMARK    9  A    between atoms: C_21  and  C_23
REMARK   10  A    between atoms: C_27  and  C_28
REMARK   11  A    between atoms: C_27  and  C_29
REMARK                            x       y       z     vdW  Elec       q    Type
REMARK                         _______ _______ _______ _____ _____    ______ ____
ROOT
ATOM      1  C   UNL     1      -1.304   4.023   5.157  0.00  0.00    +0.100 C 
ATOM      2  C   UNL     1      -2.782   3.578   5.236  0.00  0.00    +0.121 C 
ATOM      3  N   UNL     1      -3.501   4.763   5.762  0.00  0.00    -0.300 N 
ATOM      4  C   UNL     1      -2.857   5.915   5.087  0.00  0.00    +0.115 C 
ATOM      5  C   UNL     1      -1.358   5.556   5.058  0.00  0.00    -0.004 C 
ATOM      6  C   UNL     1      -0.729   6.024   3.749  0.00  0.00    -0.010 C 
ATOM      7  C   UNL     1      -0.741   7.554   3.700  0.00  0.00    -0.082 C 
ATOM      8  N   UNL     1       0.008   8.088   4.844  0.00  0.00    +0.379 N 
ATOM      9  C   UNL     1      -0.657   7.712   6.097  0.00  0.00    -0.082 C 
ATOM     10  C   UNL     1      -0.641   6.188   6.248  0.00  0.00    -0.010 C 
ATOM     11  C   UNL     1      -4.513   4.787   6.652  0.00  0.00    +0.219 C 
ATOM     12  O   UNL     1      -5.002   5.845   6.985  0.00  0.00    -0.275 OA
ATOM     13  H   UNL     1       0.945   7.714   4.835  0.00  0.00    -0.086 HD
ATOM     14  H   UNL     1       0.050   9.094   4.776  0.00  0.00    -0.086 HD
ENDROOT
BRANCH   1  16
ATOM     15  N   UNL     1       0.672   3.161   3.945  0.00  0.00    -0.317 N 
ATOM     16  C   UNL     1      -0.646   3.441   3.933  0.00  0.00    +0.218 C 
ATOM     17  O   UNL     1      -1.303   3.224   2.936  0.00  0.00    -0.275 OA
ATOM     18  H   UNL     1       1.197   3.334   4.742  0.00  0.00    +0.149 HD
BRANCH  15  19
ATOM     19  C   UNL     1       1.312   2.595   2.754  0.00  0.00    +0.085 C 
BRANCH  19  20
ATOM     20  C   UNL     1       2.800   2.374   3.032  0.00  0.00    -0.059 C 
BRANCH  20  21
ATOM     21  N   UNL     1       3.471   1.949   1.796  0.00  0.00    +0.384 N 
ATOM     22  H   UNL     1       3.271   2.611   1.060  0.00  0.00    -0.081 HD
BRANCH  21  24
ATOM     23  C   UNL     1       2.558  -0.154   2.654  0.00  0.00    -0.014 C 
ATOM     24  C   UNL     1       2.982   0.620   1.405  0.00  0.00    -0.074 C 
ATOM     25  C   UNL     1       1.782   0.773   0.468  0.00  0.00    -0.014 C 
ENDBRANCH  21  24
BRANCH  21  26
ATOM     26  C   UNL     1       4.921   1.891   2.021  0.00  0.00    -0.074 C 
ATOM     27  C   UNL     1       5.629   1.570   0.703  0.00  0.00    -0.014 C 
ATOM     28  C   UNL     1       5.411   3.242   2.546  0.00  0.00    -0.014 C 
ENDBRANCH  21  26
ENDBRANCH  20  21
ENDBRANCH  19  20
ENDBRANCH  15  19
ENDBRANCH   1  16
BRANCH  11  29
ATOM     29  C   UNL     1      -5.036   3.499   7.234  0.00  0.00    +0.075 C 
ATOM     30  C   UNL     1      -6.049   2.780   6.327  0.00  0.00    +0.013 C 
ATOM     31  C   UNL     1      -6.841   2.454   7.604  0.00  0.00    +0.001 C 
ATOM     32  C   UNL     1      -6.188   3.697   8.232  0.00  0.00    +0.013 C 
ENDBRANCH  11  29
TORSDOF 7
