REMARK  Name = ZINC40495270
REMARK  5 active torsions:
REMARK  status: ('A' for Active; 'I' for Inactive)
REMARK    1  A    between atoms: C_3  and  N_8
REMARK    2  A    between atoms: C_5  and  O_7
REMARK    3  A    between atoms: N_8  and  S_9
REMARK    4  A    between atoms: S_9  and  C_12
REMARK    5  A    between atoms: C_13  and  N_20
REMARK                            x       y       z     vdW  Elec       q    Type
REMARK                         _______ _______ _______ _____ _____    ______ ____
ROOT
ATOM      1  S   UNL     1       3.900   4.348   1.554  0.00  0.00    +0.075 S 
ATOM      2  O   UNL     1       5.080   5.113   1.758  0.00  0.00    -0.150 OA
ATOM      3  O   UNL     1       2.616   4.945   1.440  0.00  0.00    -0.150 OA
ENDROOT
BRANCH   1   4
ATOM      4  C   UNL     1       3.806   3.202   2.889  0.00  0.00    +0.143 A 
ATOM      5  C   UNL     1       2.568   2.791   3.366  0.00  0.00    +0.054 A 
ATOM      6  C   UNL     1       2.498   1.887   4.418  0.00  0.00    +0.040 A 
ATOM      7  C   UNL     1       3.659   1.399   4.987  0.00  0.00    +0.021 A 
ATOM      8  C   UNL     1       4.891   1.810   4.509  0.00  0.00    +0.032 A 
ATOM      9  C   UNL     1       4.964   2.706   3.457  0.00  0.00    +0.047 A 
ATOM     10 BR   UNL     1       6.649   3.259   2.803  0.00  0.00    -0.048 Br
ATOM     11 BR   UNL     1       3.565   0.168   6.419  0.00  0.00    -0.050 Br
BRANCH   5  12
ATOM     12  N   UNL     1       1.396   3.287   2.790  0.00  0.00    -0.356 N 
ATOM     13  H   UNL     1       1.393   3.565   1.861  0.00  0.00    +0.142 HD
ATOM     14  H   UNL     1       0.586   3.352   3.320  0.00  0.00    +0.142 HD
ENDBRANCH   5  12
ENDBRANCH   1   4
BRANCH   1  15
ATOM     15  N   UNL     1       4.138   3.470   0.170  0.00  0.00    -0.216 N 
ATOM     16  H   UNL     1       4.965   3.564  -0.328  0.00  0.00    +0.174 HD
BRANCH  15  19
ATOM     17  C   UNL     1       0.840   2.131  -0.746  0.00  0.00    +0.005 A 
ATOM     18  C   UNL     1       1.819   2.998  -0.299  0.00  0.00    +0.025 A 
ATOM     19  C   UNL     1       3.148   2.594  -0.280  0.00  0.00    +0.051 A 
ATOM     20  C   UNL     1       3.491   1.319  -0.709  0.00  0.00    +0.069 A 
ATOM     21  C   UNL     1       2.505   0.453  -1.155  0.00  0.00    +0.119 A 
ATOM     22  C   UNL     1       1.179   0.862  -1.173  0.00  0.00    +0.045 A 
BRANCH  21  23
ATOM     23  O   UNL     1       2.837  -0.796  -1.576  0.00  0.00    -0.507 OA
ATOM     24  H   UNL     1       2.829  -1.462  -0.875  0.00  0.00    +0.292 HD
ENDBRANCH  21  23
ENDBRANCH  15  19
ENDBRANCH   1  15
TORSDOF 5
