REMARK  Name = ZINC46669568
REMARK  6 active torsions:
REMARK  status: ('A' for Active; 'I' for Inactive)
REMARK    1  A    between atoms: C_3  and  C_6
REMARK    2  A    between atoms: C_6  and  N_7
REMARK    3  A    between atoms: N_10  and  C_11
REMARK    4  A    between atoms: C_14  and  N_17
REMARK    5  A    between atoms: C_18  and  C_20
REMARK    6  A    between atoms: C_20  and  N_21
REMARK                            x       y       z     vdW  Elec       q    Type
REMARK                         _______ _______ _______ _____ _____    ______ ____
ROOT
ATOM      1  C   UNL     1       7.249   0.500   3.182  0.00  0.00    +0.035 A 
ATOM      2  C   UNL     1       7.705   1.010   4.390  0.00  0.00    +0.025 A 
ATOM      3  C   UNL     1       9.043   0.918   4.717  0.00  0.00    +0.025 A 
ATOM      4  C   UNL     1       9.933   0.315   3.837  0.00  0.00    +0.034 A 
ATOM      5  C   UNL     1       9.476  -0.196   2.629  0.00  0.00    +0.025 A 
ATOM      6  C   UNL     1       8.137  -0.108   2.305  0.00  0.00    +0.025 A 
ENDROOT
BRANCH   1  10
ATOM      7  N   UNL     1       3.970  -0.353   1.920  0.00  0.00    -0.292 N 
ATOM      8  C   UNL     1       5.296  -0.399   2.159  0.00  0.00    +0.304 C 
ATOM      9  O   UNL     1       5.955  -1.336   1.750  0.00  0.00    -0.252 OA
ATOM     10  N   UNL     1       5.891   0.594   2.849  0.00  0.00    -0.269 N 
ATOM     11  H   UNL     1       3.444   0.394   2.245  0.00  0.00    +0.151 HD
ATOM     12  H   UNL     1       5.379   1.373   3.117  0.00  0.00    +0.156 HD
BRANCH   7  13
ATOM     13  C   UNL     1       3.323  -1.432   1.169  0.00  0.00    +0.180 C 
BRANCH  13  16
ATOM     14  C   UNL     1      -0.118  -0.423   0.321  0.00  0.00    +0.041 A 
ATOM     15  C   UNL     1       1.267  -0.454   0.043  0.00  0.00    +0.046 A 
ATOM     16  C   UNL     1       1.850  -1.142   1.041  0.00  0.00    +0.122 A 
ATOM     17  O   UNL     1       0.896  -1.528   1.904  0.00  0.00    -0.466 OA
ATOM     18  C   UNL     1      -0.300  -1.094   1.473  0.00  0.00    +0.195 A 
ENDBRANCH  13  16
ENDBRANCH   7  13
ENDBRANCH   1  10
BRANCH   4  19
ATOM     19  N   UNL     1      11.291   0.222   4.169  0.00  0.00    -0.284 N 
ATOM     20  C   UNL     1      11.660   0.026   5.450  0.00  0.00    +0.235 C 
ATOM     21  O   UNL     1      10.822   0.014   6.327  0.00  0.00    -0.274 OA
ATOM     22  H   UNL     1      11.965   0.298   3.476  0.00  0.00    +0.155 HD
BRANCH  20  23
ATOM     23  C   UNL     1      13.113  -0.178   5.793  0.00  0.00    +0.212 C 
BRANCH  23  24
ATOM     24  N   UNL     1      13.251  -0.367   7.239  0.00  0.00    -0.233 N 
ATOM     25  C   UNL     1      13.438   0.650   8.087  0.00  0.00    +0.227 C 
ATOM     26  O   UNL     1      13.514   1.818   7.773  0.00  0.00    -0.275 OA
ATOM     27  C   UNL     1      13.540   0.117   9.498  0.00  0.00    +0.095 C 
ATOM     28  C   UNL     1      12.258   0.549  10.278  0.00  0.00    +0.025 C 
ATOM     29  C   UNL     1      12.059  -0.698  11.215  0.00  0.00    +0.016 C 
ATOM     30  C   UNL     1      11.985  -1.706  10.010  0.00  0.00    +0.025 C 
ATOM     31  C   UNL     1      13.376  -1.421   9.313  0.00  0.00    +0.095 C 
ATOM     32  C   UNL     1      13.195  -1.572   7.819  0.00  0.00    +0.227 C 
ATOM     33  O   UNL     1      13.028  -2.622   7.237  0.00  0.00    -0.275 OA
ATOM     34  C   UNL     1      10.959  -0.985   9.128  0.00  0.00    -0.027 C 
ATOM     35  C   UNL     1      11.118   0.335   9.275  0.00  0.00    -0.027 C 
ENDBRANCH  23  24
ENDBRANCH  20  23
ENDBRANCH   4  19
TORSDOF 6
