REMARK  Name = ZINC14460816
REMARK  4 active torsions:
REMARK  status: ('A' for Active; 'I' for Inactive)
REMARK    1  A    between atoms: C_6  and  S_7
REMARK    2  A    between atoms: S_7  and  N_10
REMARK    3  A    between atoms: C_18  and  C_21
REMARK    4  A    between atoms: C_26  and  O_27
REMARK                            x       y       z     vdW  Elec       q    Type
REMARK                         _______ _______ _______ _____ _____    ______ ____
ROOT
ATOM      1  C   UNL     1      -3.501  -0.343  -1.901  0.00  0.00    +0.030 A 
ATOM      2  C   UNL     1      -4.501  -1.261  -1.650  0.00  0.00    +0.025 A 
ATOM      3  C   UNL     1      -4.859  -1.560  -0.342  0.00  0.00    +0.031 A 
ATOM      4  C   UNL     1      -4.213  -0.946   0.722  0.00  0.00    -0.018 A 
ATOM      5  C   UNL     1      -3.205  -0.029   0.457  0.00  0.00    +0.034 A 
ATOM      6  C   UNL     1      -2.851   0.267  -0.844  0.00  0.00    +0.105 A 
ATOM      7  C   UNL     1      -4.564  -1.237   2.146  0.00  0.00    +0.049 C 
ATOM      8  C   UNL     1      -3.523  -2.112   2.803  0.00  0.00    -0.023 C 
ATOM      9  C   UNL     1      -4.093  -2.949   3.635  0.00  0.00    -0.030 C 
ATOM     10  C   UNL     1      -5.596  -2.741   3.651  0.00  0.00    +0.033 C 
ATOM     11  C   UNL     1      -5.876  -2.032   2.293  0.00  0.00    +0.029 C 
ATOM     12  C   UNL     1      -5.949  -3.120   1.218  0.00  0.00    +0.108 C 
ATOM     13  N   UNL     1      -5.877  -2.489  -0.104  0.00  0.00    -0.336 N 
ATOM     14  H   UNL     1      -6.520  -2.710  -0.796  0.00  0.00    +0.147 HD
ENDROOT
BRANCH  12  15
ATOM     15  C   UNL     1      -4.796  -4.076   1.384  0.00  0.00    +0.015 A 
ATOM     16  C   UNL     1      -3.596  -3.828   0.747  0.00  0.00    +0.024 A 
ATOM     17  C   UNL     1      -2.537  -4.705   0.899  0.00  0.00    +0.018 A 
ATOM     18  C   UNL     1      -2.677  -5.832   1.690  0.00  0.00    +0.019 A 
ATOM     19  C   UNL     1      -3.876  -6.083   2.329  0.00  0.00    +0.047 A 
ATOM     20  C   UNL     1      -4.937  -5.202   2.182  0.00  0.00    +0.122 A 
ATOM     21 BR   UNL     1      -0.894  -4.363   0.026  0.00  0.00    -0.050 Br
BRANCH  20  22
ATOM     22  O   UNL     1      -6.116  -5.444   2.814  0.00  0.00    -0.506 OA
ATOM     23  H   UNL     1      -6.738  -5.975   2.298  0.00  0.00    +0.292 HD
ENDBRANCH  20  22
ENDBRANCH  12  15
BRANCH   6  24
ATOM     24  S   UNL     1      -1.568   1.434  -1.158  0.00  0.00    +0.056 S 
ATOM     25  O   UNL     1      -1.494   2.274  -0.015  0.00  0.00    -0.153 OA
ATOM     26  O   UNL     1      -1.796   1.945  -2.465  0.00  0.00    -0.153 OA
BRANCH  24  27
ATOM     27  N   UNL     1      -0.144   0.592  -1.220  0.00  0.00    -0.204 NA
ATOM     28  H   UNL     1      -0.143  -0.370  -1.091  0.00  0.00    +0.144 HD
ATOM     29  H   UNL     1       0.689   1.059  -1.390  0.00  0.00    +0.144 HD
ENDBRANCH  24  27
ENDBRANCH   6  24
TORSDOF 4
