REMARK  Name = ZINC11855872
REMARK  5 active torsions:
REMARK  status: ('A' for Active; 'I' for Inactive)
REMARK    1  A    between atoms: C_1  and  C_2
REMARK    2  A    between atoms: C_2  and  C_3
REMARK    3  A    between atoms: C_2  and  C_4
REMARK    4  A    between atoms: N_6  and  C_7
REMARK    5  A    between atoms: C_9  and  C_24
REMARK                            x       y       z     vdW  Elec       q    Type
REMARK                         _______ _______ _______ _____ _____    ______ ____
ROOT
ATOM      1  C   UNL     1       2.297   6.891   0.016  0.00  0.00    +0.132 A 
ATOM      2  C   UNL     1       2.267   5.534   0.010  0.00  0.00    +0.074 A 
ATOM      3  C   UNL     1       0.915   5.132   0.020  0.00  0.00    +0.102 A 
ATOM      4  N   UNL     1       0.164   6.215   0.027  0.00  0.00    -0.162 NA
ATOM      5  N   UNL     1       1.005   7.334   0.030  0.00  0.00    -0.185 N 
ATOM      6  C   UNL     1       0.600   8.655   0.039  0.00  0.00    +0.234 A 
ATOM      7  N   UNL     1      -0.728   8.947   0.052  0.00  0.00    -0.291 N 
ATOM      8  H   UNL     1      -1.385   8.234   0.059  0.00  0.00    +0.172 HD
ATOM      9  C   UNL     1      -1.124  10.236   0.056  0.00  0.00    +0.256 A 
ATOM     10  O   UNL     1      -2.311  10.518   0.070  0.00  0.00    -0.267 OA
ATOM     11  C   UNL     1      -0.146  11.255   0.045  0.00  0.00    +0.038 A 
ATOM     12  C   UNL     1       1.165  10.904   0.040  0.00  0.00    +0.053 A 
ATOM     13  N   UNL     1       1.503   9.607   0.040  0.00  0.00    -0.217 NA
ATOM     14  C   UNL     1       2.278  11.918   0.050  0.00  0.00    +0.056 C 
ATOM     15  C   UNL     1       1.760  13.288  -0.385  0.00  0.00    +0.006 C 
ATOM     16  C   UNL     1       0.518  13.623   0.450  0.00  0.00    +0.005 C 
ATOM     17  C   UNL     1      -0.612  12.685   0.029  0.00  0.00    +0.042 C 
ENDROOT
BRANCH   3  18
ATOM     18  C   UNL     1       0.425   3.737   0.017  0.00  0.00    +0.039 A 
ATOM     19  C   UNL     1      -0.864   3.276   0.026  0.00  0.00    +0.018 A 
ATOM     20  C   UNL     1      -1.080   1.915   0.017  0.00  0.00    +0.008 A 
ATOM     21  C   UNL     1      -0.013   1.076   0.008  0.00  0.00    +0.046 A 
ATOM     22  S   UNL     1       1.360   2.217   0.001  0.00  0.00    -0.095 S 
ENDBRANCH   3  18
BRANCH   1  25
ATOM     23  C   UNL     1       4.660   7.116  -0.004  0.00  0.00    +0.221 C 
ATOM     24  O   UNL     1       4.764   5.908  -0.011  0.00  0.00    -0.275 OA
ATOM     25  N   UNL     1       3.440   7.688   0.010  0.00  0.00    -0.270 N 
ATOM     26  H   UNL     1       3.357   8.654   0.015  0.00  0.00    +0.156 HD
BRANCH  23  28
ATOM     27  C   UNL     1       7.140   7.087  -0.027  0.00  0.00    +0.017 C 
ATOM     28  C   UNL     1       5.896   7.978  -0.011  0.00  0.00    +0.069 C 
ATOM     29  C   UNL     1       5.891   8.868  -1.256  0.00  0.00    +0.017 C 
ENDBRANCH  23  28
ENDBRANCH   1  25
TORSDOF 3
