REMARK  Name = ZINC20751558
REMARK  3 active torsions:
REMARK  status: ('A' for Active; 'I' for Inactive)
REMARK    1  A    between atoms: C_9  and  O_29
REMARK    2  A    between atoms: C_10  and  C_11
REMARK    3  A    between atoms: C_24  and  C_27
REMARK                            x       y       z     vdW  Elec       q    Type
REMARK                         _______ _______ _______ _____ _____    ______ ____
ROOT
ATOM      1  C   UNL     1       2.520  -0.361  -0.007  0.00  0.00    +0.109 C 
ATOM      2  C   UNL     1       3.078  -0.850   1.314  0.00  0.00    +0.029 C 
ATOM      3  C   UNL     1       2.363  -0.425   2.600  0.00  0.00    +0.033 C 
ATOM      4  C   UNL     1       3.520  -0.409   3.602  0.00  0.00    -0.030 C 
ATOM      5  C   UNL     1       4.667  -0.192   2.967  0.00  0.00    -0.023 C 
ATOM      6  C   UNL     1       4.378  -0.010   1.524  0.00  0.00    +0.049 C 
ATOM      7  C   UNL     1       5.324  -0.409   0.460  0.00  0.00    -0.018 A 
ATOM      8  C   UNL     1       6.687  -0.415   0.666  0.00  0.00    +0.006 A 
ATOM      9  C   UNL     1       7.559  -0.751  -0.356  0.00  0.00    +0.002 A 
ATOM     10  C   UNL     1       7.063  -1.084  -1.598  0.00  0.00    +0.021 A 
ATOM     11  C   UNL     1       5.689  -1.090  -1.823  0.00  0.00    +0.073 A 
ATOM     12  C   UNL     1       4.793  -0.763  -0.783  0.00  0.00    +0.049 A 
ATOM     13  N   UNL     1       3.437  -0.818  -1.063  0.00  0.00    -0.335 N 
ATOM     14  H   UNL     1       3.035  -1.182  -2.020  0.00  0.00    +0.147 HD
ENDROOT
BRANCH   1  24
ATOM     15  C   UNL     1      -0.664   3.139   1.945  0.00  0.00    +0.001 A 
ATOM     16  C   UNL     1      -0.615   1.746   1.951  0.00  0.00    +0.001 A 
ATOM     17  C   UNL     1       0.393   1.078   1.326  0.00  0.00    +0.009 A 
ATOM     18  C   UNL     1       1.394   1.800   0.654  0.00  0.00    -0.009 A 
ATOM     19  C   UNL     1       1.341   3.216   0.643  0.00  0.00    -0.017 A 
ATOM     20  C   UNL     1       0.288   3.871   1.305  0.00  0.00    +0.008 A 
ATOM     21  C   UNL     1       2.341   3.940  -0.029  0.00  0.00    +0.012 A 
ATOM     22  C   UNL     1       3.346   3.276  -0.660  0.00  0.00    +0.046 A 
ATOM     23  C   UNL     1       3.401   1.879  -0.651  0.00  0.00    +0.122 A 
ATOM     24  C   UNL     1       2.446   1.144  -0.007  0.00  0.00    +0.022 A 
BRANCH  23  25
ATOM     25  O   UNL     1       4.418   1.243  -1.290  0.00  0.00    -0.506 OA
ATOM     26  H   UNL     1       4.468   0.144  -1.287  0.00  0.00    +0.292 HD
ENDBRANCH  23  25
ENDBRANCH   1  24
BRANCH  11  27
ATOM     27  C   UNL     1       5.181  -1.432  -3.118  0.00  0.00    +0.101 C 
ATOM     28  N   UNL     1       4.778  -1.703  -4.145  0.00  0.00    -0.191 NA
ENDBRANCH  11  27
TORSDOF 3
