REMARK  Name = ZINC54176827
REMARK  8 active torsions:
REMARK  status: ('A' for Active; 'I' for Inactive)
REMARK    1  A    between atoms: C_1  and  C_2
REMARK    2  A    between atoms: C_2  and  C_3
REMARK    3  A    between atoms: C_3  and  C_5
REMARK    4  A    between atoms: C_3  and  N_8
REMARK    5  A    between atoms: C_5  and  C_6
REMARK    6  A    between atoms: N_8  and  S_9
REMARK    7  A    between atoms: S_9  and  C_12
REMARK    8  A    between atoms: C_14  and  C_18
REMARK                            x       y       z     vdW  Elec       q    Type
REMARK                         _______ _______ _______ _____ _____    ______ ____
ROOT
ATOM      1  S   UNL     1      -3.012   1.232  -1.165  0.00  0.00    +0.060 S 
ATOM      2  O   UNL     1      -3.821   1.550  -2.289  0.00  0.00    -0.153 OA
ATOM      3  O   UNL     1      -3.556   1.023   0.130  0.00  0.00    -0.153 OA
ENDROOT
BRANCH   1   4
ATOM      4  C   UNL     1      -1.831   2.531  -1.012  0.00  0.00    +0.127 A 
ATOM      5  C   UNL     1      -1.674   3.451  -2.017  0.00  0.00    +0.052 A 
ATOM      6  C   UNL     1      -0.716   4.433  -1.793  0.00  0.00    +0.103 A 
ATOM      7  S   UNL     1      -0.106   3.987  -0.178  0.00  0.00    -0.073 S 
ATOM      8  C   UNL     1      -1.067   2.639   0.107  0.00  0.00    +0.082 A 
ATOM      9 BR   UNL     1      -1.081   1.525   1.635  0.00  0.00    -0.041 Br
BRANCH   6  10
ATOM     10  C   UNL     1      -0.326   5.507  -2.629  0.00  0.00    +0.393 C 
ATOM     11  O   UNL     1      -0.863   5.660  -3.720  0.00  0.00    -0.240 OA
ATOM     12  O   UNL     1       0.547   6.284  -2.262  0.00  0.00    -0.240 OA
ENDBRANCH   6  10
ENDBRANCH   1   4
BRANCH   1  13
ATOM     13  N   UNL     1      -2.178  -0.144  -1.556  0.00  0.00    -0.186 NA
ATOM     14  H   UNL     1      -2.252  -0.519  -2.447  0.00  0.00    +0.148 HD
BRANCH  13  15
ATOM     15  C   UNL     1      -1.328  -0.794  -0.556  0.00  0.00    +0.090 C 
BRANCH  15  17
ATOM     16  C   UNL     1       0.685   0.513  -1.249  0.00  0.00    +0.005 C 
ATOM     17  C   UNL     1       0.103  -0.893  -1.089  0.00  0.00    +0.018 C 
ENDBRANCH  15  17
BRANCH  15  18
ATOM     18  C   UNL     1      -1.863  -2.199  -0.268  0.00  0.00    +0.138 C 
BRANCH  18  19
ATOM     19  C   UNL     1      -3.192  -2.099   0.356  0.00  0.00    +0.064 C 
ATOM     20  N   UNL     1      -4.218  -2.022   0.838  0.00  0.00    -0.197 NA
ENDBRANCH  18  19
ENDBRANCH  15  18
ENDBRANCH  13  15
ENDBRANCH   1  13
TORSDOF 7
