REMARK  Name = ZINC08770129
REMARK  11 active torsions:
REMARK  status: ('A' for Active; 'I' for Inactive)
REMARK    1  A    between atoms: C_7  and  C_11
REMARK    2  A    between atoms: C_11  and  C_12
REMARK    3  A    between atoms: C_12  and  N_63
REMARK    4  A    between atoms: C_13  and  C_14
REMARK    5  A    between atoms: C_13  and  N_63
REMARK    6  A    between atoms: C_14  and  C_16
REMARK    7  A    between atoms: C_14  and  O_37
REMARK    8  A    between atoms: C_16  and  N_17
REMARK    9  A    between atoms: C_19  and  C_26
REMARK   10  A    between atoms: C_27  and  C_28
REMARK   11  A    between atoms: C_28  and  C_30
REMARK                            x       y       z     vdW  Elec       q    Type
REMARK                         _______ _______ _______ _____ _____    ______ ____
ROOT
ATOM      1  C   UNL     1      -2.968  -0.067   0.018  0.00  0.00    +0.151 C 
ENDROOT
BRANCH   1   2
ATOM      2  N   UNL     1      -2.541   1.334   0.022  0.00  0.00    -0.344 N 
ATOM      3  C   UNL     1      -3.381   2.397   0.031  0.00  0.00    +0.094 A 
ATOM      4  C   UNL     1      -2.647   3.564   0.043  0.00  0.00    +0.000 A 
ATOM      5  C   UNL     1      -1.228   3.159   0.029  0.00  0.00    +0.007 A 
ATOM      6  C   UNL     1      -1.226   1.755   0.017  0.00  0.00    +0.050 A 
ATOM      7  C   UNL     1      -0.013   1.076   0.008  0.00  0.00    +0.026 A 
ATOM      8  C   UNL     1       1.171   1.782   0.000  0.00  0.00    +0.002 A 
ATOM      9  C   UNL     1       1.167   3.168   0.007  0.00  0.00    +0.001 A 
ATOM     10  C   UNL     1      -0.025   3.860   0.022  0.00  0.00    +0.010 A 
BRANCH   4  11
ATOM     11  C   UNL     1      -3.170   4.929   0.054  0.00  0.00    +0.014 C 
ATOM     12  C   UNL     1      -4.511   5.142   0.067  0.00  0.00    +0.052 C 
BRANCH  12  13
ATOM     13  C   UNL     1      -5.016   6.460   0.077  0.00  0.00    +0.186 C 
ATOM     14  O   UNL     1      -4.249   7.407   0.075  0.00  0.00    -0.287 OA
BRANCH  13  15
ATOM     15  C   UNL     1      -6.477   6.693   0.091  0.00  0.00    +0.022 A 
ATOM     16  C   UNL     1      -7.359   5.610   0.088  0.00  0.00    +0.013 A 
ATOM     17  C   UNL     1      -8.720   5.833   0.106  0.00  0.00    +0.016 A 
ATOM     18  C   UNL     1      -9.212   7.127   0.116  0.00  0.00    +0.018 A 
ATOM     19  C   UNL     1      -8.343   8.205   0.114  0.00  0.00    +0.016 A 
ATOM     20  C   UNL     1      -6.980   7.995   0.102  0.00  0.00    +0.013 A 
ATOM     21 BR   UNL     1     -11.080   7.424   0.134  0.00  0.00    -0.050 Br
ENDBRANCH  13  15
ENDBRANCH  12  13
ENDBRANCH   4  11
ENDBRANCH   1   2
BRANCH   1  22
ATOM     22  C   UNL     1      -2.989  -0.598   1.452  0.00  0.00    +0.117 C 
BRANCH  22  23
ATOM     23  O   UNL     1      -3.986   0.098   2.203  0.00  0.00    -0.392 OA
ATOM     24  H   UNL     1      -4.881   0.004   1.850  0.00  0.00    +0.210 HD
ENDBRANCH  22  23
BRANCH  22  25
ATOM     25  C   UNL     1      -3.314  -2.093   1.438  0.00  0.00    -0.049 C 
BRANCH  25  26
ATOM     26  N   UNL     1      -3.333  -2.597   2.824  0.00  0.00    +0.381 N 
ATOM     27  H   UNL     1      -2.412  -2.444   3.253  0.00  0.00    -0.086 HD
ATOM     28  H   UNL     1      -4.048  -2.090   3.359  0.00  0.00    -0.086 HD
BRANCH  26  29
ATOM     29  C   UNL     1      -3.644  -4.039   2.841  0.00  0.00    -0.078 C 
BRANCH  29  30
ATOM     30  C   UNL     1      -3.656  -4.532   4.289  0.00  0.00    +0.018 C 
BRANCH  30  37
ATOM     31  C   UNL     1      -1.028  -8.387   3.831  0.00  0.00    +0.001 A 
ATOM     32  C   UNL     1      -1.766  -9.559   3.926  0.00  0.00    +0.002 A 
ATOM     33  C   UNL     1      -3.127  -9.518   4.134  0.00  0.00    +0.026 A 
ATOM     34  C   UNL     1      -3.772  -8.290   4.250  0.00  0.00    +0.047 A 
ATOM     35  C   UNL     1      -3.019  -7.105   4.153  0.00  0.00    +0.003 A 
ATOM     36  C   UNL     1      -1.641  -7.171   3.942  0.00  0.00    +0.010 A 
ATOM     37  C   UNL     1      -3.973  -6.005   4.315  0.00  0.00    -0.024 A 
ATOM     38  C   UNL     1      -5.183  -6.559   4.497  0.00  0.00    +0.087 A 
ATOM     39  N   UNL     1      -5.083  -7.923   4.456  0.00  0.00    -0.360 N 
ATOM     40  H   UNL     1      -5.824  -8.539   4.559  0.00  0.00    +0.165 HD
ENDBRANCH  30  37
ENDBRANCH  29  30
ENDBRANCH  26  29
ENDBRANCH  25  26
ENDBRANCH  22  25
ENDBRANCH   1  22
TORSDOF 11
