REMARK  Name = ZINC39675913
REMARK  10 active torsions:
REMARK  status: ('A' for Active; 'I' for Inactive)
REMARK    1  A    between atoms: C_1  and  C_2
REMARK    2  A    between atoms: C_3  and  C_13
REMARK    3  A    between atoms: C_4  and  C_7
REMARK    4  A    between atoms: C_17  and  C_26
REMARK    5  A    between atoms: N_28  and  C_29
REMARK    6  A    between atoms: C_29  and  C_30
REMARK    7  A    between atoms: C_30  and  C_32
REMARK    8  A    between atoms: C_30  and  N_38
REMARK    9  A    between atoms: N_38  and  C_39
REMARK   10  A    between atoms: N_38  and  C_40
REMARK                            x       y       z     vdW  Elec       q    Type
REMARK                         _______ _______ _______ _____ _____    ______ ____
ROOT
ATOM      1  C   UNL     1      -2.448  -0.554   0.455  0.00  0.00    +0.252 C 
ATOM      2  O   UNL     1      -3.228  -0.545  -0.478  0.00  0.00    -0.270 OA
ATOM      3  N   UNL     1      -2.882  -0.276   1.700  0.00  0.00    -0.296 N 
ATOM      4  C   UNL     1      -2.075  -0.143   2.935  0.00  0.00    +0.121 C 
ATOM      5  C   UNL     1      -2.716   1.039   3.695  0.00  0.00    +0.100 C 
ATOM      6  C   UNL     1      -4.160   1.105   3.172  0.00  0.00    -0.004 C 
ATOM      7  C   UNL     1      -4.276  -0.027   2.141  0.00  0.00    +0.115 C 
ATOM      8  C   UNL     1      -5.146   0.883   4.315  0.00  0.00    -0.010 C 
ATOM      9  C   UNL     1      -6.576   1.010   3.781  0.00  0.00    -0.082 C 
ATOM     10  N   UNL     1      -6.765   2.344   3.198  0.00  0.00    +0.379 N 
ATOM     11  C   UNL     1      -5.878   2.515   2.041  0.00  0.00    -0.082 C 
ATOM     12  C   UNL     1      -4.418   2.451   2.501  0.00  0.00    -0.010 C 
ATOM     13  H   UNL     1      -7.725   2.447   2.902  0.00  0.00    -0.086 HD
ATOM     14  H   UNL     1      -6.552   3.046   3.890  0.00  0.00    -0.086 HD
ENDROOT
BRANCH   1  17
ATOM     15  C   UNL     1      -0.236   1.481  -0.405  0.00  0.00    +0.090 C 
ATOM     16  C   UNL     1      -0.051   0.007  -0.152  0.00  0.00    +0.147 A 
ATOM     17  C   UNL     1      -1.027  -0.869   0.223  0.00  0.00    +0.106 A 
ATOM     18  C   UNL     1      -0.389  -2.187   0.352  0.00  0.00    +0.126 A 
ATOM     19  N   UNL     1       0.877  -2.027   0.059  0.00  0.00    -0.077 NA
ATOM     20  O   UNL     1       1.097  -0.668  -0.261  0.00  0.00    -0.359 OA
BRANCH  18  21
ATOM     21  C   UNL     1      -1.052  -3.456   0.740  0.00  0.00    +0.004 A 
ATOM     22  C   UNL     1      -2.092  -3.446   1.668  0.00  0.00    +0.010 A 
ATOM     23  C   UNL     1      -2.706  -4.629   2.025  0.00  0.00    +0.001 A 
ATOM     24  C   UNL     1      -2.290  -5.824   1.464  0.00  0.00    +0.000 A 
ATOM     25  C   UNL     1      -1.258  -5.840   0.544  0.00  0.00    +0.001 A 
ATOM     26  C   UNL     1      -0.641  -4.661   0.175  0.00  0.00    +0.010 A 
ENDBRANCH  18  21
ENDBRANCH   1  17
BRANCH   5  27
ATOM     27  C   UNL     1      -1.984   2.320   3.386  0.00  0.00    +0.218 C 
ATOM     28  O   UNL     1      -1.384   2.438   2.338  0.00  0.00    -0.275 OA
ATOM     29  N   UNL     1      -1.997   3.335   4.273  0.00  0.00    -0.316 N 
ATOM     30  H   UNL     1      -2.477   3.241   5.111  0.00  0.00    +0.149 HD
BRANCH  29  31
ATOM     31  C   UNL     1      -1.286   4.580   3.972  0.00  0.00    +0.093 C 
BRANCH  31  32
ATOM     32  C   UNL     1      -1.360   5.514   5.181  0.00  0.00    -0.021 C 
BRANCH  32  33
ATOM     33  C   UNL     1      -2.793   5.918   5.417  0.00  0.00    -0.059 A 
ATOM     34  C   UNL     1      -3.365   6.915   4.649  0.00  0.00    +0.002 A 
ATOM     35  C   UNL     1      -4.679   7.286   4.866  0.00  0.00    +0.000 A 
ATOM     36  C   UNL     1      -5.421   6.660   5.850  0.00  0.00    +0.000 A 
ATOM     37  C   UNL     1      -4.848   5.662   6.618  0.00  0.00    +0.000 A 
ATOM     38  C   UNL     1      -3.536   5.289   6.398  0.00  0.00    +0.002 A 
ENDBRANCH  32  33
BRANCH  32  39
ATOM     39  N   UNL     1      -0.549   6.712   4.925  0.00  0.00    +0.382 N 
ATOM     40  C   UNL     1      -0.557   7.573   6.115  0.00  0.00    -0.096 C 
ATOM     41  C   UNL     1       0.831   6.313   4.618  0.00  0.00    -0.096 C 
ATOM     42  H   UNL     1      -0.935   7.218   4.142  0.00  0.00    -0.082 HD
ENDBRANCH  32  39
ENDBRANCH  31  32
ENDBRANCH  29  31
ENDBRANCH   5  27
TORSDOF 7
