REMARK  Name = ZINC00683569
REMARK  8 active torsions:
REMARK  status: ('A' for Active; 'I' for Inactive)
REMARK    1  A    between atoms: C_1  and  C_2
REMARK    2  A    between atoms: N_4  and  C_18
REMARK    3  A    between atoms: C_8  and  C_9
REMARK    4  A    between atoms: C_12  and  N_15
REMARK    5  A    between atoms: N_15  and  C_16
REMARK    6  A    between atoms: N_15  and  C_17
REMARK    7  A    between atoms: C_21  and  S_24
REMARK    8  A    between atoms: S_24  and  N_27
REMARK                            x       y       z     vdW  Elec       q    Type
REMARK                         _______ _______ _______ _____ _____    ______ ____
ROOT
ATOM      1  C   UNL     1       1.489   3.292   0.084  0.00  0.00    +0.068 C 
ATOM      2  C   UNL     1       1.180   1.851  -0.231  0.00  0.00    +0.069 C 
ATOM      3  N   UNL     1       0.013   1.363  -0.518  0.00  0.00    -0.177 NA
ATOM      4  N   UNL     1       0.080  -0.010  -0.757  0.00  0.00    -0.156 N 
ATOM      5  C   UNL     1       1.350  -0.442  -0.621  0.00  0.00    +0.272 C 
ATOM      6  O   UNL     1       1.755  -1.583  -0.760  0.00  0.00    -0.268 OA
ATOM      7  C   UNL     1       2.147   0.744  -0.269  0.00  0.00    +0.062 C 
ATOM      8  C   UNL     1       3.509   0.805  -0.027  0.00  0.00    +0.023 C 
ENDROOT
BRANCH   8   9
ATOM      9  C   UNL     1       4.289  -0.427   0.070  0.00  0.00    -0.024 A 
ATOM     10  C   UNL     1       3.740  -1.562   0.687  0.00  0.00    +0.010 A 
ATOM     11  C   UNL     1       4.471  -2.712   0.769  0.00  0.00    +0.023 A 
ATOM     12  C   UNL     1       5.765  -2.756   0.253  0.00  0.00    +0.029 A 
ATOM     13  C   UNL     1       6.317  -1.631  -0.356  0.00  0.00    +0.023 A 
ATOM     14  C   UNL     1       5.593  -0.478  -0.449  0.00  0.00    +0.010 A 
BRANCH  12  15
ATOM     15  N   UNL     1       6.506  -3.926   0.345  0.00  0.00    -0.336 N 
ATOM     16  C   UNL     1       7.867  -3.977  -0.197  0.00  0.00    +0.129 C 
ATOM     17  C   UNL     1       5.929  -5.111   0.985  0.00  0.00    +0.129 C 
ENDBRANCH  12  15
ENDBRANCH   8   9
BRANCH   4  18
ATOM     18  C   UNL     1      -1.012  -0.820  -1.090  0.00  0.00    +0.060 A 
ATOM     19  C   UNL     1      -0.828  -2.179  -1.312  0.00  0.00    +0.027 A 
ATOM     20  C   UNL     1      -1.909  -2.977  -1.636  0.00  0.00    +0.030 A 
ATOM     21  C   UNL     1      -3.170  -2.422  -1.749  0.00  0.00    +0.105 A 
ATOM     22  C   UNL     1      -3.356  -1.069  -1.534  0.00  0.00    +0.030 A 
ATOM     23  C   UNL     1      -2.280  -0.267  -1.205  0.00  0.00    +0.027 A 
BRANCH  21  24
ATOM     24  S   UNL     1      -4.544  -3.442  -2.169  0.00  0.00    +0.056 S 
ATOM     25  O   UNL     1      -4.200  -4.766  -1.784  0.00  0.00    -0.153 OA
ATOM     26  O   UNL     1      -5.704  -2.783  -1.678  0.00  0.00    -0.153 OA
BRANCH  24  27
ATOM     27  N   UNL     1      -4.665  -3.445  -3.821  0.00  0.00    -0.204 NA
ATOM     28  H   UNL     1      -4.034  -2.938  -4.354  0.00  0.00    +0.144 HD
ATOM     29  H   UNL     1      -5.367  -3.955  -4.255  0.00  0.00    +0.144 HD
ENDBRANCH  24  27
ENDBRANCH  21  24
ENDBRANCH   4  18
TORSDOF 5
