REMARK  Name = ZINC35056840
REMARK  11 active torsions:
REMARK  status: ('A' for Active; 'I' for Inactive)
REMARK    1  A    between atoms: C_1  and  C_2
REMARK    2  A    between atoms: C_5  and  O_8
REMARK    3  A    between atoms: O_8  and  C_9
REMARK    4  A    between atoms: C_11  and  N_33
REMARK    5  A    between atoms: C_13  and  O_26
REMARK    6  A    between atoms: C_22  and  C_24
REMARK    7  A    between atoms: C_22  and  C_25
REMARK    8  A    between atoms: O_26  and  C_27
REMARK    9  A    between atoms: C_27  and  C_29
REMARK   10  A    between atoms: C_27  and  C_30
REMARK   11  A    between atoms: C_34  and  C_36
REMARK                            x       y       z     vdW  Elec       q    Type
REMARK                         _______ _______ _______ _____ _____    ______ ____
ROOT
ATOM      1  C   UNL     1      -0.067  -4.795   1.333  0.00  0.00    +0.331 C 
ATOM      2  C   UNL     1       0.268  -6.264   1.065  0.00  0.00    +0.173 C 
ATOM      3  C   UNL     1       0.285  -7.039   2.389  0.00  0.00    +0.177 C 
ATOM      4  C   UNL     1      -1.069  -6.854   3.075  0.00  0.00    +0.183 C 
ATOM      5  C   UNL     1      -1.305  -5.354   3.296  0.00  0.00    +0.179 C 
ATOM      6  O   UNL     1      -1.313  -4.698   2.030  0.00  0.00    -0.332 OA
ATOM      7  C   UNL     1      -2.640  -5.176   4.021  0.00  0.00    +0.197 C 
ATOM      8  O   UNL     1      -2.602  -5.946   5.230  0.00  0.00    -0.347 OA
ATOM      9  C   UNL     1      -2.339  -7.336   5.036  0.00  0.00    +0.165 C 
ATOM     10  O   UNL     1      -1.098  -7.510   4.342  0.00  0.00    -0.341 OA
ATOM     11  C   UNL     1      -2.262  -8.032   6.396  0.00  0.00    +0.074 C 
ATOM     12  C   UNL     1      -3.470  -7.957   4.214  0.00  0.00    +0.074 C 
ENDROOT
BRANCH   2  13
ATOM     13  N   UNL     1       1.585  -6.356   0.430  0.00  0.00    -0.304 N 
ATOM     14  C   UNL     1       1.688  -6.339  -0.913  0.00  0.00    +0.210 C 
ATOM     15  O   UNL     1       0.690  -6.248  -1.597  0.00  0.00    -0.276 OA
ATOM     16  C   UNL     1       3.043  -6.434  -1.566  0.00  0.00    +0.109 C 
ATOM     17  H   UNL     1       2.383  -6.429   0.977  0.00  0.00    +0.149 HD
ENDBRANCH   2  13
BRANCH   1  18
ATOM     18  O   UNL     1      -0.164  -4.097   0.090  0.00  0.00    -0.462 OA
BRANCH  18  23
ATOM     19  C   UNL     1      -0.498   1.520   0.333  0.00  0.00    +0.044 C 
ATOM     20  C   UNL     1      -0.408   0.018   0.268  0.00  0.00    -0.050 A 
ATOM     21  C   UNL     1      -0.421  -0.622  -0.958  0.00  0.00    +0.007 A 
ATOM     22  C   UNL     1      -0.340  -2.000  -1.020  0.00  0.00    +0.046 A 
ATOM     23  C   UNL     1      -0.244  -2.741   0.148  0.00  0.00    +0.124 A 
ATOM     24  C   UNL     1      -0.230  -2.097   1.377  0.00  0.00    +0.046 A 
ATOM     25  C   UNL     1      -0.307  -0.719   1.433  0.00  0.00    +0.007 A 
ENDBRANCH  18  23
ENDBRANCH   1  18
BRANCH   3  26
ATOM     26  O   UNL     1       0.511  -8.426   2.130  0.00  0.00    -0.358 OA
BRANCH  26  27
ATOM     27  C   UNL     1       1.869  -8.835   2.302  0.00  0.00    +0.228 C 
ATOM     28  C   UNL     1       2.062  -9.380   3.718  0.00  0.00    +0.050 C 
BRANCH  27  29
ATOM     29  C   UNL     1       2.200  -9.911   1.300  0.00  0.00    +0.384 C 
ATOM     30  O   UNL     1       3.340 -10.336   1.216  0.00  0.00    -0.243 OA
ATOM     31  O   UNL     1       1.328 -10.357   0.574  0.00  0.00    -0.243 OA
ENDBRANCH  27  29
ENDBRANCH  26  27
ENDBRANCH   3  26
TORSDOF 6
