REMARK  Name = ZINC33518010
REMARK  8 active torsions:
REMARK  status: ('A' for Active; 'I' for Inactive)
REMARK    1  A    between atoms: C_2  and  C_3
REMARK    2  A    between atoms: C_3  and  N_4
REMARK    3  A    between atoms: C_9  and  C_30
REMARK    4  A    between atoms: C_12  and  C_17
REMARK    5  A    between atoms: C_12  and  C_27
REMARK    6  A    between atoms: C_17  and  C_18
REMARK    7  A    between atoms: C_21  and  N_24
REMARK    8  A    between atoms: C_35  and  C_36
REMARK                            x       y       z     vdW  Elec       q    Type
REMARK                         _______ _______ _______ _____ _____    ______ ____
ROOT
ATOM      1  N   UNL     1       1.341   2.159  -0.160  0.00  0.00    -0.230 N 
ATOM      2  C   UNL     1       2.025   2.369   1.012  0.00  0.00    +0.228 C 
ATOM      3  O   UNL     1       1.694   2.039   2.131  0.00  0.00    -0.275 OA
ATOM      4  C   UNL     1       3.223   3.068   0.620  0.00  0.00    +0.111 C 
ATOM      5  C   UNL     1       4.583   3.356   1.107  0.00  0.00    +0.099 C 
ATOM      6  N   UNL     1       5.231   3.964  -0.106  0.00  0.00    -0.293 NA
ATOM      7  C   UNL     1       4.479   3.494  -1.308  0.00  0.00    +0.138 C 
ATOM      8  C   UNL     1       3.532   2.405  -0.781  0.00  0.00    +0.121 C 
ATOM      9  C   UNL     1       2.109   2.388  -1.266  0.00  0.00    +0.229 C 
ATOM     10  O   UNL     1       1.724   2.547  -2.405  0.00  0.00    -0.275 OA
ATOM     11  H   UNL     1       5.230   4.971  -0.050  0.00  0.00    +0.124 HD
ENDROOT
BRANCH   5  12
ATOM     12  C   UNL     1       4.548   4.340   2.248  0.00  0.00    -0.012 A 
ATOM     13  C   UNL     1       3.410   5.082   2.487  0.00  0.00    +0.006 A 
ATOM     14  C   UNL     1       3.376   5.986   3.534  0.00  0.00    +0.000 A 
ATOM     15  C   UNL     1       4.482   6.152   4.348  0.00  0.00    +0.001 A 
ATOM     16  C   UNL     1       5.627   5.417   4.121  0.00  0.00    +0.019 A 
ATOM     17  C   UNL     1       5.665   4.499   3.070  0.00  0.00    +0.056 A 
BRANCH  17  18
ATOM     18  C   UNL     1       6.848   3.727   2.832  0.00  0.00    +0.099 C 
ATOM     19  N   UNL     1       7.787   3.115   2.644  0.00  0.00    -0.191 NA
ENDBRANCH  17  18
ENDBRANCH   5  12
BRANCH   7  20
ATOM     20  C   UNL     1       5.428   2.900  -2.317  0.00  0.00    +0.377 C 
ATOM     21  O   UNL     1       6.626   2.884  -2.092  0.00  0.00    -0.244 OA
ATOM     22  O   UNL     1       4.997   2.436  -3.359  0.00  0.00    -0.244 OA
ENDBRANCH   7  20
BRANCH   1  23
ATOM     23  C   UNL     1      -0.058   1.730  -0.218  0.00  0.00    +0.204 C 
BRANCH  23  25
ATOM     24  C   UNL     1      -0.171  -0.913  -0.239  0.00  0.00    +0.005 C 
ATOM     25  C   UNL     1      -0.121   0.260  -0.229  0.00  0.00    -0.086 C 
ENDBRANCH  23  25
ENDBRANCH   1  23
BRANCH   7  26
ATOM     26  C   UNL     1       3.699   4.653  -1.932  0.00  0.00    +0.069 C 
BRANCH  26  27
ATOM     27  C   UNL     1       4.661   5.725  -2.376  0.00  0.00    -0.045 A 
ATOM     28  C   UNL     1       5.022   6.734  -1.504  0.00  0.00    +0.006 A 
ATOM     29  C   UNL     1       5.905   7.717  -1.912  0.00  0.00    +0.033 A 
ATOM     30  C   UNL     1       6.426   7.690  -3.192  0.00  0.00    +0.126 A 
ATOM     31  C   UNL     1       6.065   6.680  -4.064  0.00  0.00    +0.033 A 
ATOM     32  C   UNL     1       5.186   5.695  -3.655  0.00  0.00    +0.006 A 
BRANCH  30  33
ATOM     33  N   UNL     1       7.370   8.743  -3.629  0.00  0.00    +0.056 N 
ATOM     34  O   UNL     1       7.685   9.627  -2.867  0.00  0.00    -0.126 OA
ATOM     35  O   UNL     1       7.825   8.720  -4.749  0.00  0.00    -0.126 OA
ENDBRANCH  30  33
ENDBRANCH  26  27
ENDBRANCH   7  26
TORSDOF 8
