REMARK  Name = ZINC49073222
REMARK  12 active torsions:
REMARK  status: ('A' for Active; 'I' for Inactive)
REMARK    1  A    between atoms: C_5  and  C_7
REMARK    2  A    between atoms: C_7  and  C_8
REMARK    3  A    between atoms: C_8  and  C_9
REMARK    4  A    between atoms: C_9  and  C_10
REMARK    5  A    between atoms: C_10  and  C_11
REMARK    6  A    between atoms: C_11  and  N_12
REMARK    7  A    between atoms: C_16  and  O_27
REMARK    8  A    between atoms: C_23  and  N_26
REMARK    9  A    between atoms: O_27  and  C_28
REMARK   10  A    between atoms: C_28  and  C_29
REMARK   11  A    between atoms: C_29  and  C_30
REMARK   12  A    between atoms: C_33  and  O_36
REMARK                            x       y       z     vdW  Elec       q    Type
REMARK                         _______ _______ _______ _____ _____    ______ ____
ROOT
ATOM      1  N   UNL     1       3.760  -6.661  -3.570  0.00  0.00    -0.344 N 
ATOM      2  C   UNL     1       3.258  -6.923  -4.828  0.00  0.00    +0.050 A 
ATOM      3  C   UNL     1       1.983  -6.848  -5.380  0.00  0.00    +0.030 A 
ATOM      4  C   UNL     1       1.784  -7.181  -6.701  0.00  0.00    +0.048 A 
ATOM      5  C   UNL     1       2.849  -7.595  -7.497  0.00  0.00    +0.121 A 
ATOM      6  C   UNL     1       4.121  -7.677  -6.968  0.00  0.00    +0.056 A 
ATOM      7  C   UNL     1       4.337  -7.341  -5.629  0.00  0.00    +0.007 A 
ATOM      8  C   UNL     1       5.511  -7.312  -4.763  0.00  0.00    -0.020 A 
ATOM      9  C   UNL     1       5.106  -6.894  -3.549  0.00  0.00    +0.023 A 
ATOM     10  C   UNL     1       6.035  -6.724  -2.369  0.00  0.00    +0.052 C 
ATOM     11  C   UNL     1       7.477  -6.682  -2.886  0.00  0.00    -0.010 C 
ATOM     12  C   UNL     1       7.721  -7.870  -3.820  0.00  0.00    -0.070 C 
ATOM     13  C   UNL     1       6.932  -7.671  -5.117  0.00  0.00    +0.021 C 
ENDROOT
BRANCH  12  14
ATOM     14  N   UNL     1       9.154  -7.969  -4.125  0.00  0.00    +0.380 N 
ATOM     15  H   UNL     1       9.672  -8.102  -3.269  0.00  0.00    -0.090 HD
ATOM     16  H   UNL     1       9.314  -8.752  -4.741  0.00  0.00    -0.090 HD
ATOM     17  H   UNL     1       9.461  -7.119  -4.575  0.00  0.00    -0.090 HD
ENDBRANCH  12  14
BRANCH   1  18
ATOM     18  C   UNL     1       2.969  -6.197  -2.428  0.00  0.00    +0.122 C 
BRANCH  18  19
ATOM     19  C   UNL     1       2.936  -4.667  -2.418  0.00  0.00    +0.022 C 
BRANCH  19  20
ATOM     20  C   UNL     1       2.110  -4.182  -1.225  0.00  0.00    +0.002 C 
BRANCH  20  21
ATOM     21  C   UNL     1       2.077  -2.653  -1.216  0.00  0.00    +0.006 C 
BRANCH  21  22
ATOM     22  C   UNL     1       1.250  -2.168  -0.023  0.00  0.00    +0.055 C 
BRANCH  22  27
ATOM     23  C   UNL     1      -0.017   1.382   0.010  0.00  0.00    +0.003 A 
ATOM     24  C   UNL     1       1.194   2.059   0.002  0.00  0.00    +0.020 A 
ATOM     25  C   UNL     1       2.370   1.334  -0.013  0.00  0.00    +0.111 A 
ATOM     26  N   UNL     1       2.350   0.015  -0.021  0.00  0.00    -0.260 NA
ATOM     27  C   UNL     1       1.218  -0.661  -0.014  0.00  0.00    +0.041 A 
ATOM     28  C   UNL     1       0.002  -0.004   0.002  0.00  0.00    +0.023 A 
ENDBRANCH  22  27
ENDBRANCH  21  22
ENDBRANCH  20  21
ENDBRANCH  19  20
ENDBRANCH  18  19
ENDBRANCH   1  18
BRANCH   5  29
ATOM     29  O   UNL     1       2.635  -7.920  -8.799  0.00  0.00    -0.492 OA
BRANCH  29  30
ATOM     30  C   UNL     1       1.294  -7.814  -9.283  0.00  0.00    +0.233 C 
BRANCH  30  31
ATOM     31  C   UNL     1       1.250  -8.219 -10.758  0.00  0.00    +0.076 C 
BRANCH  31  32
ATOM     32  C   UNL     1      -0.164  -8.107 -11.267  0.00  0.00    -0.044 A 
ATOM     33  C   UNL     1      -1.017  -9.191 -11.178  0.00  0.00    +0.007 A 
ATOM     34  C   UNL     1      -2.314  -9.091 -11.644  0.00  0.00    +0.045 A 
ATOM     35  C   UNL     1      -2.759  -7.902 -12.203  0.00  0.00    +0.117 A 
ATOM     36  C   UNL     1      -1.901  -6.815 -12.291  0.00  0.00    +0.045 A 
ATOM     37  C   UNL     1      -0.607  -6.918 -11.818  0.00  0.00    +0.007 A 
BRANCH  35  38
ATOM     38  O   UNL     1      -4.034  -7.801 -12.663  0.00  0.00    -0.507 OA
ATOM     39  H   UNL     1      -4.669  -7.498 -12.000  0.00  0.00    +0.292 HD
ENDBRANCH  35  38
ENDBRANCH  31  32
ENDBRANCH  30  31
ENDBRANCH  29  30
ENDBRANCH   5  29
TORSDOF 12
