REMARK  Name = ZINC14097421
REMARK  6 active torsions:
REMARK  status: ('A' for Active; 'I' for Inactive)
REMARK    1  A    between atoms: C_1  and  C_2
REMARK    2  A    between atoms: C_4  and  S_9
REMARK    3  A    between atoms: S_9  and  N_12
REMARK    4  A    between atoms: N_12  and  C_13
REMARK    5  A    between atoms: C_16  and  N_19
REMARK    6  A    between atoms: C_20  and  C_22
REMARK                            x       y       z     vdW  Elec       q    Type
REMARK                         _______ _______ _______ _____ _____    ______ ____
ROOT
ATOM      1  N   UNL     1       0.342   1.688   0.086  0.00  0.00    -0.216 N 
ATOM      2  H   UNL     1      -0.501   2.166   0.138  0.00  0.00    +0.174 HD
ENDROOT
BRANCH   1   3
ATOM      3  C   UNL     1       1.537   2.396  -0.079  0.00  0.00    +0.048 A 
ATOM      4  C   UNL     1       2.647   2.075   0.692  0.00  0.00    +0.026 A 
ATOM      5  C   UNL     1       3.828   2.769   0.524  0.00  0.00    +0.025 A 
ATOM      6  C   UNL     1       3.904   3.797  -0.406  0.00  0.00    +0.034 A 
ATOM      7  C   UNL     1       2.793   4.122  -1.173  0.00  0.00    +0.025 A 
ATOM      8  C   UNL     1       1.613   3.424  -1.010  0.00  0.00    +0.026 A 
BRANCH   6   9
ATOM      9  N   UNL     1       5.101   4.506  -0.572  0.00  0.00    -0.285 N 
ATOM     10  C   UNL     1       5.071   5.814  -0.893  0.00  0.00    +0.220 C 
ATOM     11  O   UNL     1       4.011   6.401  -0.947  0.00  0.00    -0.275 OA
ATOM     12  H   UNL     1       5.952   4.055  -0.455  0.00  0.00    +0.155 HD
BRANCH  10  13
ATOM     13  C   UNL     1       6.354   6.548  -1.186  0.00  0.00    +0.075 C 
ATOM     14  C   UNL     1       6.806   7.611  -0.181  0.00  0.00    +0.013 C 
ATOM     15  C   UNL     1       6.253   8.032  -1.544  0.00  0.00    +0.013 C 
ENDBRANCH  10  13
ENDBRANCH   6   9
ENDBRANCH   1   3
BRANCH   1  16
ATOM     16  S   UNL     1       0.365   0.036   0.185  0.00  0.00    +0.072 S 
ATOM     17  O   UNL     1       1.330  -0.298   1.174  0.00  0.00    -0.150 OA
ATOM     18  O   UNL     1      -0.989  -0.386   0.270  0.00  0.00    -0.150 OA
BRANCH  16  22
ATOM     19  C   UNL     1       4.281  -1.674  -2.826  0.00  0.00    +0.045 C 
ATOM     20  C   UNL     1       2.817  -1.346  -2.683  0.00  0.00    -0.035 A 
ATOM     21  C   UNL     1       2.329  -0.871  -1.480  0.00  0.00    +0.033 A 
ATOM     22  C   UNL     1       0.986  -0.570  -1.349  0.00  0.00    +0.109 A 
ATOM     23  C   UNL     1       0.129  -0.750  -2.419  0.00  0.00    +0.030 A 
ATOM     24  C   UNL     1       0.617  -1.220  -3.623  0.00  0.00    +0.017 A 
ATOM     25  C   UNL     1       1.961  -1.521  -3.755  0.00  0.00    +0.021 A 
ATOM     26 BR   UNL     1       2.627  -2.171  -5.401  0.00  0.00    -0.050 Br
ENDBRANCH  16  22
ENDBRANCH   1  16
TORSDOF 5
