REMARK  Name = ZINC38773567
REMARK  7 active torsions:
REMARK  status: ('A' for Active; 'I' for Inactive)
REMARK    1  A    between atoms: C_1  and  C_2
REMARK    2  A    between atoms: C_2  and  C_3
REMARK    3  A    between atoms: C_16  and  C_19
REMARK    4  A    between atoms: C_21  and  O_28
REMARK    5  A    between atoms: C_22  and  O_26
REMARK    6  A    between atoms: O_26  and  C_27
REMARK    7  A    between atoms: O_28  and  C_29
REMARK                            x       y       z     vdW  Elec       q    Type
REMARK                         _______ _______ _______ _____ _____    ______ ____
ROOT
ATOM      1  C   UNL     1       0.731  -0.503   1.223  0.00  0.00    -0.047 A 
ATOM      2  C   UNL     1       2.098  -0.710   1.176  0.00  0.00    +0.005 A 
ATOM      3  C   UNL     1       2.768  -1.159   2.295  0.00  0.00    +0.023 A 
ATOM      4  C   UNL     1       2.076  -1.412   3.473  0.00  0.00    +0.033 A 
ATOM      5  C   UNL     1       0.693  -1.213   3.511  0.00  0.00    +0.003 A 
ATOM      6  C   UNL     1       0.034  -0.750   2.391  0.00  0.00    +0.011 A 
ATOM      7  C   UNL     1      -0.025  -1.528   4.769  0.00  0.00    +0.155 C 
ATOM      8  C   UNL     1       0.917  -1.215   5.964  0.00  0.00    +0.049 C 
ATOM      9  C   UNL     1      -0.061  -1.479   7.121  0.00  0.00    +0.036 C 
ATOM     10  C   UNL     1      -1.382  -0.907   6.532  0.00  0.00    +0.161 C 
ATOM     11  O   UNL     1      -1.232  -0.880   5.097  0.00  0.00    -0.372 OA
ATOM     12  C   UNL     1       2.089  -2.178   5.840  0.00  0.00    +0.107 C 
ATOM     13  N   UNL     1       2.782  -1.849   4.600  0.00  0.00    -0.336 N 
ATOM     14  H   UNL     1       3.747  -1.928   4.558  0.00  0.00    +0.147 HD
ENDROOT
BRANCH  12  15
ATOM     15  C   UNL     1       3.017  -2.020   7.017  0.00  0.00    -0.022 A 
ATOM     16  C   UNL     1       2.958  -2.918   8.067  0.00  0.00    +0.055 A 
ATOM     17  C   UNL     1       3.810  -2.775   9.150  0.00  0.00    +0.163 A 
ATOM     18  C   UNL     1       4.724  -1.726   9.179  0.00  0.00    +0.180 A 
ATOM     19  C   UNL     1       4.778  -0.829   8.123  0.00  0.00    +0.086 A 
ATOM     20  C   UNL     1       3.928  -0.981   7.042  0.00  0.00    +0.029 A 
ATOM     21 CL   UNL     1       5.916   0.482   8.155  0.00  0.00    -0.080 Cl
BRANCH  18  22
ATOM     22  O   UNL     1       5.562  -1.581  10.240  0.00  0.00    -0.490 OA
ATOM     23  C   UNL     1       6.824  -2.247  10.166  0.00  0.00    +0.277 C 
ENDBRANCH  18  22
BRANCH  17  24
ATOM     24  O   UNL     1       3.753  -3.657  10.183  0.00  0.00    -0.491 OA
ATOM     25  C   UNL     1       2.790  -4.709  10.086  0.00  0.00    +0.277 C 
ENDBRANCH  17  24
ENDBRANCH  12  15
BRANCH   1  27
ATOM     26  C   UNL     1      -0.019   1.526   0.010  0.00  0.00    +0.009 C 
ATOM     27  C   UNL     1       0.002  -0.004   0.002  0.00  0.00    +0.032 C 
ENDBRANCH   1  27
TORSDOF 4
