REMARK  Name = ZINC22864581
REMARK  11 active torsions:
REMARK  status: ('A' for Active; 'I' for Inactive)
REMARK    1  A    between atoms: C_1  and  C_2
REMARK    2  A    between atoms: C_2  and  O_3
REMARK    3  A    between atoms: O_3  and  C_4
REMARK    4  A    between atoms: C_4  and  C_6
REMARK    5  A    between atoms: C_7  and  C_14
REMARK    6  A    between atoms: C_8  and  C_12
REMARK    7  A    between atoms: C_9  and  N_11
REMARK    8  A    between atoms: C_14  and  S_15
REMARK    9  A    between atoms: S_15  and  C_16
REMARK   10  A    between atoms: C_19  and  C_22
REMARK   11  A    between atoms: N_20  and  C_21
REMARK                            x       y       z     vdW  Elec       q    Type
REMARK                         _______ _______ _______ _____ _____    ______ ____
ROOT
ATOM      1  S   UNL     1      -3.062   1.113   1.728  0.00  0.00    -0.081 S 
ENDROOT
BRANCH   1   2
ATOM      2  C   UNL     1      -4.592   0.288   1.440  0.00  0.00    +0.192 A 
ATOM      3  N   UNL     1      -5.121   0.010   0.271  0.00  0.00    -0.122 NA
ATOM      4  N   UNL     1      -6.242  -0.597   0.432  0.00  0.00    -0.130 NA
ATOM      5  C   UNL     1      -6.494  -0.742   1.703  0.00  0.00    +0.178 A 
ATOM      6  N   UNL     1      -5.449  -0.189   2.390  0.00  0.00    -0.306 N 
ATOM      7  C   UNL     1      -5.285  -0.119   3.844  0.00  0.00    +0.153 C 
BRANCH   5   8
ATOM      8  C   UNL     1      -7.708  -1.403   2.303  0.00  0.00    +0.278 C 
ATOM      9  C   UNL     1      -7.600  -2.925   2.144  0.00  0.00    +0.281 C 
ATOM     10  O   UNL     1      -8.773  -3.519   2.711  0.00  0.00    -0.484 OA
ATOM     11  C   UNL     1      -9.966  -2.956   2.378  0.00  0.00    +0.162 A 
ATOM     12  C   UNL     1     -11.138  -3.670   2.585  0.00  0.00    +0.049 A 
ATOM     13  C   UNL     1     -12.357  -3.109   2.256  0.00  0.00    +0.004 A 
ATOM     14  C   UNL     1     -12.414  -1.837   1.719  0.00  0.00    +0.004 A 
ATOM     15  C   UNL     1     -11.250  -1.121   1.509  0.00  0.00    +0.049 A 
ATOM     16  C   UNL     1     -10.023  -1.678   1.837  0.00  0.00    +0.163 A 
ATOM     17  O   UNL     1      -8.886  -0.962   1.619  0.00  0.00    -0.474 OA
ENDBRANCH   5   8
ENDBRANCH   1   2
BRANCH   1  18
ATOM     18  C   UNL     1      -2.539   1.409   0.021  0.00  0.00    +0.115 C 
BRANCH  18  20
ATOM     19  C   UNL     1      -1.143   3.505   0.032  0.00  0.00    +0.103 A 
ATOM     20  C   UNL     1      -1.213   2.126   0.019  0.00  0.00    +0.003 A 
ATOM     21  C   UNL     1      -0.017   1.428   0.010  0.00  0.00    +0.084 A 
ATOM     22  C   UNL     1       1.171   2.166   0.003  0.00  0.00    +0.082 A 
ATOM     23  S   UNL     1       0.614   3.807   0.017  0.00  0.00    -0.066 S 
BRANCH  22  24
ATOM     24  N   UNL     1       2.467   1.702  -0.012  0.00  0.00    -0.352 N 
ATOM     25  H   UNL     1       3.306   2.414  -0.016  0.00  0.00    +0.143 HD
ATOM     26  H   UNL     1       2.664   0.620  -0.019  0.00  0.00    +0.143 HD
ENDBRANCH  22  24
BRANCH  19  27
ATOM     27  C   UNL     1      -2.204   4.446   0.047  0.00  0.00    +0.346 C 
ATOM     28  O   UNL     1      -3.358   4.061   0.057  0.00  0.00    -0.244 OA
BRANCH  27  29
ATOM     29  O   UNL     1      -1.933   5.768   0.051  0.00  0.00    -0.461 OA
BRANCH  29  31
ATOM     30  C   UNL     1      -2.550   8.105   0.069  0.00  0.00    +0.048 C 
ATOM     31  C   UNL     1      -3.050   6.659   0.067  0.00  0.00    +0.229 C 
ENDBRANCH  29  31
ENDBRANCH  27  29
ENDBRANCH  19  27
BRANCH  21  32
ATOM     32  C   UNL     1       0.002  -0.004   0.002  0.00  0.00    +0.102 C 
ATOM     33  N   UNL     1       0.018  -1.140  -0.004  0.00  0.00    -0.191 NA
ENDBRANCH  21  32
ENDBRANCH  18  20
ENDBRANCH   1  18
TORSDOF 9
