REMARK  Name = ZINC12446298
REMARK  10 active torsions:
REMARK  status: ('A' for Active; 'I' for Inactive)
REMARK    1  A    between atoms: C_1  and  C_2
REMARK    2  A    between atoms: C_6  and  C_8
REMARK    3  A    between atoms: C_8  and  C_9
REMARK    4  A    between atoms: C_9  and  N_10
REMARK    5  A    between atoms: C_11  and  C_13
REMARK    6  A    between atoms: C_13  and  C_14
REMARK    7  A    between atoms: C_21  and  C_22
REMARK    8  A    between atoms: C_21  and  N_64
REMARK    9  A    between atoms: C_22  and  C_23
REMARK   10  A    between atoms: C_22  and  C_29
REMARK                            x       y       z     vdW  Elec       q    Type
REMARK                         _______ _______ _______ _____ _____    ______ ____
ROOT
ATOM      1  C   UNL     1      -0.999   0.860   1.243  0.00  0.00    +0.028 C 
ATOM      2  C   UNL     1      -0.477   0.169   2.471  0.00  0.00    +0.200 C 
ATOM      3  O   UNL     1       0.722   0.052   2.606  0.00  0.00    -0.278 OA
ATOM      4  N   UNL     1      -1.277  -0.319   3.423  0.00  0.00    -0.318 N 
ATOM      5  C   UNL     1      -2.734  -0.264   3.340  0.00  0.00    +0.085 C 
ATOM      6  C   UNL     1      -3.161   0.784   2.309  0.00  0.00    -0.059 C 
ATOM      7  H   UNL     1      -0.873  -0.731   4.203  0.00  0.00    +0.149 HD
ATOM      8  N   UNL     1      -2.423   0.521   1.058  0.00  0.00    +0.389 N 
ATOM      9  H   UNL     1      -2.503  -0.475   0.823  0.00  0.00    -0.081 HD
ENDROOT
BRANCH   1  10
ATOM     10  C   UNL     1      -0.212   0.385   0.020  0.00  0.00    +0.089 C 
BRANCH  10  12
ATOM     11  N   UNL     1       0.064  -1.707  -1.271  0.00  0.00    -0.315 N 
ATOM     12  C   UNL     1      -0.449  -1.088  -0.189  0.00  0.00    +0.212 C 
ATOM     13  O   UNL     1      -1.103  -1.718   0.616  0.00  0.00    -0.276 OA
ATOM     14  H   UNL     1       0.587  -1.204  -1.915  0.00  0.00    +0.149 HD
BRANCH  11  15
ATOM     15  C   UNL     1      -0.167  -3.139  -1.475  0.00  0.00    +0.112 C 
BRANCH  15  16
ATOM     16  C   UNL     1       0.518  -3.588  -2.767  0.00  0.00    +0.093 C 
BRANCH  16  22
ATOM     17  C   UNL     1       0.374  -8.534  -1.974  0.00  0.00    +0.067 C 
ATOM     18  C   UNL     1       0.215  -7.192  -2.642  0.00  0.00    +0.056 A 
ATOM     19  C   UNL     1      -0.299  -6.974  -3.868  0.00  0.00    +0.107 A 
ATOM     20  N   UNL     1      -0.263  -5.622  -4.078  0.00  0.00    -0.348 N 
ATOM     21  H   UNL     1      -0.579  -5.140  -4.895  0.00  0.00    +0.166 HD
ATOM     22  C   UNL     1       0.281  -5.061  -2.976  0.00  0.00    +0.109 A 
ATOM     23  N   UNL     1       0.561  -6.006  -2.120  0.00  0.00    -0.238 NA
ENDBRANCH  16  22
ENDBRANCH  15  16
ENDBRANCH  11  15
ENDBRANCH  10  12
ENDBRANCH   1  10
BRANCH   8  24
ATOM     24  C   UNL     1      -2.995   1.324  -0.047  0.00  0.00    -0.065 C 
BRANCH  24  25
ATOM     25  C   UNL     1      -3.271   2.753   0.424  0.00  0.00    +0.032 C 
BRANCH  25  26
ATOM     26  C   UNL     1      -1.964   3.453   0.696  0.00  0.00    -0.042 A 
ATOM     27  C   UNL     1      -1.718   3.996   1.943  0.00  0.00    +0.004 A 
ATOM     28  C   UNL     1      -0.517   4.634   2.194  0.00  0.00    +0.000 A 
ATOM     29  C   UNL     1       0.432   4.739   1.194  0.00  0.00    +0.000 A 
ATOM     30  C   UNL     1       0.183   4.201  -0.055  0.00  0.00    +0.000 A 
ATOM     31  C   UNL     1      -1.016   3.558  -0.304  0.00  0.00    +0.004 A 
ENDBRANCH  25  26
BRANCH  25  32
ATOM     32  C   UNL     1      -4.027   3.498  -0.646  0.00  0.00    -0.042 A 
ATOM     33  C   UNL     1      -3.568   3.490  -1.949  0.00  0.00    +0.004 A 
ATOM     34  C   UNL     1      -4.265   4.168  -2.932  0.00  0.00    +0.000 A 
ATOM     35  C   UNL     1      -5.415   4.864  -2.608  0.00  0.00    +0.000 A 
ATOM     36  C   UNL     1      -5.871   4.877  -1.303  0.00  0.00    +0.000 A 
ATOM     37  C   UNL     1      -5.177   4.193  -0.322  0.00  0.00    +0.004 A 
ENDBRANCH  25  32
ENDBRANCH  24  25
ENDBRANCH   8  24
TORSDOF 9
