REMARK  Name = ZINC66481961
REMARK  6 active torsions:
REMARK  status: ('A' for Active; 'I' for Inactive)
REMARK    1  A    between atoms: C_1  and  O_2
REMARK    2  A    between atoms: O_2  and  C_3
REMARK    3  A    between atoms: C_6  and  C_10
REMARK    4  A    between atoms: C_10  and  C_12
REMARK    5  A    between atoms: C_10  and  O_29
REMARK    6  A    between atoms: C_12  and  N_13
REMARK                            x       y       z     vdW  Elec       q    Type
REMARK                         _______ _______ _______ _____ _____    ______ ____
ROOT
ATOM      1  N   UNL     1       4.606  -3.486  -5.156  0.00  0.00    -0.221 N 
ATOM      2  C   UNL     1       4.572  -4.783  -5.526  0.00  0.00    +0.251 C 
ATOM      3  O   UNL     1       3.985  -5.689  -4.974  0.00  0.00    -0.272 OA
ATOM      4  C   UNL     1       5.419  -4.868  -6.775  0.00  0.00    +0.144 C 
ATOM      5  C   UNL     1       4.579  -5.342  -7.957  0.00  0.00    +0.081 C 
ATOM      6  C   UNL     1       4.338  -6.850  -7.802  0.00  0.00    +0.232 C 
ATOM      7  O   UNL     1       5.597  -7.520  -7.877  0.00  0.00    -0.492 OA
ATOM      8  C   UNL     1       6.615  -7.057  -7.107  0.00  0.00    +0.126 A 
ATOM      9  C   UNL     1       6.588  -5.787  -6.553  0.00  0.00    +0.027 A 
ATOM     10  C   UNL     1       7.652  -5.350  -5.781  0.00  0.00    +0.010 A 
ATOM     11  C   UNL     1       8.736  -6.176  -5.557  0.00  0.00    +0.001 A 
ATOM     12  C   UNL     1       8.764  -7.445  -6.104  0.00  0.00    +0.004 A 
ATOM     13  C   UNL     1       7.708  -7.886  -6.876  0.00  0.00    +0.046 A 
ATOM     14  N   UNL     1       5.879  -3.491  -6.989  0.00  0.00    -0.281 N 
ATOM     15  C   UNL     1       5.348  -2.754  -5.995  0.00  0.00    +0.310 C 
ATOM     16  O   UNL     1       5.526  -1.558  -5.872  0.00  0.00    -0.252 OA
ATOM     17  H   UNL     1       6.450  -3.174  -7.707  0.00  0.00    +0.152 HD
ENDROOT
BRANCH   1  18
ATOM     18  C   UNL     1       3.913  -2.946  -3.984  0.00  0.00    +0.154 C 
BRANCH  18  19
ATOM     19  C   UNL     1       2.505  -2.502  -4.385  0.00  0.00    +0.162 C 
BRANCH  19  23
ATOM     20  C   UNL     1       0.606  -0.607  -1.056  0.00  0.00    +0.155 A 
ATOM     21  C   UNL     1       1.173   0.160  -2.062  0.00  0.00    +0.049 A 
ATOM     22  C   UNL     1       1.786  -0.455  -3.137  0.00  0.00    +0.010 A 
ATOM     23  C   UNL     1       1.835  -1.835  -3.211  0.00  0.00    -0.015 A 
ATOM     24  C   UNL     1       1.271  -2.604  -2.210  0.00  0.00    +0.048 A 
ATOM     25  C   UNL     1       0.661  -1.994  -1.128  0.00  0.00    +0.165 A 
ATOM     26  F   UNL     1       0.115  -2.744  -0.147  0.00  0.00    -0.202 F 
BRANCH  20  28
ATOM     27  C   UNL     1      -0.017   1.425   0.010  0.00  0.00    +0.277 C 
ATOM     28  O   UNL     1       0.002  -0.004   0.002  0.00  0.00    -0.492 OA
ENDBRANCH  20  28
ENDBRANCH  19  23
BRANCH  19  29
ATOM     29  O   UNL     1       1.741  -3.642  -4.784  0.00  0.00    -0.386 OA
ATOM     30  H   UNL     1       1.643  -4.312  -4.092  0.00  0.00    +0.210 HD
ENDBRANCH  19  29
ENDBRANCH  18  19
ENDBRANCH   1  18
TORSDOF 5
