REMARK  Name = ZINC04039693
REMARK  6 active torsions:
REMARK  status: ('A' for Active; 'I' for Inactive)
REMARK    1  A    between atoms: C_1  and  C_2
REMARK    2  A    between atoms: C_15  and  O_33
REMARK    3  A    between atoms: C_18  and  C_31
REMARK    4  A    between atoms: C_23  and  C_25
REMARK    5  A    between atoms: C_25  and  C_30
REMARK    6  A    between atoms: C_31  and  O_32
REMARK                            x       y       z     vdW  Elec       q    Type
REMARK                         _______ _______ _______ _____ _____    ______ ____
ROOT
ATOM      1  C   UNL     1       7.782   0.372   1.809  0.00  0.00    +0.012 C 
ATOM      2  C   UNL     1       6.576  -0.563   1.633  0.00  0.00    -0.023 C 
ATOM      3  C   UNL     1       6.565  -1.063   0.183  0.00  0.00    +0.012 C 
ATOM      4  C   UNL     1       6.382   0.102  -0.787  0.00  0.00    +0.065 C 
ATOM      5  C   UNL     1       5.086   0.850  -0.473  0.00  0.00    +0.170 C 
ATOM      6  C   UNL     1       5.125   1.375   0.966  0.00  0.00    +0.069 C 
ATOM      7  C   UNL     1       5.282   0.189   1.915  0.00  0.00    +0.000 C 
ATOM      8  C   UNL     1       5.217   0.646   3.369  0.00  0.00    +0.004 C 
ATOM      9  C   UNL     1       5.233  -0.612   4.256  0.00  0.00    +0.004 C 
ATOM     10  C   UNL     1       6.547  -1.343   4.040  0.00  0.00    -0.001 C 
ATOM     11  C   UNL     1       6.751  -1.747   2.579  0.00  0.00    +0.027 C 
ATOM     12  C   UNL     1       5.933  -2.954   2.165  0.00  0.00    +0.119 C 
ATOM     13  C   UNL     1       6.148  -4.154   3.097  0.00  0.00    +0.041 C 
ATOM     14  C   UNL     1       5.901  -3.760   4.531  0.00  0.00    +0.007 C 
ATOM     15  C   UNL     1       6.764  -2.542   4.909  0.00  0.00    +0.001 C 
ATOM     16  C   UNL     1       6.498  -2.426   6.415  0.00  0.00    +0.005 C 
ATOM     17  C   UNL     1       6.551  -3.914   6.871  0.00  0.00    +0.010 C 
ATOM     18  C   UNL     1       6.399  -4.772   5.588  0.00  0.00    +0.057 C 
ATOM     19  O   UNL     1       4.930   1.948  -1.383  0.00  0.00    -0.346 OA
ATOM     20  C   UNL     1       3.535   1.938  -1.769  0.00  0.00    +0.191 C 
ATOM     21  C   UNL     1       3.209   0.424  -1.749  0.00  0.00    +0.191 C 
ATOM     22  O   UNL     1       3.975  -0.047  -0.621  0.00  0.00    -0.346 OA
ENDROOT
BRANCH  18  23
ATOM     23  C   UNL     1       5.349  -5.865   5.792  0.00  0.00    +0.171 C 
ATOM     24  O   UNL     1       4.162  -5.293   6.366  0.00  0.00    -0.346 OA
ATOM     25  C   UNL     1       3.657  -6.311   7.264  0.00  0.00    +0.191 C 
ATOM     26  C   UNL     1       4.969  -6.920   7.818  0.00  0.00    +0.191 C 
ATOM     27  O   UNL     1       5.860  -6.863   6.686  0.00  0.00    -0.346 OA
ATOM     28  C   UNL     1       5.007  -6.507   4.446  0.00  0.00    +0.074 C 
ENDBRANCH  18  23
BRANCH  12  29
ATOM     29  O   UNL     1       4.549  -2.640   2.068  0.00  0.00    -0.391 OA
ATOM     30  H   UNL     1       3.994  -3.388   1.806  0.00  0.00    +0.210 HD
ENDBRANCH  12  29
BRANCH  14  31
ATOM     31  C   UNL     1       4.411  -3.557   4.798  0.00  0.00    +0.163 C 
BRANCH  31  32
ATOM     32  O   UNL     1       4.220  -3.169   6.160  0.00  0.00    -0.394 OA
ATOM     33  H   UNL     1       3.311  -2.914   6.372  0.00  0.00    +0.209 HD
ENDBRANCH  31  32
ENDBRANCH  14  31
TORSDOF 4
