REMARK  Name = ZINC64706872
REMARK  9 active torsions:
REMARK  status: ('A' for Active; 'I' for Inactive)
REMARK    1  A    between atoms: C_1  and  C_2
REMARK    2  A    between atoms: C_2  and  C_3
REMARK    3  A    between atoms: C_2  and  N_4
REMARK    4  A    between atoms: C_7  and  C_9
REMARK    5  A    between atoms: C_9  and  N_10
REMARK    6  A    between atoms: N_13  and  C_14
REMARK    7  A    between atoms: C_14  and  C_15
REMARK    8  A    between atoms: N_19  and  C_21
REMARK    9  A    between atoms: C_21  and  C_22
REMARK                            x       y       z     vdW  Elec       q    Type
REMARK                         _______ _______ _______ _____ _____    ______ ____
ROOT
ATOM      1  N   UNL     1      -4.674  -2.218  -2.974  0.00  0.00    -0.299 N 
ATOM      2  C   UNL     1      -5.089  -2.596  -4.199  0.00  0.00    +0.300 C 
ATOM      3  O   UNL     1      -4.521  -2.178  -5.189  0.00  0.00    -0.253 OA
ATOM      4  N   UNL     1      -6.134  -3.438  -4.327  0.00  0.00    -0.299 N 
ATOM      5  H   UNL     1      -5.128  -2.552  -2.184  0.00  0.00    +0.150 HD
ATOM      6  H   UNL     1      -6.587  -3.772  -3.537  0.00  0.00    +0.150 HD
ENDROOT
BRANCH   1   7
ATOM      7  C   UNL     1      -3.539  -1.303  -2.835  0.00  0.00    +0.107 C 
BRANCH   7  11
ATOM      8  N   UNL     1      -1.376  -0.512   0.012  0.00  0.00    +0.381 N 
ATOM      9  C   UNL     1      -1.385  -1.992  -0.122  0.00  0.00    -0.078 C 
ATOM     10  C   UNL     1      -2.796  -2.326  -0.653  0.00  0.00    -0.015 C 
ATOM     11  C   UNL     1      -3.276  -1.037  -1.351  0.00  0.00    -0.012 C 
ATOM     12  C   UNL     1      -2.116  -0.033  -1.183  0.00  0.00    -0.074 C 
ATOM     13  H   UNL     1      -1.850  -0.230   0.857  0.00  0.00    -0.081 HD
BRANCH   8  15
ATOM     14  C   UNL     1      -0.019   1.526   0.010  0.00  0.00    -0.014 C 
ATOM     15  C   UNL     1       0.002  -0.004   0.002  0.00  0.00    -0.075 C 
ATOM     16  C   UNL     1       0.742  -0.511   1.242  0.00  0.00    -0.014 C 
ENDBRANCH   8  15
ENDBRANCH   7  11
ENDBRANCH   1   7
BRANCH   4  17
ATOM     17  C   UNL     1      -6.584  -3.849  -5.659  0.00  0.00    +0.107 C 
BRANCH  17  18
ATOM     18  C   UNL     1      -7.776  -4.799  -5.523  0.00  0.00    -0.011 C 
ATOM     19  C   UNL     1      -8.963  -4.047  -4.914  0.00  0.00    +0.001 C 
ATOM     20  C   UNL     1     -10.172  -4.984  -4.855  0.00  0.00    -0.018 C 
ATOM     21  C   UNL     1     -10.476  -5.505  -6.261  0.00  0.00    -0.078 C 
ATOM     22  N   UNL     1      -9.313  -6.237  -6.778  0.00  0.00    +0.383 N 
ATOM     23  C   UNL     1      -8.169  -5.327  -6.905  0.00  0.00    -0.073 C 
ATOM     24  H   UNL     1      -9.079  -6.985  -6.143  0.00  0.00    -0.081 HD
BRANCH  22  25
ATOM     25  C   UNL     1      -9.637  -6.801  -8.095  0.00  0.00    -0.036 C 
BRANCH  25  26
ATOM     26  C   UNL     1     -10.725  -7.833  -7.946  0.00  0.00    -0.027 A 
ATOM     27  C   UNL     1     -12.069  -7.672  -8.008  0.00  0.00    +0.009 A 
ATOM     28  C   UNL     1     -12.885  -8.775  -7.841  0.00  0.00    +0.008 A 
ATOM     29  C   UNL     1     -12.317  -9.986  -7.620  0.00  0.00    +0.045 A 
ATOM     30  S   UNL     1     -10.576  -9.588  -7.650  0.00  0.00    -0.103 S 
ENDBRANCH  25  26
ENDBRANCH  22  25
ENDBRANCH  17  18
ENDBRANCH   4  17
TORSDOF 7
