REMARK  Name = ZINC23232056
REMARK  5 active torsions:
REMARK  status: ('A' for Active; 'I' for Inactive)
REMARK    1  A    between atoms: C_6  and  C_7
REMARK    2  A    between atoms: C_7  and  O_21
REMARK    3  A    between atoms: N_10  and  C_13
REMARK    4  A    between atoms: C_13  and  C_14
REMARK    5  A    between atoms: C_23  and  C_25
REMARK                            x       y       z     vdW  Elec       q    Type
REMARK                         _______ _______ _______ _____ _____    ______ ____
ROOT
ATOM      1  C   UNL     1      -9.052   0.454  -2.054  0.00  0.00    +0.010 A 
ATOM      2  C   UNL     1     -10.378   0.184  -1.790  0.00  0.00    +0.047 A 
ATOM      3  C   UNL     1     -10.940  -1.011  -2.222  0.00  0.00    +0.136 A 
ATOM      4  C   UNL     1     -10.142  -1.928  -2.931  0.00  0.00    +0.021 A 
ATOM      5  C   UNL     1      -8.802  -1.633  -3.194  0.00  0.00    +0.018 A 
ATOM      6  C   UNL     1      -8.271  -0.451  -2.759  0.00  0.00    -0.015 A 
ATOM      7  C   UNL     1     -11.015  -3.061  -3.236  0.00  0.00    +0.063 A 
ATOM      8  C   UNL     1     -12.227  -2.754  -2.708  0.00  0.00    +0.191 A 
ATOM      9  O   UNL     1     -12.172  -1.544  -2.113  0.00  0.00    -0.450 OA
ENDROOT
BRANCH   6  10
ATOM     10  C   UNL     1      -6.825  -0.131  -3.041  0.00  0.00    +0.088 C 
ATOM     11  C   UNL     1      -6.652   1.385  -3.165  0.00  0.00    +0.021 C 
ATOM     12  C   UNL     1      -5.173   1.707  -3.391  0.00  0.00    -0.076 C 
ATOM     13  N   UNL     1      -4.382   1.197  -2.264  0.00  0.00    +0.380 N 
ATOM     14  C   UNL     1      -4.495  -0.263  -2.154  0.00  0.00    -0.076 C 
ATOM     15  C   UNL     1      -5.954  -0.644  -1.891  0.00  0.00    +0.021 C 
ATOM     16  H   UNL     1      -4.790   1.635  -1.342  0.00  0.00    -0.082 HD
BRANCH  10  17
ATOM     17  O   UNL     1      -6.426  -0.759  -4.261  0.00  0.00    -0.384 OA
ATOM     18  H   UNL     1      -5.398  -0.638  -4.631  0.00  0.00    +0.211 HD
ENDBRANCH  10  17
BRANCH  13  19
ATOM     19  C   UNL     1      -2.976   1.608  -2.378  0.00  0.00    -0.075 C 
BRANCH  19  20
ATOM     20  C   UNL     1      -2.241   1.278  -1.078  0.00  0.00    -0.024 C 
ATOM     21  C   UNL     1      -0.747   1.590  -1.236  0.00  0.00    +0.006 C 
ATOM     22  C   UNL     1      -0.013   1.086   0.008  0.00  0.00    +0.027 C 
ATOM     23  C   UNL     1      -0.710   1.567   1.247  0.00  0.00    -0.031 C 
ATOM     24  C   UNL     1      -1.919   2.020   1.272  0.00  0.00    -0.031 C 
ATOM     25  C   UNL     1      -2.797   2.136   0.060  0.00  0.00    +0.028 C 
ENDBRANCH  19  20
ENDBRANCH  13  19
ENDBRANCH   6  10
BRANCH   8  26
ATOM     26  C   UNL     1     -13.420  -3.610  -2.775  0.00  0.00    +0.282 C 
ATOM     27  O   UNL     1     -13.365  -4.688  -3.337  0.00  0.00    -0.267 OA
ATOM     28  N   UNL     1     -14.575  -3.202  -2.213  0.00  0.00    -0.295 N 
ATOM     29  C   UNL     1     -14.780  -1.932  -1.500  0.00  0.00    +0.108 C 
ATOM     30  C   UNL     1     -16.244  -1.911  -1.013  0.00  0.00    +0.020 C 
ATOM     31  C   UNL     1     -16.619  -3.416  -0.980  0.00  0.00    +0.020 C 
ATOM     32  C   UNL     1     -15.841  -3.957  -2.205  0.00  0.00    +0.108 C 
ENDBRANCH   8  26
TORSDOF 5
