REMARK  Name = ZINC05625911
REMARK  4 active torsions:
REMARK  status: ('A' for Active; 'I' for Inactive)
REMARK    1  A    between atoms: C_1  and  C_2
REMARK    2  A    between atoms: C_4  and  C_8
REMARK    3  A    between atoms: N_12  and  N_13
REMARK    4  A    between atoms: C_14  and  C_15
REMARK                            x       y       z     vdW  Elec       q    Type
REMARK                         _______ _______ _______ _____ _____    ______ ____
ROOT
ATOM      1  C   UNL     1       2.501   1.485   0.003  0.00  0.00    +0.203 A 
ATOM      2  N   UNL     1       2.958   0.284  -0.277  0.00  0.00    -0.125 NA
ATOM      3  N   UNL     1       4.240   0.270  -0.189  0.00  0.00    -0.119 NA
ATOM      4  C   UNL     1       4.685   1.459   0.153  0.00  0.00    +0.223 A 
ATOM      5  N   UNL     1       3.595   2.278   0.282  0.00  0.00    -0.185 N 
ATOM      6  S   UNL     1       6.370   1.916   0.392  0.00  0.00    -0.007 SA
ENDROOT
BRANCH   1  10
ATOM      7  C   UNL     1      -2.574   1.393   0.036  0.00  0.00    +0.067 C 
ATOM      8  C   UNL     1      -1.149   1.883   0.026  0.00  0.00    +0.060 A 
ATOM      9  C   UNL     1      -0.013   1.076   0.019  0.00  0.00    +0.055 A 
ATOM     10  C   UNL     1       1.090   1.905   0.011  0.00  0.00    +0.105 A 
ATOM     11  N   UNL     1       0.626   3.189   0.006  0.00  0.00    -0.274 N 
ATOM     12  H   UNL     1       1.335   4.030  -0.007  0.00  0.00    +0.189 HD
ATOM     13  N   UNL     1      -0.774   3.137   0.021  0.00  0.00    -0.179 NA
ENDBRANCH   1  10
BRANCH   5  14
ATOM     14  N   UNL     1       3.591   3.635   0.628  0.00  0.00    -0.170 NA
ATOM     15  C   UNL     1       3.513   3.987   1.875  0.00  0.00    +0.144 C 
BRANCH  15  16
ATOM     16  C   UNL     1       3.509   5.415   2.240  0.00  0.00    +0.031 A 
ATOM     17  C   UNL     1       3.426   5.798   3.581  0.00  0.00    +0.027 A 
ATOM     18  C   UNL     1       3.422   7.136   3.914  0.00  0.00    +0.019 A 
ATOM     19  C   UNL     1       3.502   8.101   2.924  0.00  0.00    +0.018 A 
ATOM     20  C   UNL     1       3.585   7.732   1.594  0.00  0.00    +0.040 A 
ATOM     21  C   UNL     1       3.595   6.395   1.244  0.00  0.00    +0.132 A 
ATOM     22  F   UNL     1       3.683   6.035  -0.055  0.00  0.00    -0.205 F 
ATOM     23 BR   UNL     1       3.309   7.655   5.729  0.00  0.00    -0.050 Br
ENDBRANCH  15  16
ENDBRANCH   5  14
TORSDOF 3
