REMARK  Name = ZINC19962473
REMARK  6 active torsions:
REMARK  status: ('A' for Active; 'I' for Inactive)
REMARK    1  A    between atoms: C_1  and  C_2
REMARK    2  A    between atoms: C_7  and  C_15
REMARK    3  A    between atoms: CA_10  and  C_12
REMARK    4  A    between atoms: C_18  and  O_21
REMARK    5  A    between atoms: O_21  and  C_22
REMARK    6  A    between atoms: C_22  and  C_23
REMARK                            x       y       z     vdW  Elec       q    Type
REMARK                         _______ _______ _______ _____ _____    ______ ____
ROOT
ATOM      1  C   UNL     1       1.506  -3.744   1.621  0.00  0.00    -0.022 A 
ATOM      2  C   UNL     1       2.367  -3.953   0.560  0.00  0.00    +0.009 A 
ATOM      3  C   UNL     1       3.679  -4.317   0.795  0.00  0.00    +0.046 A 
ATOM      4  C   UNL     1       4.132  -4.474   2.097  0.00  0.00    +0.121 A 
ATOM      5  C   UNL     1       3.266  -4.264   3.160  0.00  0.00    +0.046 A 
ATOM      6  C   UNL     1       1.956  -3.894   2.920  0.00  0.00    +0.009 A 
ENDROOT
BRANCH   1  13
ATOM      7  C   UNL     1      -0.018   1.503   0.010  0.00  0.00    +0.090 C 
ATOM      8  C   UNL     1       0.002  -0.004   0.002  0.00  0.00    +0.150 A 
ATOM      9  N   UNL     1       0.008  -0.765  -1.088  0.00  0.00    -0.195 NA
ATOM     10  C   UNL     1       0.025  -2.031  -0.746  0.00  0.00    +0.250 A 
ATOM     11  N   UNL     1       0.039  -2.085   0.623  0.00  0.00    -0.221 N 
ATOM     12  N   UNL     1       0.023  -0.769   1.073  0.00  0.00    -0.153 NA
ATOM     13  C   UNL     1       0.076  -3.347   1.363  0.00  0.00    +0.147 C 
ATOM     14  C   UNL     1      -0.614  -4.416   0.506  0.00  0.00    +0.094 C 
ATOM     15  CA  UNL     1      -0.206  -4.296  -0.935  0.00  0.00    +0.135 C 
ATOM     16  N   UNL     1       0.053  -3.151  -1.500  0.00  0.00    -0.209 NA
BRANCH  15  17
ATOM     17  C   UNL     1      -0.095  -5.523  -1.742  0.00  0.00    +0.401 C 
ATOM     18  O   UNL     1       0.235  -5.454  -2.918  0.00  0.00    -0.239 OA
ATOM     19  OXT UNL     1      -0.332  -6.612  -1.236  0.00  0.00    -0.239 OA
ENDBRANCH  15  17
ENDBRANCH   1  13
BRANCH   4  20
ATOM     20  O   UNL     1       5.421  -4.833   2.330  0.00  0.00    -0.487 OA
BRANCH  20  21
ATOM     21  C   UNL     1       5.818  -4.976   3.696  0.00  0.00    +0.264 C 
BRANCH  21  22
ATOM     22  C   UNL     1       7.270  -5.376   3.758  0.00  0.00    -0.010 A 
ATOM     23  C   UNL     1       7.620  -6.713   3.752  0.00  0.00    +0.007 A 
ATOM     24  C   UNL     1       8.951  -7.079   3.809  0.00  0.00    +0.000 A 
ATOM     25  C   UNL     1       9.933  -6.108   3.871  0.00  0.00    +0.000 A 
ATOM     26  C   UNL     1       9.584  -4.771   3.877  0.00  0.00    +0.000 A 
ATOM     27  C   UNL     1       8.252  -4.405   3.815  0.00  0.00    +0.007 A 
ENDBRANCH  21  22
ENDBRANCH  20  21
ENDBRANCH   4  20
TORSDOF 5
