REMARK  Name = ZINC40170526
REMARK  8 active torsions:
REMARK  status: ('A' for Active; 'I' for Inactive)
REMARK    1  A    between atoms: C_1  and  C_2
REMARK    2  A    between atoms: C_4  and  C_34
REMARK    3  A    between atoms: C_8  and  C_33
REMARK    4  A    between atoms: C_12  and  S_15
REMARK    5  A    between atoms: S_15  and  C_16
REMARK    6  A    between atoms: C_16  and  C_18
REMARK    7  A    between atoms: C_16  and  C_19
REMARK    8  A    between atoms: C_19  and  C_21
REMARK                            x       y       z     vdW  Elec       q    Type
REMARK                         _______ _______ _______ _____ _____    ______ ____
ROOT
ATOM      1  S   UNL     1       2.050  -4.721  -2.278  0.00  0.00    -0.075 S 
ENDROOT
BRANCH   1  13
ATOM      2  C   UNL     1      -0.018   1.502   0.010  0.00  0.00    +0.044 C 
ATOM      3  C   UNL     1       0.002  -0.004   0.002  0.00  0.00    -0.050 A 
ATOM      4  C   UNL     1      -0.039  -0.695  -1.196  0.00  0.00    +0.008 A 
ATOM      5  C   UNL     1       0.027  -2.076  -1.217  0.00  0.00    -0.026 A 
ATOM      6  C   UNL     1       0.210  -2.789  -0.045  0.00  0.00    +0.061 A 
ATOM      7  C   UNL     1       0.069  -2.094   1.181  0.00  0.00    +0.002 A 
ATOM      8  C   UNL     1       0.023  -0.698   1.192  0.00  0.00    +0.013 A 
ATOM      9  C   UNL     1      -0.094  -2.861   2.418  0.00  0.00    -0.038 A 
ATOM     10  C   UNL     1      -0.041  -4.212   2.365  0.00  0.00    +0.052 A 
ATOM     11  C   UNL     1       0.250  -4.863   1.149  0.00  0.00    +0.162 A 
ATOM     12  N   UNL     1       0.502  -4.139  -0.003  0.00  0.00    -0.270 N 
ATOM     13  C   UNL     1       1.082  -5.044  -0.841  0.00  0.00    +0.197 A 
ATOM     14  N   UNL     1       0.836  -6.244  -0.351  0.00  0.00    -0.122 NA
ATOM     15  N   UNL     1       0.309  -6.138   0.812  0.00  0.00    -0.129 NA
ATOM     16  C   UNL     1      -0.321  -2.174   3.740  0.00  0.00    +0.044 C 
ATOM     17  C   UNL     1      -0.188  -2.769  -2.540  0.00  0.00    +0.046 C 
ENDBRANCH   1  13
BRANCH   1  18
ATOM     18  C   UNL     1       2.489  -6.372  -2.891  0.00  0.00    +0.122 C 
ATOM     19  C   UNL     1       1.221  -7.105  -3.334  0.00  0.00    +0.028 C 
BRANCH  18  20
ATOM     20  C   UNL     1       3.428  -6.239  -4.061  0.00  0.00    +0.176 C 
ATOM     21  O   UNL     1       3.425  -5.227  -4.730  0.00  0.00    -0.291 OA
BRANCH  20  22
ATOM     22  C   UNL     1       4.348  -7.336  -4.393  0.00  0.00    +0.021 A 
ATOM     23  C   UNL     1       4.348  -8.508  -3.624  0.00  0.00    +0.013 A 
ATOM     24  C   UNL     1       5.201  -9.530  -3.929  0.00  0.00    +0.028 A 
ATOM     25  C   UNL     1       6.076  -9.414  -5.003  0.00  0.00    +0.067 A 
ATOM     26  C   UNL     1       6.085  -8.249  -5.779  0.00  0.00    +0.067 A 
ATOM     27  C   UNL     1       5.221  -7.214  -5.480  0.00  0.00    +0.039 A 
ATOM     28  N   UNL     1       7.053  -8.431  -6.765  0.00  0.00    -0.306 N 
ATOM     29  H   UNL     1       7.290  -7.791  -7.454  0.00  0.00    +0.170 HD
ATOM     30  C   UNL     1       7.604  -9.648  -6.595  0.00  0.00    +0.325 A 
ATOM     31  O   UNL     1       8.483 -10.122  -7.290  0.00  0.00    -0.247 OA
ATOM     32  N   UNL     1       7.034 -10.262  -5.542  0.00  0.00    -0.306 N 
ATOM     33  H   UNL     1       7.255 -11.147  -5.214  0.00  0.00    +0.170 HD
ENDBRANCH  20  22
ENDBRANCH  18  20
ENDBRANCH   1  18
TORSDOF 4
