REMARK  Name = ZINC36531045
REMARK  17 active torsions:
REMARK  status: ('A' for Active; 'I' for Inactive)
REMARK    1  A    between atoms: C_1  and  C_2
REMARK    2  A    between atoms: C_2  and  C_4
REMARK    3  A    between atoms: C_2  and  C_10
REMARK    4  A    between atoms: C_10  and  C_12
REMARK    5  A    between atoms: C_10  and  N_23
REMARK    6  A    between atoms: N_14  and  C_15
REMARK    7  A    between atoms: C_15  and  C_16
REMARK    8  A    between atoms: C_15  and  C_17
REMARK    9  A    between atoms: C_15  and  C_18
REMARK   10  A    between atoms: C_18  and  C_19
REMARK   11  A    between atoms: C_19  and  C_20
REMARK   12  A    between atoms: C_19  and  C_21
REMARK   13  A    between atoms: C_19  and  C_22
REMARK   14  A    between atoms: N_23  and  C_24
REMARK   15  A    between atoms: C_25  and  C_27
REMARK   16  A    between atoms: C_28  and  O_34
REMARK   17  A    between atoms: C_32  and  O_33
REMARK                            x       y       z     vdW  Elec       q    Type
REMARK                         _______ _______ _______ _____ _____    ______ ____
ROOT
ATOM      1  C   UNL     1       0.412   0.669  -0.373  0.00  0.00    +0.169 C 
ENDROOT
BRANCH   1   2
ATOM      2  C   UNL     1      -0.060   0.737  -1.802  0.00  0.00    +0.235 C 
ATOM      3  O   UNL     1      -0.276  -0.285  -2.419  0.00  0.00    -0.274 OA
ATOM      4  N   UNL     1      -0.243   1.933  -2.396  0.00  0.00    -0.309 N 
ATOM      5  H   UNL     1      -0.148   2.749  -1.880  0.00  0.00    +0.149 HD
BRANCH   4   6
ATOM      6  C   UNL     1      -0.586   2.000  -3.818  0.00  0.00    +0.030 C 
ATOM      7  C   UNL     1       0.447   1.214  -4.629  0.00  0.00    +0.031 C 
ATOM      8  C   UNL     1      -1.974   1.397  -4.038  0.00  0.00    +0.031 C 
BRANCH   6   9
ATOM      9  C   UNL     1      -0.586   3.461  -4.274  0.00  0.00    +0.031 C 
BRANCH   9  10
ATOM     10  C   UNL     1       0.839   4.014  -4.217  0.00  0.00    -0.036 C 
ATOM     11  C   UNL     1       1.616   3.549  -5.450  0.00  0.00    +0.010 C 
ATOM     12  C   UNL     1       0.792   5.543  -4.190  0.00  0.00    +0.010 C 
ATOM     13  C   UNL     1       1.534   3.502  -2.954  0.00  0.00    +0.010 C 
ENDBRANCH   9  10
ENDBRANCH   6   9
ENDBRANCH   4   6
ENDBRANCH   1   2
BRANCH   1  14
ATOM     14  N   UNL     1       0.855  -0.694  -0.069  0.00  0.00    -0.288 N 
ATOM     15  C   UNL     1      -0.084  -1.812  -0.185  0.00  0.00    +0.133 C 
ATOM     16  C   UNL     1       2.127  -0.918   0.317  0.00  0.00    +0.254 C 
ATOM     17  O   UNL     1       2.906   0.010   0.414  0.00  0.00    -0.270 OA
BRANCH  16  18
ATOM     18  C   UNL     1       2.572  -2.288   0.623  0.00  0.00    +0.119 A 
ATOM     19  C   UNL     1       3.116  -3.095  -0.387  0.00  0.00    +0.133 A 
ATOM     20  C   UNL     1       3.533  -4.383  -0.088  0.00  0.00    +0.046 A 
ATOM     21  C   UNL     1       3.414  -4.872   1.199  0.00  0.00    +0.007 A 
ATOM     22  C   UNL     1       2.879  -4.085   2.202  0.00  0.00    +0.046 A 
ATOM     23  C   UNL     1       2.461  -2.793   1.927  0.00  0.00    +0.133 A 
BRANCH  23  24
ATOM     24  O   UNL     1       1.942  -2.020   2.914  0.00  0.00    -0.506 OA
ATOM     25  H   UNL     1       0.984  -2.101   3.013  0.00  0.00    +0.292 HD
ENDBRANCH  23  24
BRANCH  19  26
ATOM     26  O   UNL     1       3.233  -2.618  -1.651  0.00  0.00    -0.506 OA
ATOM     27  H   UNL     1       4.074  -2.174  -1.828  0.00  0.00    +0.292 HD
ENDBRANCH  19  26
ENDBRANCH  16  18
ENDBRANCH   1  14
BRANCH   1  29
ATOM     28  C   UNL     1      -1.219   2.464   0.226  0.00  0.00    +0.015 C 
ATOM     29  C   UNL     1      -0.737   1.052   0.562  0.00  0.00    +0.045 C 
BRANCH  29  30
ATOM     30  C   UNL     1      -0.257   1.012   1.990  0.00  0.00    -0.042 A 
ATOM     31  C   UNL     1       0.782   1.830   2.393  0.00  0.00    +0.004 A 
ATOM     32  C   UNL     1       1.223   1.794   3.703  0.00  0.00    +0.000 A 
ATOM     33  C   UNL     1       0.624   0.940   4.610  0.00  0.00    +0.000 A 
ATOM     34  C   UNL     1      -0.416   0.123   4.207  0.00  0.00    +0.000 A 
ATOM     35  C   UNL     1      -0.859   0.162   2.899  0.00  0.00    +0.004 A 
ENDBRANCH  29  30
ENDBRANCH   1  29
TORSDOF 10
