REMARK  Name = ZINC35361200
REMARK  11 active torsions:
REMARK  status: ('A' for Active; 'I' for Inactive)
REMARK    1  A    between atoms: C_1  and  C_2
REMARK    2  A    between atoms: N_6  and  O_7
REMARK    3  A    between atoms: O_7  and  C_8
REMARK    4  A    between atoms: C_8  and  C_9
REMARK    5  A    between atoms: N_11  and  CA_12
REMARK    6  A    between atoms: CA_12  and  CB_14
REMARK    7  A    between atoms: CA_12  and  C_21
REMARK    8  A    between atoms: CB_14  and  CG_15
REMARK    9  A    between atoms: C_34  and  C_43
REMARK   10  A    between atoms: C_39  and  C_40
REMARK   11  A    between atoms: C_39  and  O_42
REMARK                            x       y       z     vdW  Elec       q    Type
REMARK                         _______ _______ _______ _____ _____    ______ ____
ROOT
ATOM      1  C   UNK A   0       0.415   2.543  -0.879  0.00  0.00    +0.016 C 
ATOM      2  C   UNK A   0       0.239   1.072  -0.498  0.00  0.00    -0.007 C 
ATOM      3  C   UNK A   0      -1.252   0.749  -0.387  0.00  0.00    +0.017 C 
ATOM      4  C   UNK A   0      -1.873   1.625   0.706  0.00  0.00    +0.059 C 
ATOM      5  C   UNK A   0      -1.136   1.384   2.000  0.00  0.00    +0.080 C 
ATOM      6  N   UNK A   0      -1.742   1.546   3.133  0.00  0.00    -0.089 NA
ATOM      7  C   UNK A   0       0.271   0.964   1.971  0.00  0.00    +0.026 C 
ATOM      8  C   UNK A   0       0.915   0.813   0.825  0.00  0.00    -0.062 C 
ATOM      9  C   UNK A   0       2.356   0.364   0.807  0.00  0.00    +0.031 C 
ATOM     10  C   UNK A   0       2.479  -0.945   0.040  0.00  0.00    +0.008 C 
ATOM     11  C   UNK A   0       1.366  -1.131  -0.984  0.00  0.00    -0.003 C 
ATOM     12  C   UNK A   0       0.883   0.193  -1.560  0.00  0.00    +0.002 C 
ATOM     13  C   UNK A   0       2.074   0.895  -2.215  0.00  0.00    +0.005 C 
ATOM     14  C   UNK A   0       2.522   0.049  -3.406  0.00  0.00    +0.011 C 
ATOM     15  C   UNK A   0       2.948  -1.353  -2.967  0.00  0.00    +0.011 C 
ATOM     16  C   UNK A   0       1.866  -2.026  -2.104  0.00  0.00    +0.002 C 
ATOM     17  C   UNK A   0       0.760  -2.367  -3.119  0.00  0.00    +0.008 C 
ATOM     18  C   UNK A   0       1.550  -2.846  -4.360  0.00  0.00    +0.049 C 
ATOM     19  C   UNK A   0       2.957  -2.229  -4.250  0.00  0.00    +0.132 C 
ATOM     20  C   UNK A   0       4.316  -1.336  -2.282  0.00  0.00    +0.015 C 
ENDROOT
BRANCH  19  21
ATOM     21  C   UNK A   0       3.967  -3.293  -4.129  0.00  0.00    -0.070 C 
ATOM     22  C   UNK A   0       4.773  -4.141  -4.032  0.00  0.00    +0.007 C 
ENDBRANCH  19  21
BRANCH  19  23
ATOM     23  O   UNK A   0       3.230  -1.420  -5.396  0.00  0.00    -0.376 OA
ATOM     24  H   UNK A   0       3.248  -1.911  -6.229  0.00  0.00    +0.211 HD
ENDBRANCH  19  23
BRANCH   6  25
ATOM     25  O   UNK A   0      -3.099   1.951   3.159  0.00  0.00    -0.384 OA
BRANCH  25  26
ATOM     26  C   UNK A   0      -3.639   2.091   4.474  0.00  0.00    +0.358 C 
BRANCH  26  27
ATOM     27  C   UNK A   0      -5.080   2.522   4.382  0.00  0.00    +0.254 C 
ATOM     28  O   UNK A   0      -5.594   2.694   3.296  0.00  0.00    -0.272 OA
ATOM     29  N   HIS A   1      -5.798   2.718   5.505  0.00  0.00    -0.299 N 
ATOM     30  H   HIS A   1      -5.388   2.582   6.373  0.00  0.00    +0.150 HD
BRANCH  29  31
ATOM     31  CA  HIS A   1      -7.199   3.138   5.416  0.00  0.00    +0.192 C 
BRANCH  31  32
ATOM     32  C   HIS A   1      -8.076   1.926   5.239  0.00  0.00    +0.376 C 
ATOM     33  O   HIS A   1      -7.607   0.809   5.374  0.00  0.00    -0.244 OA
ATOM     34  OXT HIS A   1      -9.256   2.062   4.962  0.00  0.00    -0.244 OA
ENDBRANCH  31  32
BRANCH  31  35
ATOM     35  CB  HIS A   1      -7.595   3.872   6.699  0.00  0.00    +0.088 C 
BRANCH  35  36
ATOM     36  CG  HIS A   1      -6.802   5.149   6.812  0.00  0.00    +0.035 A 
ATOM     37  CD2 HIS A   1      -5.564   5.282   7.325  0.00  0.00    +0.105 A 
ATOM     38  NE2 HIS A   1      -5.218   6.575   7.242  0.00  0.00    -0.352 N 
ATOM     39  HD1 HIS A   1      -8.048   6.622   5.996  0.00  0.00    +0.166 HD
ATOM     40  CE1 HIS A   1      -6.195   7.248   6.698  0.00  0.00    +0.171 A 
ATOM     41  ND1 HIS A   1      -7.201   6.394   6.409  0.00  0.00    -0.350 N 
ATOM     42  HE2 HIS A   1      -4.375   6.951   7.540  0.00  0.00    +0.166 HD
ENDBRANCH  35  36
ENDBRANCH  31  35
ENDBRANCH  29  31
ENDBRANCH  26  27
ENDBRANCH  25  26
ENDBRANCH   6  25
TORSDOF 9
