REMARK  Name = ZINC33321881
REMARK  3 active torsions:
REMARK  status: ('A' for Active; 'I' for Inactive)
REMARK    1  A    between atoms: C_1  and  C_2
REMARK    2  A    between atoms: C_6  and  C_7
REMARK    3  A    between atoms: N_11  and  C_15
REMARK                            x       y       z     vdW  Elec       q    Type
REMARK                         _______ _______ _______ _____ _____    ______ ____
ROOT
ATOM      1  C   UNL     1      -0.020  -0.304   2.514  0.00  0.00    +0.035 C 
ATOM      2  C   UNL     1      -0.077  -1.205   3.534  0.00  0.00    +0.079 C 
ATOM      3  C   UNL     1      -0.074  -2.675   3.481  0.00  0.00    +0.263 C 
ATOM      4  O   UNL     1      -0.015  -3.272   2.421  0.00  0.00    -0.269 OA
ATOM      5  N   UNL     1      -0.137  -3.320   4.633  0.00  0.00    -0.215 N 
ATOM      6  C   UNL     1      -0.203  -2.623   5.825  0.00  0.00    +0.165 C 
ATOM      7  N   UNL     1      -0.269  -3.095   7.040  0.00  0.00    -0.279 NA
ATOM      8  S   UNL     1      -0.167  -0.918   5.296  0.00  0.00    -0.049 S 
ATOM      9  H   UNL     1      -0.310  -2.488   7.795  0.00  0.00    +0.189 HD
ENDROOT
BRANCH   5  10
ATOM     10  C   UNL     1      -0.138  -4.723   4.646  0.00  0.00    +0.047 A 
ATOM     11  C   UNL     1       0.989  -5.422   4.237  0.00  0.00    +0.028 A 
ATOM     12  C   UNL     1       0.990  -6.803   4.250  0.00  0.00    +0.051 A 
ATOM     13  C   UNL     1      -0.135  -7.495   4.670  0.00  0.00    +0.166 A 
ATOM     14  C   UNL     1      -1.267  -6.797   5.082  0.00  0.00    +0.168 A 
ATOM     15  C   UNL     1      -1.265  -5.412   5.074  0.00  0.00    +0.073 A 
ATOM     16  O   UNL     1      -2.228  -7.697   5.444  0.00  0.00    -0.453 OA
ATOM     17  C   UNL     1      -1.818  -8.950   4.865  0.00  0.00    +0.466 C 
ATOM     18  O   UNL     1      -0.386  -8.834   4.775  0.00  0.00    -0.453 OA
ENDBRANCH   5  10
BRANCH   1  24
ATOM     19  C   UNL     1      -1.485   0.712  -0.011  0.00  0.00    +0.045 C 
ATOM     20  C   UNL     1      -0.407  -0.341   0.011  0.00  0.00    -0.036 A 
ATOM     21  C   UNL     1       0.037  -0.958  -1.135  0.00  0.00    +0.011 A 
ATOM     22  C   UNL     1       1.010  -1.897  -1.044  0.00  0.00    +0.046 A 
ATOM     23  S   UNL     1       1.357  -1.976   0.598  0.00  0.00    -0.097 S 
ATOM     24  C   UNL     1       0.208  -0.748   1.190  0.00  0.00    +0.016 A 
ENDBRANCH   1  24
TORSDOF 2
