REMARK  Name = ZINC13049237
REMARK  11 active torsions:
REMARK  status: ('A' for Active; 'I' for Inactive)
REMARK    1  A    between atoms: C_1  and  C_2
REMARK    2  A    between atoms: C_2  and  C_4
REMARK    3  A    between atoms: C_2  and  N_11
REMARK    4  A    between atoms: C_12  and  C_14
REMARK    5  A    between atoms: C_14  and  S_15
REMARK    6  A    between atoms: S_15  and  C_16
REMARK    7  A    between atoms: C_20  and  C_31
REMARK    8  A    between atoms: N_26  and  C_27
REMARK    9  A    between atoms: C_27  and  C_28
REMARK   10  A    between atoms: C_28  and  C_29
REMARK   11  A    between atoms: C_28  and  C_30
REMARK                            x       y       z     vdW  Elec       q    Type
REMARK                         _______ _______ _______ _____ _____    ______ ____
ROOT
ATOM      1  C   UNL     1       5.268  -1.731   3.564  0.00  0.00    +0.173 A 
ATOM      2  N   UNL     1       4.464  -2.022   4.557  0.00  0.00    -0.223 NA
ATOM      3  C   UNL     1       4.935  -2.486   5.738  0.00  0.00    +0.080 A 
ATOM      4  C   UNL     1       4.075  -2.796   6.796  0.00  0.00    +0.043 A 
ATOM      5  C   UNL     1       4.605  -3.269   7.990  0.00  0.00    +0.065 A 
ATOM      6  C   UNL     1       5.989  -3.435   8.138  0.00  0.00    +0.016 A 
ATOM      7  C   UNL     1       6.838  -3.134   7.111  0.00  0.00    +0.016 A 
ATOM      8  C   UNL     1       6.327  -2.659   5.904  0.00  0.00    +0.065 A 
ATOM      9  C   UNL     1       7.207  -2.324   4.772  0.00  0.00    +0.262 A 
ATOM     10  O   UNL     1       8.415  -2.452   4.852  0.00  0.00    -0.267 OA
ATOM     11  N   UNL     1       6.624  -1.874   3.637  0.00  0.00    -0.287 N 
ENDROOT
BRANCH   5  12
ATOM     12  C   UNL     1       3.703  -3.600   9.114  0.00  0.00    +0.387 C 
ATOM     13  O   UNL     1       2.495  -3.457   8.990  0.00  0.00    -0.241 OA
ATOM     14  O   UNL     1       4.164  -4.016  10.166  0.00  0.00    -0.241 OA
ENDBRANCH   5  12
BRANCH   1  15
ATOM     15  S   UNL     1       4.566  -1.134   2.062  0.00  0.00    -0.078 S 
BRANCH  15  16
ATOM     16  C   UNL     1       2.783  -1.099   2.395  0.00  0.00    +0.173 C 
BRANCH  16  18
ATOM     17  N   UNL     1       0.711  -0.489   1.189  0.00  0.00    -0.308 N 
ATOM     18  C   UNL     1       2.054  -0.600   1.174  0.00  0.00    +0.224 C 
ATOM     19  O   UNL     1       2.676  -0.297   0.177  0.00  0.00    -0.275 OA
ATOM     20  H   UNL     1       0.213  -0.731   1.986  0.00  0.00    +0.149 HD
BRANCH  17  22
ATOM     21  C   UNL     1      -0.019   1.526   0.010  0.00  0.00    +0.033 C 
ATOM     22  C   UNL     1       0.002  -0.004   0.002  0.00  0.00    +0.100 C 
BRANCH  22  23
ATOM     23  C   UNL     1      -1.412  -0.526   0.013  0.00  0.00    -0.027 A 
ATOM     24  C   UNL     1      -2.122  -0.571   1.198  0.00  0.00    +0.008 A 
ATOM     25  C   UNL     1      -3.419  -1.048   1.209  0.00  0.00    +0.038 A 
ATOM     26  C   UNL     1      -4.006  -1.482   0.032  0.00  0.00    +0.123 A 
ATOM     27  C   UNL     1      -3.294  -1.437  -1.154  0.00  0.00    +0.038 A 
ATOM     28  C   UNL     1      -1.999  -0.954  -1.163  0.00  0.00    +0.008 A 
ATOM     29  F   UNL     1      -5.274  -1.950   0.042  0.00  0.00    -0.205 F 
ENDBRANCH  22  23
ENDBRANCH  17  22
ENDBRANCH  16  18
ENDBRANCH  15  16
ENDBRANCH   1  15
BRANCH  11  30
ATOM     30  C   UNL     1       7.454  -1.533   2.479  0.00  0.00    +0.130 C 
BRANCH  30  31
ATOM     31  C   UNL     1       7.859  -0.060   2.559  0.00  0.00    +0.003 C 
ATOM     32  C   UNL     1       8.827   0.266   1.420  0.00  0.00    +0.009 C 
ATOM     33  C   UNL     1       6.614   0.820   2.438  0.00  0.00    +0.009 C 
ENDBRANCH  30  31
ENDBRANCH  11  30
TORSDOF 8
