REMARK  Name = ZINC29913305
REMARK  8 active torsions:
REMARK  status: ('A' for Active; 'I' for Inactive)
REMARK    1  A    between atoms: C_1  and  C_2
REMARK    2  A    between atoms: C_2  and  C_3
REMARK    3  A    between atoms: C_3  and  C_5
REMARK    4  A    between atoms: C_3  and  N_21
REMARK    5  A    between atoms: C_5  and  N_6
REMARK    6  A    between atoms: C_7  and  C_9
REMARK    7  A    between atoms: C_12  and  N_16
REMARK    8  A    between atoms: C_13  and  C_15
REMARK                            x       y       z     vdW  Elec       q    Type
REMARK                         _______ _______ _______ _____ _____    ______ ____
ROOT
ATOM      1  N   UNL     1       3.973   6.339   1.276  0.00  0.00    -0.313 N 
ATOM      2  C   UNL     1       4.292   5.031   1.207  0.00  0.00    +0.244 C 
ATOM      3  O   UNL     1       3.645   4.285   0.498  0.00  0.00    -0.270 OA
ATOM      4  H   UNL     1       4.559   7.014   1.917  0.00  0.00    +0.149 HD
ENDROOT
BRANCH   2   5
ATOM      5  C   UNL     1       5.427   4.505   1.991  0.00  0.00    +0.037 A 
ATOM      6  C   UNL     1       6.172   5.362   2.806  0.00  0.00    +0.015 A 
ATOM      7  C   UNL     1       7.230   4.867   3.536  0.00  0.00    +0.029 A 
ATOM      8  C   UNL     1       7.554   3.517   3.467  0.00  0.00    +0.072 A 
ATOM      9  C   UNL     1       6.819   2.663   2.653  0.00  0.00    -0.024 A 
ATOM     10  C   UNL     1       5.759   3.150   1.920  0.00  0.00    +0.018 A 
ATOM     11  C   UNL     1       7.177   1.201   2.577  0.00  0.00    +0.046 C 
BRANCH   8  12
ATOM     12  N   UNL     1       8.626   3.017   4.215  0.00  0.00    -0.200 N 
ATOM     13  C   UNL     1       9.392   3.689   5.103  0.00  0.00    +0.250 A 
ATOM     14  N   UNL     1      10.272   2.846   5.573  0.00  0.00    -0.116 NA
ATOM     15  N   UNL     1      10.123   1.689   5.037  0.00  0.00    -0.023 NA
ATOM     16  N   UNL     1       9.142   1.709   4.199  0.00  0.00    -0.039 NA
ENDBRANCH   8  12
ENDBRANCH   2   5
BRANCH   1  17
ATOM     17  C   UNL     1       2.846   6.861   0.498  0.00  0.00    +0.089 C 
BRANCH  17  18
ATOM     18  C   UNL     1       2.779   8.381   0.656  0.00  0.00    -0.051 C 
BRANCH  18  19
ATOM     19  N   UNL     1       1.626   8.900  -0.093  0.00  0.00    +0.385 N 
ATOM     20  C   UNL     1       0.369   8.326   0.411  0.00  0.00    -0.073 C 
ATOM     21  C   UNL     1      -0.795   9.155  -0.133  0.00  0.00    +0.017 C 
ATOM     22  C   UNL     1      -0.657   9.319  -1.625  0.00  0.00    -0.048 A 
ATOM     23  C   UNL     1      -1.767   9.722  -2.352  0.00  0.00    +0.004 A 
ATOM     24  C   UNL     1      -1.682   9.887  -3.720  0.00  0.00    +0.000 A 
ATOM     25  C   UNL     1      -0.484   9.652  -4.368  0.00  0.00    +0.000 A 
ATOM     26  C   UNL     1       0.621   9.250  -3.646  0.00  0.00    +0.002 A 
ATOM     27  C   UNL     1       0.537   9.081  -2.271  0.00  0.00    -0.061 A 
ATOM     28  C   UNL     1       1.768   8.633  -1.527  0.00  0.00    -0.042 C 
ATOM     29  H   UNL     1       1.597   9.990   0.053  0.00  0.00    -0.081 HD
ENDBRANCH  18  19
BRANCH  18  31
ATOM     30  C   UNL     1       4.051  10.514   0.382  0.00  0.00    +0.002 C 
ATOM     31  C   UNL     1       4.064   9.008   0.112  0.00  0.00    -0.017 C 
ENDBRANCH  18  31
ENDBRANCH  17  18
ENDBRANCH   1  17
TORSDOF 6
