REMARK  Name = ZINC40011335
REMARK  7 active torsions:
REMARK  status: ('A' for Active; 'I' for Inactive)
REMARK    1  A    between atoms: C_1  and  C_2
REMARK    2  A    between atoms: C_2  and  C_3
REMARK    3  A    between atoms: C_2  and  C_4
REMARK    4  A    between atoms: C_16  and  S_18
REMARK    5  A    between atoms: S_18  and  C_19
REMARK    6  A    between atoms: C_19  and  C_20
REMARK    7  A    between atoms: N_22  and  C_23
REMARK                            x       y       z     vdW  Elec       q    Type
REMARK                         _______ _______ _______ _____ _____    ______ ____
ROOT
ATOM      1  C   UNL     1      -1.412  -0.526   0.013  0.00  0.00    -0.044 A 
ATOM      2  C   UNL     1      -2.249  -0.184   1.084  0.00  0.00    +0.006 A 
ATOM      3  C   UNL     1      -3.526  -0.623   1.158  0.00  0.00    +0.026 A 
ATOM      4  C   UNL     1      -4.053  -1.481   0.089  0.00  0.00    +0.046 A 
ATOM      5  N   UNL     1      -5.238  -2.010  -0.103  0.00  0.00    -0.358 N 
ATOM      6  C   UNL     1      -5.180  -2.880  -1.266  0.00  0.00    +0.252 C 
ATOM      7  C   UNL     1      -3.840  -2.602  -1.924  0.00  0.00    +0.117 C 
ATOM      8  C   UNL     1      -3.145  -1.815  -1.038  0.00  0.00    +0.025 A 
ATOM      9  C   UNL     1      -1.827  -1.302  -1.014  0.00  0.00    +0.015 A 
ATOM     10  N   UNL     1      -3.579  -2.984  -3.177  0.00  0.00    -0.147 NA
ATOM     11  N   UNL     1      -4.614  -3.092  -3.954  0.00  0.00    -0.122 NA
ATOM     12  C   UNL     1      -5.864  -2.773  -3.539  0.00  0.00    +0.208 C 
ATOM     13  N   UNL     1      -6.202  -2.622  -2.279  0.00  0.00    -0.227 NA
ATOM     14  H   UNL     1      -6.024  -1.847   0.441  0.00  0.00    +0.162 HD
ENDROOT
BRANCH   1  16
ATOM     15  C   UNL     1      -0.019   1.526   0.010  0.00  0.00    +0.012 C 
ATOM     16  C   UNL     1       0.002  -0.004   0.002  0.00  0.00    +0.013 C 
ATOM     17  C   UNL     1       0.742  -0.511   1.242  0.00  0.00    +0.012 C 
ENDBRANCH   1  16
BRANCH  12  18
ATOM     18  S   UNL     1      -7.113  -2.552  -4.762  0.00  0.00    -0.075 S 
BRANCH  18  19
ATOM     19  C   UNL     1      -8.599  -2.145  -3.804  0.00  0.00    +0.173 C 
BRANCH  19  20
ATOM     20  C   UNL     1      -9.758  -1.928  -4.742  0.00  0.00    +0.224 C 
ATOM     21  O   UNL     1      -9.598  -2.038  -5.939  0.00  0.00    -0.275 OA
ATOM     22  N   UNL     1     -10.973  -1.613  -4.250  0.00  0.00    -0.312 N 
ATOM     23  H   UNL     1     -11.101  -1.525  -3.293  0.00  0.00    +0.149 HD
BRANCH  22  24
ATOM     24  C   UNL     1     -12.099  -1.402  -5.163  0.00  0.00    +0.073 C 
ATOM     25  C   UNL     1     -12.088   0.044  -5.662  0.00  0.00    +0.022 C 
ATOM     26  C   UNL     1     -13.265   0.264  -6.614  0.00  0.00    +0.002 C 
ATOM     27  C   UNL     1     -14.576  -0.010  -5.876  0.00  0.00    +0.000 C 
ATOM     28  C   UNL     1     -14.588  -1.456  -5.377  0.00  0.00    +0.002 C 
ATOM     29  C   UNL     1     -13.411  -1.676  -4.424  0.00  0.00    +0.022 C 
ENDBRANCH  22  24
ENDBRANCH  19  20
ENDBRANCH  18  19
ENDBRANCH  12  18
TORSDOF 5
