REMARK  Name = ZINC34779410
REMARK  6 active torsions:
REMARK  status: ('A' for Active; 'I' for Inactive)
REMARK    1  A    between atoms: C_1  and  C_2
REMARK    2  A    between atoms: N_6  and  C_17
REMARK    3  A    between atoms: N_9  and  C_16
REMARK    4  A    between atoms: C_12  and  C_13
REMARK    5  A    between atoms: C_17  and  C_18
REMARK    6  A    between atoms: N_20  and  C_21
REMARK                            x       y       z     vdW  Elec       q    Type
REMARK                         _______ _______ _______ _____ _____    ______ ____
ROOT
ATOM      1  C   UNL     1      -0.045   1.509   0.003  0.00  0.00    +0.046 C 
ATOM      2  C   UNL     1      -0.015   0.002  -0.002  0.00  0.00    -0.015 A 
ATOM      3  C   UNL     1      -0.003  -0.726  -1.196  0.00  0.00    +0.074 A 
ATOM      4  C   UNL     1      -0.017  -0.217  -2.590  0.00  0.00    +0.266 A 
ATOM      5  O   UNL     1      -0.042   0.980  -2.808  0.00  0.00    -0.267 OA
ATOM      6  N   UNL     1      -0.003  -1.094  -3.608  0.00  0.00    -0.251 N 
ATOM      7  C   UNL     1       0.025  -2.420  -3.399  0.00  0.00    +0.333 A 
ATOM      8  O   UNL     1       0.038  -3.172  -4.355  0.00  0.00    -0.246 OA
ATOM      9  N   UNL     1       0.039  -2.937  -2.157  0.00  0.00    -0.290 N 
ATOM     10  C   UNL     1       0.026  -2.123  -1.060  0.00  0.00    +0.097 A 
ATOM     11  S   UNL     1       0.037  -2.405   0.587  0.00  0.00    -0.063 S 
ATOM     12  C   UNL     1       0.009  -0.722   1.170  0.00  0.00    +0.106 A 
ATOM     13  C   UNL     1       0.070  -4.391  -1.978  0.00  0.00    +0.154 C 
ENDROOT
BRANCH  12  14
ATOM     14  C   UNL     1       0.009  -0.247   2.504  0.00  0.00    +0.393 C 
ATOM     15  O   UNL     1      -0.013   0.957   2.726  0.00  0.00    -0.240 OA
ATOM     16  O   UNL     1       0.032  -1.042   3.437  0.00  0.00    -0.240 OA
ENDBRANCH  12  14
BRANCH   6  17
ATOM     17  C   UNL     1      -0.017  -0.590  -4.983  0.00  0.00    +0.226 C 
BRANCH  17  18
ATOM     18  C   UNL     1       1.398  -0.388  -5.460  0.00  0.00    +0.237 C 
ATOM     19  O   UNL     1       2.328  -0.640  -4.723  0.00  0.00    -0.274 OA
ATOM     20  N   UNL     1       1.631   0.074  -6.704  0.00  0.00    -0.284 N 
ATOM     21  H   UNL     1       0.891   0.212  -7.317  0.00  0.00    +0.155 HD
BRANCH  20  22
ATOM     22  C   UNL     1       2.940   0.353  -7.114  0.00  0.00    +0.034 A 
ATOM     23  C   UNL     1       3.189   1.420  -7.968  0.00  0.00    +0.024 A 
ATOM     24  C   UNL     1       4.481   1.694  -8.369  0.00  0.00    +0.017 A 
ATOM     25  C   UNL     1       5.528   0.907  -7.922  0.00  0.00    +0.018 A 
ATOM     26  C   UNL     1       5.282  -0.156  -7.071  0.00  0.00    +0.017 A 
ATOM     27  C   UNL     1       3.993  -0.431  -6.662  0.00  0.00    +0.024 A 
ATOM     28 BR   UNL     1       7.296   1.285  -8.475  0.00  0.00    -0.050 Br
ENDBRANCH  20  22
ENDBRANCH  17  18
ENDBRANCH   6  17
TORSDOF 4
