REMARK  Name = ZINC02438087
REMARK  14 active torsions:
REMARK  status: ('A' for Active; 'I' for Inactive)
REMARK    1  A    between atoms: C_1  and  C_2
REMARK    2  A    between atoms: N_8  and  C_9
REMARK    3  A    between atoms: C_9  and  C_10
REMARK    4  A    between atoms: C_10  and  C_11
REMARK    5  A    between atoms: C_10  and  C_12
REMARK    6  A    between atoms: C_13  and  C_21
REMARK    7  A    between atoms: C_15  and  C_19
REMARK    8  A    between atoms: C_16  and  N_18
REMARK    9  A    between atoms: C_23  and  O_31
REMARK   10  A    between atoms: C_24  and  O_29
REMARK   11  A    between atoms: C_26  and  O_27
REMARK   12  A    between atoms: O_27  and  C_28
REMARK   13  A    between atoms: O_29  and  C_30
REMARK   14  A    between atoms: O_31  and  C_32
REMARK                            x       y       z     vdW  Elec       q    Type
REMARK                         _______ _______ _______ _____ _____    ______ ____
ROOT
ATOM      1  C   UNL     1      -2.442  -2.705   9.276  0.00  0.00    +0.064 C 
ATOM      2  C   UNL     1      -1.382  -2.069   8.415  0.00  0.00    +0.022 A 
ATOM      3  C   UNL     1      -1.196  -0.733   8.464  0.00  0.00    +0.068 A 
ATOM      4  C   UNL     1      -0.205  -0.133   7.660  0.00  0.00    +0.141 A 
ATOM      5  C   UNL     1       0.558  -0.931   6.835  0.00  0.00    +0.072 A 
ATOM      6  C   UNL     1       0.330  -2.313   6.816  0.00  0.00    +0.259 A 
ATOM      7  O   UNL     1       0.999  -3.032   6.090  0.00  0.00    -0.267 OA
ATOM      8  N   UNL     1      -0.625  -2.849   7.599  0.00  0.00    -0.312 N 
ATOM      9  C   UNL     1       1.626  -0.333   5.960  0.00  0.00    +0.107 C 
ATOM     10  C   UNL     1       1.959   1.057   6.427  0.00  0.00    +0.098 C 
ATOM     11  C   UNL     1       1.134   1.735   7.260  0.00  0.00    +0.199 C 
ATOM     12  O   UNL     1      -0.017   1.203   7.708  0.00  0.00    -0.441 OA
ENDROOT
BRANCH   9  13
ATOM     13  C   UNL     1       1.133  -0.277   4.537  0.00  0.00    +0.011 A 
ATOM     14  C   UNL     1      -0.002   0.450   4.228  0.00  0.00    +0.057 A 
ATOM     15  C   UNL     1      -0.456   0.503   2.921  0.00  0.00    +0.162 A 
ATOM     16  C   UNL     1       0.230  -0.176   1.918  0.00  0.00    +0.165 A 
ATOM     17  C   UNL     1       1.363  -0.909   2.231  0.00  0.00    +0.095 A 
ATOM     18  C   UNL     1       1.818  -0.954   3.540  0.00  0.00    +0.128 A 
BRANCH  18  19
ATOM     19  O   UNL     1       2.933  -1.669   3.847  0.00  0.00    -0.495 OA
ATOM     20  C   UNL     1       3.589  -2.342   2.771  0.00  0.00    +0.277 C 
ENDBRANCH  18  19
BRANCH  16  21
ATOM     21  O   UNL     1      -0.215  -0.125   0.634  0.00  0.00    -0.491 OA
ATOM     22  C   UNL     1       0.538  -0.846  -0.343  0.00  0.00    +0.277 C 
ENDBRANCH  16  21
BRANCH  15  23
ATOM     23  O   UNL     1      -1.573   1.219   2.617  0.00  0.00    -0.491 OA
ATOM     24  C   UNL     1      -2.226   1.891   3.695  0.00  0.00    +0.277 C 
ENDBRANCH  15  23
ENDBRANCH   9  13
BRANCH  11  25
ATOM     25  N   UNL     1       1.482   3.001   7.658  0.00  0.00    -0.328 N 
ATOM     26  H   UNL     1       0.901   3.499   8.254  0.00  0.00    +0.145 HD
ATOM     27  H   UNL     1       2.309   3.398   7.343  0.00  0.00    +0.145 HD
ENDBRANCH  11  25
BRANCH  10  28
ATOM     28  C   UNL     1       3.172   1.676   5.984  0.00  0.00    +0.101 C 
ATOM     29  N   UNL     1       4.134   2.167   5.632  0.00  0.00    -0.191 NA
ENDBRANCH  10  28
BRANCH   8  30
ATOM     30  C   UNL     1      -0.852  -4.296   7.570  0.00  0.00    +0.128 C 
BRANCH  30  31
ATOM     31  C   UNL     1       0.148  -4.988   8.499  0.00  0.00    +0.003 C 
ATOM     32  C   UNL     1      -0.121  -4.565   9.944  0.00  0.00    +0.009 C 
ATOM     33  C   UNL     1      -0.006  -6.505   8.374  0.00  0.00    +0.009 C 
ENDBRANCH  30  31
ENDBRANCH   8  30
TORSDOF 8
