REMARK  Name = ZINC66978613
REMARK  8 active torsions:
REMARK  status: ('A' for Active; 'I' for Inactive)
REMARK    1  A    between atoms: C_1  and  C_2
REMARK    2  A    between atoms: C_2  and  C_4
REMARK    3  A    between atoms: C_2  and  N_13
REMARK    4  A    between atoms: C_4  and  C_6
REMARK    5  A    between atoms: C_4  and  N_7
REMARK    6  A    between atoms: N_16  and  C_17
REMARK    7  A    between atoms: C_17  and  C_18
REMARK    8  A    between atoms: C_18  and  O_28
REMARK                            x       y       z     vdW  Elec       q    Type
REMARK                         _______ _______ _______ _____ _____    ______ ____
ROOT
ATOM      1  N   UNL     1       0.822  -0.127   1.311  0.00  0.00    -0.295 N 
ATOM      2  C   UNL     1       0.118  -0.432   2.419  0.00  0.00    +0.300 C 
ATOM      3  O   UNL     1      -1.088  -0.281   2.434  0.00  0.00    -0.253 OA
ATOM      4  N   UNL     1       0.751  -0.905   3.511  0.00  0.00    -0.296 N 
ATOM      5  H   UNL     1       1.785  -0.247   1.300  0.00  0.00    +0.151 HD
ATOM      6  H   UNL     1       1.714  -1.025   3.499  0.00  0.00    +0.150 HD
ENDROOT
BRANCH   1   8
ATOM      7  C   UNL     1      -0.042   1.902   0.253  0.00  0.00    +0.029 C 
ATOM      8  C   UNL     1       0.134   0.387   0.124  0.00  0.00    +0.088 C 
BRANCH   8   9
ATOM      9  C   UNL     1       0.964   0.074  -1.122  0.00  0.00    +0.074 C 
ATOM     10  C   UNL     1       1.139  -1.441  -1.250  0.00  0.00    +0.026 C 
BRANCH   9  11
ATOM     11  N   UNL     1       0.274   0.589  -2.312  0.00  0.00    -0.294 NA
ATOM     12  C   UNL     1      -1.039  -0.052  -2.479  0.00  0.00    +0.113 C 
ATOM     13  C   UNL     1      -1.747   0.555  -3.693  0.00  0.00    +0.175 C 
ATOM     14  O   UNL     1      -0.918   0.401  -4.848  0.00  0.00    -0.377 OA
ATOM     15  C   UNL     1       0.368   1.014  -4.721  0.00  0.00    +0.175 C 
ATOM     16  C   UNL     1       1.097   0.411  -3.517  0.00  0.00    +0.113 C 
ENDBRANCH   9  11
ENDBRANCH   8   9
ENDBRANCH   1   8
BRANCH   4  17
ATOM     17  C   UNL     1      -0.014  -1.237   4.715  0.00  0.00    +0.145 C 
BRANCH  17  18
ATOM     18  C   UNL     1       0.916  -1.870   5.752  0.00  0.00    +0.107 C 
ATOM     19  C   UNL     1       1.588  -3.099   5.141  0.00  0.00    +0.041 C 
ATOM     20  C   UNL     1       2.341  -3.841   6.252  0.00  0.00    +0.008 C 
ATOM     21  C   UNL     1       1.314  -4.471   7.191  0.00  0.00    +0.035 C 
ATOM     22  C   UNL     1       0.301  -3.447   7.632  0.00  0.00    -0.041 A 
ATOM     23  C   UNL     1       0.115  -2.254   6.969  0.00  0.00    -0.011 A 
ATOM     24  C   UNL     1      -0.841  -1.356   7.423  0.00  0.00    +0.007 A 
ATOM     25  C   UNL     1      -1.604  -1.647   8.536  0.00  0.00    +0.000 A 
ATOM     26  C   UNL     1      -1.415  -2.842   9.204  0.00  0.00    +0.000 A 
ATOM     27  C   UNL     1      -0.467  -3.737   8.752  0.00  0.00    +0.004 A 
BRANCH  18  28
ATOM     28  O   UNL     1       1.918  -0.923   6.127  0.00  0.00    -0.382 OA
ATOM     29  H   UNL     1       1.566  -0.111   6.516  0.00  0.00    +0.211 HD
ENDBRANCH  18  28
ENDBRANCH  17  18
ENDBRANCH   4  17
TORSDOF 6
