REMARK  Name = ZINC11305308
REMARK  9 active torsions:
REMARK  status: ('A' for Active; 'I' for Inactive)
REMARK    1  A    between atoms: C_1  and  C_2
REMARK    2  A    between atoms: C_2  and  N_3
REMARK    3  A    between atoms: C_8  and  C_17
REMARK    4  A    between atoms: C_10  and  C_12
REMARK    5  A    between atoms: C_17  and  O_19
REMARK    6  A    between atoms: O_19  and  C_20
REMARK    7  A    between atoms: C_20  and  C_22
REMARK    8  A    between atoms: C_20  and  C_23
REMARK    9  A    between atoms: N_28  and  C_29
REMARK                            x       y       z     vdW  Elec       q    Type
REMARK                         _______ _______ _______ _____ _____    ______ ____
ROOT
ATOM      1  N   UNL     1       6.350  -9.297   3.275  0.00  0.00    -0.247 N 
ATOM      2  C   UNL     1       6.534  -8.091   2.650  0.00  0.00    +0.160 A 
ATOM      3  C   UNL     1       5.249  -7.614   2.322  0.00  0.00    +0.053 A 
ATOM      4  C   UNL     1       4.321  -8.575   2.775  0.00  0.00    +0.145 A 
ATOM      5  N   UNL     1       4.975  -9.555   3.331  0.00  0.00    -0.177 NA
ATOM      6  C   UNL     1       5.123  -6.370   1.659  0.00  0.00    +0.073 A 
ATOM      7  C   UNL     1       6.287  -5.674   1.354  0.00  0.00    +0.044 A 
ATOM      8  C   UNL     1       7.525  -6.217   1.719  0.00  0.00    +0.081 A 
ATOM      9  N   UNL     1       7.610  -7.384   2.340  0.00  0.00    -0.227 NA
ENDROOT
BRANCH   8  10
ATOM     10  C   UNL     1       8.762  -5.476   1.400  0.00  0.00    +0.038 A 
ATOM     11  C   UNL     1      10.064  -5.816   1.661  0.00  0.00    +0.017 A 
ATOM     12  C   UNL     1      11.064  -4.959   1.262  0.00  0.00    +0.008 A 
ATOM     13  C   UNL     1      10.732  -3.802   0.632  0.00  0.00    +0.046 A 
ATOM     14  S   UNL     1       8.950  -3.901   0.581  0.00  0.00    -0.095 S 
ENDBRANCH   8  10
BRANCH   1  16
ATOM     15  C   UNL     1       7.851 -11.142   2.704  0.00  0.00    +0.029 C 
ATOM     16  C   UNL     1       7.408 -10.166   3.796  0.00  0.00    +0.142 C 
ENDBRANCH   1  16
BRANCH   6  17
ATOM     17  C   UNL     1       3.796  -5.831   1.296  0.00  0.00    +0.341 C 
ATOM     18  O   UNL     1       2.792  -6.457   1.567  0.00  0.00    -0.245 OA
BRANCH  17  19
ATOM     19  O   UNL     1       3.701  -4.645   0.665  0.00  0.00    -0.449 OA
BRANCH  19  20
ATOM     20  C   UNL     1       2.365  -4.177   0.339  0.00  0.00    +0.259 C 
ATOM     21  C   UNL     1       1.972  -4.685  -1.050  0.00  0.00    +0.062 C 
BRANCH  20  22
ATOM     22  C   UNL     1       2.345  -2.670   0.347  0.00  0.00    +0.261 C 
ATOM     23  O   UNL     1       3.374  -2.051   0.513  0.00  0.00    -0.271 OA
ATOM     24  N   UNL     1       1.183  -2.011   0.171  0.00  0.00    -0.237 N 
ATOM     25  C   UNL     1       1.164  -0.663   0.178  0.00  0.00    +0.306 C 
ATOM     26  O   UNL     1       2.196  -0.042   0.344  0.00  0.00    -0.252 OA
ATOM     27  N   UNL     1       0.002  -0.004   0.002  0.00  0.00    -0.296 N 
ATOM     28  H   UNL     1       0.359  -2.506   0.039  0.00  0.00    +0.159 HD
ATOM     29  H   UNL     1      -0.821  -0.500  -0.130  0.00  0.00    +0.151 HD
BRANCH  27  30
ATOM     30  C   UNL     1      -0.018   1.461   0.010  0.00  0.00    +0.075 C 
ATOM     31  C   UNL     1      -1.141   2.148   0.790  0.00  0.00    +0.024 C 
ATOM     32  C   UNL     1      -1.155   2.156  -0.741  0.00  0.00    +0.024 C 
ENDBRANCH  27  30
ENDBRANCH  20  22
ENDBRANCH  19  20
ENDBRANCH  17  19
ENDBRANCH   6  17
TORSDOF 7
