REMARK  Name = ZINC12883880
REMARK  5 active torsions:
REMARK  status: ('A' for Active; 'I' for Inactive)
REMARK    1  A    between atoms: C_12  and  C_14
REMARK    2  A    between atoms: C_14  and  C_15
REMARK    3  A    between atoms: C_18  and  O_22
REMARK    4  A    between atoms: C_19  and  O_21
REMARK    5  A    between atoms: N_25  and  C_28
REMARK                            x       y       z     vdW  Elec       q    Type
REMARK                         _______ _______ _______ _____ _____    ______ ____
ROOT
ATOM      1  C   UNL     1       1.232   3.450   1.846  0.00  0.00    +0.000 A 
ATOM      2  C   UNL     1       1.258   2.132   2.263  0.00  0.00    +0.002 A 
ATOM      3  C   UNL     1       0.111   1.367   2.224  0.00  0.00    +0.023 A 
ATOM      4  C   UNL     1      -1.082   1.916   1.759  0.00  0.00    +0.036 A 
ATOM      5  C   UNL     1      -1.097   3.245   1.346  0.00  0.00    -0.028 A 
ATOM      6  C   UNL     1       0.051   4.005   1.387  0.00  0.00    +0.004 A 
ATOM      7  C   UNL     1      -2.508   3.525   0.914  0.00  0.00    +0.050 C 
ATOM      8  C   UNL     1      -2.573   3.956  -0.556  0.00  0.00    +0.088 C 
ATOM      9  C   UNL     1      -3.717   5.007  -0.605  0.00  0.00    +0.073 C 
ATOM     10  C   UNL     1      -4.237   5.095   0.845  0.00  0.00    -0.053 C 
ATOM     11  C   UNL     1      -2.973   6.294  -0.957  0.00  0.00    +0.224 C 
ATOM     12  O   UNL     1      -3.487   7.384  -1.087  0.00  0.00    -0.275 OA
ATOM     13  N   UNL     1      -1.670   6.031  -1.106  0.00  0.00    -0.239 N 
ATOM     14  C   UNL     1      -1.335   4.751  -0.906  0.00  0.00    +0.225 C 
ATOM     15  O   UNL     1      -0.213   4.299  -0.993  0.00  0.00    -0.275 OA
ATOM     16  C   UNL     1      -3.247   2.231   1.127  0.00  0.00    +0.211 C 
ATOM     17  O   UNL     1      -4.420   2.022   0.904  0.00  0.00    -0.277 OA
ATOM     18  N   UNL     1      -2.353   1.353   1.622  0.00  0.00    -0.286 N 
ATOM     19  H   UNL     1      -2.568   0.437   1.857  0.00  0.00    +0.155 HD
ATOM     20  N   UNL     1      -3.113   4.618   1.654  0.00  0.00    +0.394 N 
ATOM     21  H   UNL     1      -2.431   5.373   1.793  0.00  0.00    -0.083 HD
ATOM     22  H   UNL     1      -3.448   4.287   2.567  0.00  0.00    -0.083 HD
ENDROOT
BRANCH  13  23
ATOM     23  C   UNL     1      -0.689   7.061  -1.456  0.00  0.00    +0.084 C 
ATOM     24  C   UNL     1      -0.714   8.193  -0.409  0.00  0.00    +0.023 C 
ATOM     25  C   UNL     1      -0.490   9.482  -1.239  0.00  0.00    +0.002 C 
ATOM     26  C   UNL     1      -1.294   9.201  -2.533  0.00  0.00    +0.002 C 
ATOM     27  C   UNL     1      -1.057   7.702  -2.806  0.00  0.00    +0.023 C 
ENDBRANCH  13  23
BRANCH  10  28
ATOM     28  C   UNL     1      -5.448   4.178   1.033  0.00  0.00    +0.020 C 
BRANCH  28  29
ATOM     29  C   UNL     1      -6.712   4.957   0.774  0.00  0.00    -0.045 A 
ATOM     30  C   UNL     1      -7.240   5.010  -0.502  0.00  0.00    +0.007 A 
ATOM     31  C   UNL     1      -8.400   5.721  -0.745  0.00  0.00    +0.049 A 
ATOM     32  C   UNL     1      -9.036   6.385   0.293  0.00  0.00    +0.158 A 
ATOM     33  C   UNL     1      -8.504   6.332   1.578  0.00  0.00    +0.158 A 
ATOM     34  C   UNL     1      -7.344   5.612   1.815  0.00  0.00    +0.052 A 
BRANCH  33  35
ATOM     35  O   UNL     1      -9.124   6.981   2.599  0.00  0.00    -0.503 OA
ATOM     36  H   UNL     1      -9.782   6.446   3.063  0.00  0.00    +0.292 HD
ENDBRANCH  33  35
BRANCH  32  37
ATOM     37  O   UNL     1     -10.177   7.086   0.056  0.00  0.00    -0.503 OA
ATOM     38  H   UNL     1     -10.986   6.566   0.156  0.00  0.00    +0.292 HD
ENDBRANCH  32  37
ENDBRANCH  28  29
ENDBRANCH  10  28
TORSDOF 5
