REMARK  Name = ZINC39683855
REMARK  7 active torsions:
REMARK  status: ('A' for Active; 'I' for Inactive)
REMARK    1  A    between atoms: C_1  and  C_2
REMARK    2  A    between atoms: C_2  and  C_4
REMARK    3  A    between atoms: C_2  and  N_8
REMARK    4  A    between atoms: N_6  and  C_7
REMARK    5  A    between atoms: C_9  and  C_11
REMARK    6  A    between atoms: C_22  and  C_24
REMARK    7  A    between atoms: C_28  and  C_30
REMARK                            x       y       z     vdW  Elec       q    Type
REMARK                         _______ _______ _______ _____ _____    ______ ____
ROOT
ATOM      1  C   UNL     1       2.675  -1.466  -1.944  0.00  0.00    +0.100 C 
ATOM      2  C   UNL     1       2.333  -2.852  -2.535  0.00  0.00    +0.121 C 
ATOM      3  N   UNL     1       3.620  -3.362  -3.064  0.00  0.00    -0.296 N 
ATOM      4  C   UNL     1       4.623  -2.944  -2.056  0.00  0.00    +0.115 C 
ATOM      5  C   UNL     1       4.179  -1.531  -1.630  0.00  0.00    -0.004 C 
ATOM      6  C   UNL     1       4.416  -1.331  -0.136  0.00  0.00    -0.010 C 
ATOM      7  C   UNL     1       5.921  -1.341   0.143  0.00  0.00    -0.082 C 
ATOM      8  N   UNL     1       6.570  -0.271  -0.623  0.00  0.00    +0.379 N 
ATOM      9  C   UNL     1       6.417  -0.520  -2.062  0.00  0.00    -0.082 C 
ATOM     10  C   UNL     1       4.932  -0.476  -2.434  0.00  0.00    -0.010 C 
ATOM     11  C   UNL     1       3.830  -4.049  -4.204  0.00  0.00    +0.247 C 
ATOM     12  O   UNL     1       2.917  -4.222  -4.987  0.00  0.00    -0.270 OA
ATOM     13  H   UNL     1       6.144   0.614  -0.390  0.00  0.00    -0.086 HD
ATOM     14  H   UNL     1       7.552  -0.240  -0.391  0.00  0.00    -0.086 HD
ENDROOT
BRANCH  11  15
ATOM     15  C   UNL     1       5.171  -4.593  -4.502  0.00  0.00    +0.038 A 
ATOM     16  C   UNL     1       6.086  -4.806  -3.468  0.00  0.00    +0.016 A 
ATOM     17  C   UNL     1       7.336  -5.314  -3.752  0.00  0.00    +0.039 A 
ATOM     18  C   UNL     1       7.686  -5.612  -5.060  0.00  0.00    +0.135 A 
ATOM     19  C   UNL     1       6.781  -5.402  -6.089  0.00  0.00    +0.091 A 
ATOM     20  C   UNL     1       5.526  -4.900  -5.816  0.00  0.00    +0.028 A 
ATOM     21  F   UNL     1       8.912  -6.109  -5.332  0.00  0.00    -0.205 F 
BRANCH  19  22
ATOM     22  C   UNL     1       7.168  -5.728  -7.509  0.00  0.00    +0.420 C 
ATOM     23  F   UNL     1       6.100  -5.434  -8.363  0.00  0.00    -0.166 F 
ATOM     24  F   UNL     1       8.282  -4.965  -7.875  0.00  0.00    -0.166 F 
ATOM     25  F   UNL     1       7.482  -7.088  -7.606  0.00  0.00    -0.166 F 
ENDBRANCH  19  22
ENDBRANCH  11  15
BRANCH   1  27
ATOM     26  N   UNL     1       1.563   0.033  -0.321  0.00  0.00    -0.304 N 
ATOM     27  C   UNL     1       1.885  -1.224  -0.683  0.00  0.00    +0.219 C 
ATOM     28  O   UNL     1       1.540  -2.161   0.005  0.00  0.00    -0.275 OA
ATOM     29  H   UNL     1       1.839   0.783  -0.872  0.00  0.00    +0.149 HD
BRANCH  26  31
ATOM     30  C   UNL     1       1.749   0.326   2.100  0.00  0.00    +0.038 C 
ATOM     31  C   UNL     1       0.796   0.269   0.904  0.00  0.00    +0.156 C 
BRANCH  31  32
ATOM     32  C   UNL     1       0.055   1.576   0.790  0.00  0.00    +0.233 C 
ATOM     33  O   UNL     1       0.158   2.245  -0.216  0.00  0.00    -0.274 OA
ATOM     34  N   UNL     1      -0.722   2.002   1.806  0.00  0.00    -0.317 N 
ATOM     35  C   UNL     1      -1.442   3.273   1.695  0.00  0.00    +0.128 C 
ATOM     36  H   UNL     1      -0.804   1.466   2.611  0.00  0.00    +0.148 HD
ENDBRANCH  31  32
ENDBRANCH  26  31
ENDBRANCH   1  27
TORSDOF 5
