REMARK  Name = ZINC39689218
REMARK  5 active torsions:
REMARK  status: ('A' for Active; 'I' for Inactive)
REMARK    1  A    between atoms: C_9  and  C_12
REMARK    2  A    between atoms: C_16  and  C_25
REMARK    3  A    between atoms: N_27  and  C_28
REMARK    4  A    between atoms: C_28  and  C_29
REMARK    5  A    between atoms: N_32  and  C_35
REMARK                            x       y       z     vdW  Elec       q    Type
REMARK                         _______ _______ _______ _____ _____    ______ ____
ROOT
ATOM      1  C   UNL     1       4.582  -2.671  -0.073  0.00  0.00    +0.260 C 
ATOM      2  O   UNL     1       5.346  -1.971   0.558  0.00  0.00    -0.271 OA
ATOM      3  N   UNL     1       4.936  -3.930  -0.401  0.00  0.00    -0.297 N 
ATOM      4  C   UNL     1       4.147  -4.924  -1.166  0.00  0.00    +0.121 C 
ATOM      5  C   UNL     1       5.183  -5.634  -2.066  0.00  0.00    +0.100 C 
ATOM      6  C   UNL     1       6.528  -5.441  -1.345  0.00  0.00    -0.004 C 
ATOM      7  C   UNL     1       6.203  -4.630  -0.082  0.00  0.00    +0.115 C 
ATOM      8  C   UNL     1       7.495  -4.661  -2.231  0.00  0.00    -0.010 C 
ATOM      9  C   UNL     1       8.842  -4.531  -1.516  0.00  0.00    -0.082 C 
ATOM     10  N   UNL     1       9.378  -5.867  -1.230  0.00  0.00    +0.379 N 
ATOM     11  C   UNL     1       8.487  -6.576  -0.303  0.00  0.00    -0.082 C 
ATOM     12  C   UNL     1       7.124  -6.793  -0.967  0.00  0.00    -0.010 C 
ATOM     13  H   UNL     1       9.451  -6.390  -2.090  0.00  0.00    -0.086 HD
ATOM     14  H   UNL     1      10.293  -5.780  -0.814  0.00  0.00    -0.086 HD
ENDROOT
BRANCH   1  23
ATOM     15  C   UNL     1      -0.638   0.938  -0.213  0.00  0.00    +0.004 A 
ATOM     16  C   UNL     1       0.487   1.741  -0.179  0.00  0.00    +0.004 A 
ATOM     17  C   UNL     1       1.745   1.171  -0.144  0.00  0.00    +0.049 A 
ATOM     18  C   UNL     1       1.883  -0.209  -0.146  0.00  0.00    +0.163 A 
ATOM     19  C   UNL     1       0.752  -1.017  -0.183  0.00  0.00    +0.162 A 
ATOM     20  C   UNL     1      -0.508  -0.438  -0.215  0.00  0.00    +0.049 A 
ATOM     21  O   UNL     1       0.865  -2.373  -0.193  0.00  0.00    -0.484 OA
ATOM     22  C   UNL     1       2.124  -2.917   0.215  0.00  0.00    +0.283 C 
ATOM     23  C   UNL     1       3.238  -2.132  -0.491  0.00  0.00    +0.296 C 
ATOM     24  O   UNL     1       3.128  -0.757  -0.109  0.00  0.00    -0.473 OA
ENDBRANCH   1  23
BRANCH   5  25
ATOM     25  C   UNL     1       5.219  -4.994  -3.430  0.00  0.00    +0.218 C 
ATOM     26  O   UNL     1       4.965  -3.815  -3.553  0.00  0.00    -0.275 OA
ATOM     27  N   UNL     1       5.535  -5.732  -4.513  0.00  0.00    -0.315 N 
ATOM     28  H   UNL     1       5.738  -6.675  -4.414  0.00  0.00    +0.149 HD
BRANCH  27  29
ATOM     29  C   UNL     1       5.570  -5.110  -5.838  0.00  0.00    +0.107 C 
BRANCH  29  30
ATOM     30  C   UNL     1       5.952  -6.159  -6.884  0.00  0.00    +0.003 C 
ATOM     31  C   UNL     1       7.385  -6.636  -6.632  0.00  0.00    -0.014 C 
ATOM     32  C   UNL     1       7.788  -7.625  -7.728  0.00  0.00    -0.078 C 
ATOM     33  N   UNL     1       7.712  -6.967  -9.038  0.00  0.00    +0.382 N 
ATOM     34  C   UNL     1       6.327  -6.572  -9.318  0.00  0.00    -0.078 C 
ATOM     35  C   UNL     1       5.868  -5.542  -8.283  0.00  0.00    -0.014 C 
ATOM     36  H   UNL     1       8.301  -6.148  -9.036  0.00  0.00    -0.081 HD
BRANCH  33  37
ATOM     37  C   UNL     1       8.174  -7.897 -10.078  0.00  0.00    -0.069 C 
ATOM     38  C   UNL     1       9.655  -8.259  -9.843  0.00  0.00    -0.015 C 
ATOM     39  C   UNL     1      10.255  -8.351 -11.268  0.00  0.00    -0.002 C 
ATOM     40  C   UNL     1       9.540  -7.197 -12.014  0.00  0.00    -0.002 C 
ATOM     41  C   UNL     1       8.101  -7.221 -11.459  0.00  0.00    -0.015 C 
ENDBRANCH  33  37
ENDBRANCH  29  30
ENDBRANCH  27  29
ENDBRANCH   5  25
TORSDOF 5
