REMARK  Name = ZINC39664819
REMARK  13 active torsions:
REMARK  status: ('A' for Active; 'I' for Inactive)
REMARK    1  A    between atoms: C_1  and  C_2
REMARK    2  A    between atoms: C_4  and  C_11
REMARK    3  A    between atoms: N_5  and  C_7
REMARK    4  A    between atoms: C_7  and  C_8
REMARK    5  A    between atoms: C_7  and  C_9
REMARK    6  A    between atoms: C_7  and  C_10
REMARK    7  A    between atoms: C_15  and  C_24
REMARK    8  A    between atoms: N_26  and  C_27
REMARK    9  A    between atoms: C_27  and  C_29
REMARK   10  A    between atoms: C_27  and  C_33
REMARK   11  A    between atoms: C_29  and  N_30
REMARK   12  A    between atoms: N_30  and  C_31
REMARK   13  A    between atoms: N_30  and  C_32
REMARK                            x       y       z     vdW  Elec       q    Type
REMARK                         _______ _______ _______ _____ _____    ______ ____
ROOT
ATOM      1  C   UNL     1      -2.141  -4.258  -1.296  0.00  0.00    +0.265 C 
ATOM      2  O   UNL     1      -2.944  -4.362  -2.203  0.00  0.00    -0.268 OA
ATOM      3  N   UNL     1      -1.735  -5.354  -0.625  0.00  0.00    -0.295 N 
ATOM      4  C   UNL     1      -0.871  -5.416   0.577  0.00  0.00    +0.121 C 
ATOM      5  C   UNL     1      -1.492  -6.531   1.447  0.00  0.00    +0.100 C 
ATOM      6  C   UNL     1      -2.265  -7.418   0.457  0.00  0.00    -0.004 C 
ATOM      7  C   UNL     1      -2.058  -6.771  -0.920  0.00  0.00    +0.115 C 
ATOM      8  C   UNL     1      -3.749  -7.433   0.808  0.00  0.00    -0.010 C 
ATOM      9  C   UNL     1      -4.487  -8.367  -0.156  0.00  0.00    -0.082 C 
ATOM     10  N   UNL     1      -3.926  -9.719  -0.056  0.00  0.00    +0.379 N 
ATOM     11  C   UNL     1      -2.522  -9.712  -0.485  0.00  0.00    -0.082 C 
ATOM     12  C   UNL     1      -1.701  -8.835   0.465  0.00  0.00    -0.010 C 
ATOM     13  H   UNL     1      -3.983 -10.036   0.900  0.00  0.00    -0.086 HD
ATOM     14  H   UNL     1      -4.453 -10.345  -0.646  0.00  0.00    -0.086 HD
ENDROOT
BRANCH   1  18
ATOM     15  C   UNL     1       0.534  -0.481   0.778  0.00  0.00    +0.067 C 
ATOM     16  C   UNL     1      -0.455  -1.276  -0.035  0.00  0.00    +0.061 A 
ATOM     17  C   UNL     1      -0.584  -2.666  -0.042  0.00  0.00    +0.057 A 
ATOM     18  C   UNL     1      -1.613  -2.934  -0.929  0.00  0.00    +0.124 A 
ATOM     19  N   UNL     1      -2.038  -1.723  -1.398  0.00  0.00    -0.254 N 
ATOM     20  N   UNL     1      -1.349  -0.785  -0.855  0.00  0.00    -0.175 NA
BRANCH  19  21
ATOM     21  C   UNL     1      -3.118  -1.525  -2.367  0.00  0.00    +0.056 C 
ATOM     22  C   UNL     1      -4.391  -2.203  -1.857  0.00  0.00    +0.036 C 
ATOM     23  C   UNL     1      -3.375  -0.027  -2.545  0.00  0.00    +0.036 C 
ATOM     24  C   UNL     1      -2.717  -2.137  -3.711  0.00  0.00    +0.036 C 
ENDBRANCH  19  21
ENDBRANCH   1  18
BRANCH   5  25
ATOM     25  C   UNL     1      -0.410  -7.325   2.133  0.00  0.00    +0.219 C 
ATOM     26  O   UNL     1       0.700  -7.383   1.648  0.00  0.00    -0.275 OA
ATOM     27  N   UNL     1      -0.676  -7.972   3.285  0.00  0.00    -0.310 N 
ATOM     28  H   UNL     1      -1.579  -7.981   3.639  0.00  0.00    +0.149 HD
BRANCH  27  29
ATOM     29  C   UNL     1       0.399  -8.661   4.003  0.00  0.00    +0.087 C 
BRANCH  29  30
ATOM     30  C   UNL     1      -0.131  -9.945   4.588  0.00  0.00    -0.029 A 
ATOM     31  C   UNL     1      -1.396  -9.981   5.146  0.00  0.00    +0.005 A 
ATOM     32  C   UNL     1      -1.881 -11.159   5.682  0.00  0.00    +0.000 A 
ATOM     33  C   UNL     1      -1.103 -12.301   5.661  0.00  0.00    +0.000 A 
ATOM     34  C   UNL     1       0.161 -12.265   5.103  0.00  0.00    +0.000 A 
ATOM     35  C   UNL     1       0.645 -11.089   4.562  0.00  0.00    +0.005 A 
ENDBRANCH  29  30
BRANCH  29  36
ATOM     36  C   UNL     1       0.917  -7.764   5.129  0.00  0.00    -0.052 C 
BRANCH  36  37
ATOM     37  N   UNL     1       1.423  -6.508   4.559  0.00  0.00    +0.377 N 
ATOM     38  C   UNL     1       1.787  -5.589   5.647  0.00  0.00    -0.097 C 
ATOM     39  C   UNL     1       2.608  -6.785   3.736  0.00  0.00    -0.097 C 
ATOM     40  H   UNL     1       0.708  -6.085   3.987  0.00  0.00    -0.083 HD
ENDBRANCH  36  37
ENDBRANCH  29  36
ENDBRANCH  27  29
ENDBRANCH   5  25
TORSDOF 7
