REMARK  Name = ZINC47309515
REMARK  4 active torsions:
REMARK  status: ('A' for Active; 'I' for Inactive)
REMARK    1  A    between atoms: C_7  and  C_11
REMARK    2  A    between atoms: C_14  and  C_25
REMARK    3  A    between atoms: C_20  and  N_24
REMARK    4  A    between atoms: C_21  and  C_22
REMARK                            x       y       z     vdW  Elec       q    Type
REMARK                         _______ _______ _______ _____ _____    ______ ____
ROOT
ATOM      1  C   UNL     1       0.555  -3.330  -0.028  0.00  0.00    +0.104 C 
ATOM      2  C   UNL     1       0.962  -4.217   1.121  0.00  0.00    +0.054 A 
ATOM      3  C   UNL     1       0.814  -4.025   2.454  0.00  0.00    +0.074 A 
ATOM      4  N   UNL     1       1.345  -5.117   3.081  0.00  0.00    -0.273 N 
ATOM      5  H   UNL     1       1.382  -5.262   4.040  0.00  0.00    +0.189 HD
ATOM      6  N   UNL     1       1.825  -5.991   2.094  0.00  0.00    -0.135 NA
ATOM      7  C   UNL     1       1.598  -5.459   0.926  0.00  0.00    +0.245 A 
ATOM      8  O   UNL     1       1.884  -5.935  -0.316  0.00  0.00    -0.421 OA
ATOM      9  C   UNL     1       1.303  -5.321  -1.366  0.00  0.00    +0.201 C 
ATOM     10  C   UNL     1       0.674  -4.127  -1.303  0.00  0.00    +0.098 C 
ENDROOT
BRANCH   1  17
ATOM     11  C   UNL     1      -0.229   1.290  -0.121  0.00  0.00    +0.001 A 
ATOM     12  C   UNL     1       0.940   2.036  -0.181  0.00  0.00    +0.002 A 
ATOM     13  C   UNL     1       2.169   1.415  -0.207  0.00  0.00    +0.026 A 
ATOM     14  C   UNL     1       2.242   0.026  -0.174  0.00  0.00    +0.047 A 
ATOM     15  C   UNL     1       1.055  -0.725  -0.113  0.00  0.00    +0.004 A 
ATOM     16  C   UNL     1      -0.181  -0.075  -0.087  0.00  0.00    +0.010 A 
ATOM     17  C   UNL     1       1.466  -2.131  -0.091  0.00  0.00    -0.010 A 
ATOM     18  C   UNL     1       2.807  -2.148  -0.138  0.00  0.00    +0.088 A 
ATOM     19  N   UNL     1       3.289  -0.869  -0.187  0.00  0.00    -0.360 N 
ATOM     20  H   UNL     1       4.228  -0.627  -0.226  0.00  0.00    +0.165 HD
ENDBRANCH   1  17
BRANCH   3  21
ATOM     21  C   UNL     1       0.193  -2.852   3.108  0.00  0.00    +0.000 A 
ATOM     22  C   UNL     1       0.834  -2.227   4.178  0.00  0.00    +0.011 A 
ATOM     23  C   UNL     1       0.251  -1.134   4.785  0.00  0.00    +0.020 A 
ATOM     24  C   UNL     1      -0.968  -0.656   4.333  0.00  0.00    +0.041 A 
ATOM     25  C   UNL     1      -1.609  -1.273   3.271  0.00  0.00    +0.020 A 
ATOM     26  C   UNL     1      -1.032  -2.363   2.653  0.00  0.00    +0.011 A 
ATOM     27 CL   UNL     1      -1.696   0.720   5.100  0.00  0.00    -0.084 Cl
ENDBRANCH   3  21
BRANCH   9  28
ATOM     28  N   UNL     1       1.353  -5.952  -2.583  0.00  0.00    -0.328 N 
ATOM     29  H   UNL     1       1.796  -6.811  -2.667  0.00  0.00    +0.145 HD
ATOM     30  H   UNL     1       0.946  -5.539  -3.361  0.00  0.00    +0.145 HD
ENDBRANCH   9  28
BRANCH  10  31
ATOM     31  C   UNL     1       0.095  -3.594  -2.499  0.00  0.00    +0.101 C 
ATOM     32  N   UNL     1      -0.364  -3.171  -3.448  0.00  0.00    -0.191 NA
ENDBRANCH  10  31
TORSDOF 4
