REMARK  Name = ZINC47168368
REMARK  6 active torsions:
REMARK  status: ('A' for Active; 'I' for Inactive)
REMARK    1  A    between atoms: C_1  and  C_2
REMARK    2  A    between atoms: C_2  and  C_9
REMARK    3  A    between atoms: C_13  and  N_15
REMARK    4  A    between atoms: C_16  and  C_18
REMARK    5  A    between atoms: C_18  and  C_19
REMARK    6  A    between atoms: C_19  and  C_20
REMARK                            x       y       z     vdW  Elec       q    Type
REMARK                         _______ _______ _______ _____ _____    ______ ____
ROOT
ATOM      1  C   UNL     1      -1.467  -0.432   0.051  0.00  0.00    -0.014 A 
ATOM      2  C   UNL     1      -1.853  -1.390   0.971  0.00  0.00    +0.006 A 
ATOM      3  C   UNL     1      -3.075  -2.024   0.842  0.00  0.00    +0.002 A 
ATOM      4  C   UNL     1      -3.914  -1.703  -0.207  0.00  0.00    +0.023 A 
ATOM      5  C   UNL     1      -3.529  -0.742  -1.132  0.00  0.00    +0.034 A 
ATOM      6  C   UNL     1      -2.303  -0.103  -0.997  0.00  0.00    +0.029 A 
ENDROOT
BRANCH   1   8
ATOM      7  C   UNL     1      -0.324   1.768   0.342  0.00  0.00    +0.047 C 
ATOM      8  C   UNL     1      -0.134   0.257   0.197  0.00  0.00    +0.135 C 
ATOM      9  C   UNL     1       0.763  -0.057  -0.984  0.00  0.00    +0.248 C 
ATOM     10  O   UNL     1       0.558   0.207  -2.150  0.00  0.00    -0.273 OA
ATOM     11  N   UNL     1       1.836  -0.688  -0.469  0.00  0.00    -0.238 N 
ATOM     12  C   UNL     1       1.743  -0.817   0.860  0.00  0.00    +0.307 C 
ATOM     13  O   UNL     1       2.589  -1.353   1.548  0.00  0.00    -0.252 OA
ATOM     14  N   UNL     1       0.607  -0.286   1.348  0.00  0.00    -0.282 N 
ATOM     15  H   UNL     1       2.584  -1.011  -0.996  0.00  0.00    +0.159 HD
ATOM     16  H   UNL     1       0.330  -0.265   2.278  0.00  0.00    +0.152 HD
ENDBRANCH   1   8
BRANCH   5  17
ATOM     17  N   UNL     1      -4.376  -0.414  -2.196  0.00  0.00    -0.285 N 
ATOM     18  C   UNL     1      -5.713  -0.449  -2.029  0.00  0.00    +0.218 C 
ATOM     19  O   UNL     1      -6.181  -0.671  -0.932  0.00  0.00    -0.275 OA
ATOM     20  H   UNL     1      -4.002  -0.161  -3.055  0.00  0.00    +0.155 HD
BRANCH  18  21
ATOM     21  C   UNL     1      -6.627  -0.213  -3.204  0.00  0.00    +0.101 C 
BRANCH  21  22
ATOM     22  C   UNL     1      -8.083  -0.307  -2.745  0.00  0.00    +0.045 C 
BRANCH  22  23
ATOM     23  C   UNL     1      -8.996  -0.070  -3.920  0.00  0.00    -0.040 A 
ATOM     24  C   UNL     1      -9.419   1.208  -4.234  0.00  0.00    +0.011 A 
ATOM     25  C   UNL     1     -10.240   1.386  -5.298  0.00  0.00    +0.045 A 
ATOM     26  S   UNL     1     -10.440  -0.285  -5.894  0.00  0.00    -0.105 S 
ATOM     27  C   UNL     1      -9.411  -1.107  -4.688  0.00  0.00    +0.048 A 
ENDBRANCH  22  23
ENDBRANCH  21  22
ENDBRANCH  18  21
ENDBRANCH   5  17
TORSDOF 5
