REMARK  Name = ZINC09586270
REMARK  11 active torsions:
REMARK  status: ('A' for Active; 'I' for Inactive)
REMARK    1  A    between atoms: C_1  and  C_2
REMARK    2  A    between atoms: C_3  and  C_14
REMARK    3  A    between atoms: C_4  and  C_13
REMARK    4  A    between atoms: N_5  and  C_7
REMARK    5  A    between atoms: C_14  and  N_61
REMARK    6  A    between atoms: C_15  and  N_61
REMARK    7  A    between atoms: C_16  and  C_18
REMARK    8  A    between atoms: C_16  and  C_19
REMARK    9  A    between atoms: C_16  and  N_61
REMARK   10  A    between atoms: N_21  and  C_22
REMARK   11  A    between atoms: C_23  and  C_30
REMARK                            x       y       z     vdW  Elec       q    Type
REMARK                         _______ _______ _______ _____ _____    ______ ____
ROOT
ATOM      1  C   UNL     1       2.339   8.507   2.621  0.00  0.00    +0.016 C 
ATOM      2  C   UNL     1       3.851   8.437   2.847  0.00  0.00    -0.004 C 
ENDROOT
BRANCH   1   3
ATOM      3  C   UNL     1       1.659   8.920   3.901  0.00  0.00    +0.204 C 
ATOM      4  O   UNL     1       0.842   8.187   4.418  0.00  0.00    -0.277 OA
ATOM      5  N   UNL     1       1.958  10.104   4.471  0.00  0.00    -0.281 N 
ATOM      6  H   UNL     1       2.611  10.690   4.058  0.00  0.00    +0.155 HD
BRANCH   5   7
ATOM      7  C   UNL     1       1.332  10.484   5.649  0.00  0.00    +0.084 A 
ATOM      8  C   UNL     1       1.508  11.646   6.380  0.00  0.00    +0.068 A 
ATOM      9  C   UNL     1       0.714  11.807   7.598  0.00  0.00    -0.023 A 
ATOM     10  C   UNL     1      -0.110  10.782   7.881  0.00  0.00    -0.004 A 
ATOM     11  S   UNL     1       0.146   9.618   6.564  0.00  0.00    -0.077 S 
ATOM     12  C   UNL     1      -0.890  11.019   9.146  0.00  0.00    +0.043 C 
ATOM     13  C   UNL     1      -0.764  12.537   9.402  0.00  0.00    +0.010 C 
ATOM     14  C   UNL     1       0.562  12.867   8.689  0.00  0.00    +0.037 C 
BRANCH   8  15
ATOM     15  C   UNL     1       2.454  12.679   5.949  0.00  0.00    +0.244 C 
ATOM     16  O   UNL     1       2.083  13.575   5.213  0.00  0.00    -0.270 OA
ATOM     17  N   UNL     1       3.735  12.638   6.366  0.00  0.00    -0.325 N 
ATOM     18  H   UNL     1       4.031  11.924   6.952  0.00  0.00    +0.145 HD
ATOM     19  H   UNL     1       4.361  13.321   6.080  0.00  0.00    +0.145 HD
ENDBRANCH   8  15
ENDBRANCH   5   7
ENDBRANCH   1   3
BRANCH   1  21
ATOM     20  C   UNL     1       2.143   6.170   3.225  0.00  0.00    -0.095 C 
ATOM     21  N   UNL     1       1.816   7.188   2.205  0.00  0.00    +0.388 N 
ATOM     22  H   UNL     1       0.795   7.250   2.110  0.00  0.00    -0.081 HD
BRANCH  21  23
ATOM     23  C   UNL     1       2.397   6.803   0.902  0.00  0.00    -0.039 C 
BRANCH  23  26
ATOM     24  C   UNL     1      -0.215   6.762  -0.891  0.00  0.00    +0.068 C 
ATOM     25  C   UNL     1       0.534   5.553  -0.393  0.00  0.00    +0.062 A 
ATOM     26  C   UNL     1       1.688   5.572   0.399  0.00  0.00    -0.020 A 
ATOM     27  C   UNL     1       2.050   4.290   0.636  0.00  0.00    +0.043 A 
ATOM     28  N   UNL     1       1.161   3.488   0.009  0.00  0.00    -0.237 N 
ATOM     29  N   UNL     1       0.218   4.305  -0.627  0.00  0.00    -0.171 NA
ATOM     30  C   UNL     1       3.235   3.839   1.452  0.00  0.00    +0.066 C 
BRANCH  28  31
ATOM     31  C   UNL     1       1.177   2.086   0.002  0.00  0.00    +0.066 A 
ATOM     32  C   UNL     1      -0.017   1.377   0.010  0.00  0.00    +0.028 A 
ATOM     33  C   UNL     1       0.002  -0.004   0.002  0.00  0.00    +0.002 A 
ATOM     34  C   UNL     1       1.208  -0.680  -0.013  0.00  0.00    +0.000 A 
ATOM     35  C   UNL     1       2.398   0.023  -0.021  0.00  0.00    +0.002 A 
ATOM     36  C   UNL     1       2.386   1.404  -0.013  0.00  0.00    +0.028 A 
ENDBRANCH  28  31
ENDBRANCH  23  26
ENDBRANCH  21  23
ENDBRANCH   1  21
TORSDOF 7
