REMARK  Name = ZINC12280425
REMARK  6 active torsions:
REMARK  status: ('A' for Active; 'I' for Inactive)
REMARK    1  A    between atoms: C_1  and  C_2
REMARK    2  A    between atoms: C_8  and  C_9
REMARK    3  A    between atoms: C_8  and  N_64
REMARK    4  A    between atoms: C_12  and  C_17
REMARK    5  A    between atoms: N_19  and  C_20
REMARK    6  A    between atoms: C_20  and  C_21
REMARK                            x       y       z     vdW  Elec       q    Type
REMARK                         _______ _______ _______ _____ _____    ______ ____
ROOT
ATOM      1  C   UNL     1      -0.956   1.477   1.021  0.00  0.00    +0.003 A 
ATOM      2  C   UNL     1      -1.449   0.498   1.822  0.00  0.00    +0.020 A 
ATOM      3  C   UNL     1      -2.365   0.811   2.826  0.00  0.00    +0.020 A 
ATOM      4  C   UNL     1      -2.760   2.137   2.990  0.00  0.00    +0.101 A 
ATOM      5  C   UNL     1      -2.215   3.125   2.129  0.00  0.00    +0.261 A 
ATOM      6  O   UNL     1      -2.544   4.292   2.252  0.00  0.00    -0.267 OA
ATOM      7  N   UNL     1      -1.331   2.769   1.178  0.00  0.00    -0.327 N 
ATOM      8  H   UNL     1      -0.959   3.448   0.594  0.00  0.00    +0.169 HD
ENDROOT
BRANCH   4   9
ATOM      9  C   UNL     1      -3.723   2.507   4.039  0.00  0.00    +0.249 C 
ATOM     10  O   UNL     1      -4.272   1.641   4.693  0.00  0.00    -0.270 OA
ATOM     11  N   UNL     1      -3.998   3.805   4.273  0.00  0.00    -0.311 N 
ATOM     12  H   UNL     1      -3.616   4.492   3.705  0.00  0.00    +0.149 HD
BRANCH  11  13
ATOM     13  C   UNL     1      -4.873   4.179   5.387  0.00  0.00    +0.108 C 
BRANCH  13  14
ATOM     14  C   UNL     1      -5.020   5.701   5.432  0.00  0.00    +0.012 C 
ATOM     15  C   UNL     1      -3.665   6.335   5.752  0.00  0.00    -0.006 C 
ATOM     16  C   UNL     1      -3.812   7.857   5.797  0.00  0.00    +0.007 C 
ATOM     17  C   UNL     1      -4.822   8.241   6.880  0.00  0.00    -0.010 C 
ATOM     18  C   UNL     1      -4.330   7.736   8.238  0.00  0.00    +0.007 C 
ATOM     19  C   UNL     1      -4.184   6.213   8.193  0.00  0.00    -0.010 C 
ATOM     20  C   UNL     1      -3.173   5.830   7.110  0.00  0.00    +0.007 C 
ATOM     21  C   UNL     1      -5.539   5.579   7.873  0.00  0.00    +0.007 C 
ATOM     22  C   UNL     1      -6.030   6.085   6.515  0.00  0.00    -0.006 C 
ATOM     23  C   UNL     1      -6.177   7.607   6.560  0.00  0.00    +0.007 C 
ENDBRANCH  13  14
ENDBRANCH  11  13
ENDBRANCH   4   9
BRANCH   1  24
ATOM     24  C   UNL     1       0.033   1.121  -0.059  0.00  0.00    -0.024 C 
BRANCH  24  31
ATOM     25  C   UNL     1       0.389   3.541  -1.448  0.00  0.00    -0.013 C 
ATOM     26  C   UNL     1      -0.887   2.716  -1.630  0.00  0.00    -0.071 C 
ATOM     27  C   UNL     1      -1.402   2.882  -3.061  0.00  0.00    -0.016 C 
ATOM     28  C   UNL     1      -2.667   2.039  -3.244  0.00  0.00    -0.003 C 
ATOM     29  C   UNL     1      -2.347   0.576  -2.926  0.00  0.00    -0.019 C 
ATOM     30  C   UNL     1      -1.804   0.477  -1.499  0.00  0.00    -0.078 C 
ATOM     31  N   UNL     1      -0.574   1.290  -1.395  0.00  0.00    +0.385 N 
ATOM     32  H   UNL     1       0.095   0.975  -2.108  0.00  0.00    -0.081 HD
ENDBRANCH  24  31
ENDBRANCH   1  24
TORSDOF 5
