REMARK  Name = ZINC52857368
REMARK  4 active torsions:
REMARK  status: ('A' for Active; 'I' for Inactive)
REMARK    1  A    between atoms: C_8  and  C_11
REMARK    2  A    between atoms: C_11  and  N_12
REMARK    3  A    between atoms: N_12  and  C_13
REMARK    4  A    between atoms: C_18  and  C_19
REMARK                            x       y       z     vdW  Elec       q    Type
REMARK                         _______ _______ _______ _____ _____    ______ ____
ROOT
ATOM      1  N   UNL     1       5.218  -3.192  -0.157  0.00  0.00    -0.339 N 
ATOM      2  H   UNL     1       5.515  -2.521  -0.791  0.00  0.00    +0.146 HD
ENDROOT
BRANCH   1   3
ATOM      3  C   UNL     1       6.126  -4.109   0.361  0.00  0.00    +0.045 A 
ATOM      4  C   UNL     1       5.702  -5.076   1.264  0.00  0.00    +0.025 A 
ATOM      5  C   UNL     1       6.604  -5.985   1.778  0.00  0.00    +0.022 A 
ATOM      6  C   UNL     1       7.937  -5.943   1.397  0.00  0.00    +0.042 A 
ATOM      7  C   UNL     1       8.376  -4.991   0.501  0.00  0.00    +0.040 A 
ATOM      8  C   UNL     1       7.473  -4.067  -0.030  0.00  0.00    +0.074 A 
ATOM      9 CL   UNL     1       9.059  -7.095   2.053  0.00  0.00    -0.084 Cl
BRANCH   8  10
ATOM     10  C   UNL     1       7.920  -3.079  -0.965  0.00  0.00    +0.101 C 
ATOM     11  N   UNL     1       8.275  -2.295  -1.707  0.00  0.00    -0.191 NA
ENDBRANCH   8  10
ENDBRANCH   1   3
BRANCH   1  12
ATOM     12  C   UNL     1       3.813  -3.240   0.254  0.00  0.00    +0.146 C 
BRANCH  12  20
ATOM     13  C   UNL     1      -0.017   1.379   0.010  0.00  0.00    +0.000 A 
ATOM     14  C   UNL     1       1.174   2.082   0.002  0.00  0.00    +0.004 A 
ATOM     15  C   UNL     1       2.379   1.411  -0.009  0.00  0.00    +0.046 A 
ATOM     16  C   UNL     1       2.407   0.019  -0.013  0.00  0.00    +0.124 A 
ATOM     17  C   UNL     1       1.204  -0.676  -0.013  0.00  0.00    -0.002 A 
ATOM     18  C   UNL     1       0.002  -0.004   0.002  0.00  0.00    +0.007 A 
ATOM     19  C   UNL     1       1.545  -2.154  -0.043  0.00  0.00    +0.085 C 
ATOM     20  C   UNL     1       3.035  -2.130  -0.457  0.00  0.00    +0.195 C 
ATOM     21  O   UNL     1       3.469  -0.834  -0.012  0.00  0.00    -0.487 OA
ENDBRANCH  12  20
ENDBRANCH   1  12
TORSDOF 4
