REMARK  Name = ZINC39451977
REMARK  7 active torsions:
REMARK  status: ('A' for Active; 'I' for Inactive)
REMARK    1  A    between atoms: C_1  and  C_2
REMARK    2  A    between atoms: C_2  and  O_3
REMARK    3  A    between atoms: O_3  and  C_4
REMARK    4  A    between atoms: N_20  and  S_21
REMARK    5  A    between atoms: S_21  and  C_24
REMARK    6  A    between atoms: C_24  and  C_25
REMARK    7  A    between atoms: C_24  and  C_26
REMARK                            x       y       z     vdW  Elec       q    Type
REMARK                         _______ _______ _______ _____ _____    ______ ____
ROOT
ATOM      1  C   UNL     1      -1.558  -2.589  -0.033  0.00  0.00    +0.211 C 
ATOM      2  C   UNL     1      -3.028  -3.005   0.091  0.00  0.00    +0.132 C 
ATOM      3  C   UNL     1      -3.818  -2.389  -1.034  0.00  0.00    +0.187 C 
ATOM      4  O   UNL     1      -4.990  -2.117  -0.868  0.00  0.00    -0.290 OA
ATOM      5  C   UNL     1      -3.208  -2.125  -2.282  0.00  0.00    +0.134 A 
ATOM      6  C   UNL     1      -1.860  -2.379  -2.455  0.00  0.00    +0.085 A 
ATOM      7  C   UNL     1      -1.228  -2.111  -3.754  0.00  0.00    +0.099 A 
ATOM      8  C   UNL     1      -2.030  -1.587  -4.790  0.00  0.00    +0.070 A 
ATOM      9  C   UNL     1      -1.452  -1.323  -6.032  0.00  0.00    +0.037 A 
ATOM     10  C   UNL     1      -0.103  -1.592  -6.192  0.00  0.00    +0.060 A 
ATOM     11  C   UNL     1       0.624  -2.109  -5.126  0.00  0.00    +0.131 A 
ATOM     12  N   UNL     1       0.061  -2.350  -3.962  0.00  0.00    -0.251 NA
ATOM     13 CL   UNL     1       0.675  -1.287  -7.713  0.00  0.00    -0.082 Cl
ATOM     14  C   UNL     1      -3.454  -1.334  -4.528  0.00  0.00    +0.281 A 
ATOM     15  O   UNL     1      -4.163  -0.879  -5.407  0.00  0.00    -0.265 OA
ATOM     16  N   UNL     1      -3.974  -1.604  -3.317  0.00  0.00    -0.174 N 
ATOM     17  N   UNL     1      -1.112  -2.878  -1.405  0.00  0.00    -0.315 N 
ATOM     18  H   UNL     1      -0.314  -3.405  -1.567  0.00  0.00    +0.149 HD
ENDROOT
BRANCH  16  19
ATOM     19  S   UNL     1      -5.582  -1.307  -3.051  0.00  0.00    +0.060 S 
ATOM     20  O   UNL     1      -6.072  -0.826  -4.296  0.00  0.00    -0.153 OA
ATOM     21  O   UNL     1      -6.085  -2.511  -2.491  0.00  0.00    -0.153 OA
BRANCH  19  22
ATOM     22  C   UNL     1      -5.612   0.019  -1.814  0.00  0.00    +0.148 C 
ATOM     23  C   UNL     1      -5.002   1.289  -2.411  0.00  0.00    +0.033 C 
ATOM     24  C   UNL     1      -7.058   0.295  -1.397  0.00  0.00    +0.033 C 
ENDBRANCH  19  22
ENDBRANCH  16  19
BRANCH   1  25
ATOM     25  O   UNL     1      -1.428  -1.191   0.232  0.00  0.00    -0.359 OA
BRANCH  25  27
ATOM     26  C   UNL     1      -0.058   0.759   0.631  0.00  0.00    +0.034 C 
ATOM     27  C   UNL     1      -0.076  -0.745   0.350  0.00  0.00    +0.159 C 
ENDBRANCH  25  27
ENDBRANCH   1  25
TORSDOF 4
