REMARK  Name = ZINC65384405
REMARK  4 active torsions:
REMARK  status: ('A' for Active; 'I' for Inactive)
REMARK    1  A    between atoms: C_1  and  C_2
REMARK    2  A    between atoms: C_9  and  C_13
REMARK    3  A    between atoms: C_18  and  N_19
REMARK    4  A    between atoms: C_20  and  C_22
REMARK                            x       y       z     vdW  Elec       q    Type
REMARK                         _______ _______ _______ _____ _____    ______ ____
ROOT
ATOM      1  C   UNL     1      -1.497  -0.533   4.333  0.00  0.00    +0.028 A 
ATOM      2  C   UNL     1      -1.795  -1.381   5.399  0.00  0.00    +0.012 A 
ATOM      3  C   UNL     1      -2.285  -0.859   6.578  0.00  0.00    +0.001 A 
ATOM      4  C   UNL     1      -2.484   0.505   6.708  0.00  0.00    +0.002 A 
ATOM      5  C   UNL     1      -2.193   1.356   5.659  0.00  0.00    +0.024 A 
ATOM      6  C   UNL     1      -1.693   0.847   4.470  0.00  0.00    +0.043 A 
ENDROOT
BRANCH   1  14
ATOM      7  C   UNL     1      -3.141  -4.053   0.746  0.00  0.00    +0.063 C 
ATOM      8  C   UNL     1      -1.725  -3.560   0.588  0.00  0.00    +0.035 C 
ATOM      9  C   UNL     1      -0.877  -4.237  -0.196  0.00  0.00    +0.064 C 
ATOM     10  S   UNL     1       0.620  -3.254  -0.106  0.00  0.00    -0.088 S 
ATOM     11  C   UNL     1      -0.195  -1.734   0.550  0.00  0.00    +0.247 C 
ATOM     12  N   UNL     1      -1.328  -2.414   1.251  0.00  0.00    -0.197 N 
ATOM     13  N   UNL     1      -1.734  -1.868   2.349  0.00  0.00    -0.172 NA
ATOM     14  C   UNL     1      -0.969  -1.087   3.066  0.00  0.00    +0.152 C 
ATOM     15  C   UNL     1       0.397  -0.743   2.652  0.00  0.00    +0.267 C 
ATOM     16  O   UNL     1       1.159  -0.191   3.423  0.00  0.00    -0.268 OA
ATOM     17  N   UNL     1       0.797  -1.052   1.388  0.00  0.00    -0.281 N 
ATOM     18  H   UNL     1       1.681  -0.832   1.055  0.00  0.00    +0.152 HD
ENDBRANCH   1  14
BRANCH   6  19
ATOM     19  N   UNL     1      -1.393   1.707   3.410  0.00  0.00    -0.281 N 
ATOM     20  C   UNL     1      -0.958   2.958   3.660  0.00  0.00    +0.248 C 
ATOM     21  O   UNL     1      -0.894   3.362   4.805  0.00  0.00    -0.270 OA
ATOM     22  H   UNL     1      -1.496   1.404   2.495  0.00  0.00    +0.155 HD
BRANCH  20  23
ATOM     23  C   UNL     1      -0.560   3.840   2.542  0.00  0.00    +0.035 C 
ATOM     24  C   UNL     1      -0.034   5.053   2.828  0.00  0.00    +0.017 C 
ATOM     25  C   UNL     1       0.454   5.915   1.701  0.00  0.00    +0.159 C 
ATOM     26  C   UNL     1      -0.361   5.566   0.470  0.00  0.00    -0.018 C 
ATOM     27  C   UNL     1      -0.773   6.743  -0.033  0.00  0.00    +0.025 C 
ATOM     28  C   UNL     1      -0.428   7.781   0.861  0.00  0.00    +0.106 C 
ATOM     29  N   UNL     1       0.248   7.344   1.888  0.00  0.00    -0.279 NA
ATOM     30  C   UNL     1      -0.679   4.238   0.123  0.00  0.00    +0.007 C 
ATOM     31  C   UNL     1      -0.746   3.361   1.167  0.00  0.00    +0.013 C 
ENDBRANCH  20  23
ENDBRANCH   6  19
TORSDOF 3
