REMARK  Name = ZINC11385653
REMARK  13 active torsions:
REMARK  status: ('A' for Active; 'I' for Inactive)
REMARK    1  A    between atoms: C_1  and  C_2
REMARK    2  A    between atoms: C_2  and  C_3
REMARK    3  A    between atoms: C_2  and  C_4
REMARK    4  A    between atoms: C_2  and  C_5
REMARK    5  A    between atoms: C_8  and  O_11
REMARK    6  A    between atoms: O_11  and  C_12
REMARK    7  A    between atoms: C_12  and  C_13
REMARK    8  A    between atoms: C_16  and  S_19
REMARK    9  A    between atoms: N_17  and  N_18
REMARK   10  A    between atoms: S_19  and  C_20
REMARK   11  A    between atoms: C_20  and  C_21
REMARK   12  A    between atoms: N_25  and  C_30
REMARK   13  A    between atoms: N_28  and  C_29
REMARK                            x       y       z     vdW  Elec       q    Type
REMARK                         _______ _______ _______ _____ _____    ______ ____
ROOT
ATOM      1  C   UNL     1       1.832  -1.234  -3.216  0.00  0.00    +0.189 A 
ATOM      2  N   UNL     1       1.887   0.062  -3.339  0.00  0.00    -0.128 NA
ATOM      3  N   UNL     1       1.310   0.625  -2.337  0.00  0.00    -0.121 NA
ATOM      4  C   UNL     1       0.859  -0.290  -1.510  0.00  0.00    +0.209 A 
ATOM      5  N   UNL     1       1.175  -1.505  -2.047  0.00  0.00    -0.225 N 
ENDROOT
BRANCH   5   6
ATOM      6  N   UNL     1       0.894  -2.736  -1.526  0.00  0.00    -0.295 N 
ATOM      7  H   UNL     1      -0.001  -3.071  -1.850  0.00  0.00    +0.163 HD
ATOM      8  H   UNL     1       1.627  -3.396  -1.740  0.00  0.00    +0.163 HD
ENDBRANCH   5   6
BRANCH   1   9
ATOM      9  C   UNL     1       2.388  -2.247  -4.184  0.00  0.00    +0.306 C 
BRANCH   9  10
ATOM     10  O   UNL     1       1.391  -2.580  -5.151  0.00  0.00    -0.484 OA
BRANCH  10  14
ATOM     11  C   UNL     1       2.430  -5.334  -8.041  0.00  0.00    -0.042 A 
ATOM     12  C   UNL     1       1.164  -4.779  -8.041  0.00  0.00    +0.008 A 
ATOM     13  C   UNL     1       0.813  -3.856  -7.074  0.00  0.00    +0.046 A 
ATOM     14  C   UNL     1       1.733  -3.487  -6.103  0.00  0.00    +0.121 A 
ATOM     15  C   UNL     1       3.005  -4.041  -6.110  0.00  0.00    +0.046 A 
ATOM     16  C   UNL     1       3.349  -4.968  -7.075  0.00  0.00    +0.008 A 
BRANCH  11  18
ATOM     17  C   UNL     1       2.686  -5.699 -10.481  0.00  0.00    +0.015 C 
ATOM     18  C   UNL     1       2.810  -6.340  -9.097  0.00  0.00    -0.013 C 
ATOM     19  C   UNL     1       4.254  -6.794  -8.873  0.00  0.00    +0.015 C 
ATOM     20  C   UNL     1       1.876  -7.548  -9.010  0.00  0.00    +0.015 C 
ENDBRANCH  11  18
ENDBRANCH  10  14
ENDBRANCH   9  10
ENDBRANCH   1   9
BRANCH   4  21
ATOM     21  S   UNL     1       0.002  -0.004   0.002  0.00  0.00    -0.078 S 
BRANCH  21  22
ATOM     22  C   UNL     1      -0.022   1.806   0.012  0.00  0.00    +0.131 C 
BRANCH  22  23
ATOM     23  C   UNL     1      -0.728   2.292   1.252  0.00  0.00    +0.038 A 
ATOM     24  C   UNL     1      -0.017   2.802   2.281  0.00  0.00    +0.092 A 
ATOM     25  C   UNL     1      -0.703   3.256   3.433  0.00  0.00    +0.257 A 
ATOM     26  O   UNL     1      -0.084   3.724   4.372  0.00  0.00    -0.268 OA
ATOM     27  N   UNL     1      -2.047   3.161   3.483  0.00  0.00    -0.264 N 
ATOM     28  C   UNL     1      -2.730   2.643   2.446  0.00  0.00    +0.332 A 
ATOM     29  O   UNL     1      -3.942   2.564   2.506  0.00  0.00    -0.246 OA
ATOM     30  N   UNL     1      -2.091   2.213   1.343  0.00  0.00    -0.300 N 
ATOM     31  C   UNL     1      -2.861   1.655   0.229  0.00  0.00    +0.154 C 
ATOM     32  C   UNL     1      -2.767   3.623   4.673  0.00  0.00    +0.157 C 
ENDBRANCH  22  23
ENDBRANCH  21  22
ENDBRANCH   4  21
TORSDOF 8
