REMARK  Name = ZINC20750829
REMARK  6 active torsions:
REMARK  status: ('A' for Active; 'I' for Inactive)
REMARK    1  A    between atoms: C_1  and  C_2
REMARK    2  A    between atoms: C_5  and  N_9
REMARK    3  A    between atoms: C_6  and  C_8
REMARK    4  A    between atoms: N_9  and  S_10
REMARK    5  A    between atoms: S_10  and  C_13
REMARK    6  A    between atoms: C_26  and  C_29
REMARK                            x       y       z     vdW  Elec       q    Type
REMARK                         _______ _______ _______ _____ _____    ______ ____
ROOT
ATOM      1  C   UNL     1       3.654   3.176   0.074  0.00  0.00    +0.109 A 
ATOM      2  C   UNL     1       3.578   1.798   0.175  0.00  0.00    +0.030 A 
ATOM      3  C   UNL     1       2.351   1.177   0.278  0.00  0.00    +0.025 A 
ATOM      4  C   UNL     1       1.182   1.928   0.281  0.00  0.00    +0.031 A 
ATOM      5  C   UNL     1       1.266   3.322   0.192  0.00  0.00    -0.018 A 
ATOM      6  C   UNL     1       2.497   3.933   0.082  0.00  0.00    +0.034 A 
ATOM      7  C   UNL     1       0.002   4.087   0.242  0.00  0.00    +0.049 C 
ATOM      8  C   UNL     1      -0.130   5.428  -0.384  0.00  0.00    -0.023 C 
ATOM      9  C   UNL     1      -1.382   5.583  -0.795  0.00  0.00    -0.030 C 
ATOM     10  C   UNL     1      -2.191   4.319  -0.499  0.00  0.00    +0.033 C 
ATOM     11  C   UNL     1      -1.093   3.247  -0.483  0.00  0.00    +0.029 C 
ATOM     12  C   UNL     1      -1.322   2.033   0.394  0.00  0.00    +0.106 C 
ATOM     13  N   UNL     1      -0.053   1.274   0.369  0.00  0.00    -0.336 N 
ATOM     14  H   UNL     1      -0.068   0.175   0.421  0.00  0.00    +0.147 HD
ENDROOT
BRANCH  12  15
ATOM     15  C   UNL     1      -2.442   1.192  -0.163  0.00  0.00    -0.009 A 
ATOM     16  C   UNL     1      -3.699   1.220   0.423  0.00  0.00    +0.008 A 
ATOM     17  C   UNL     1      -4.699   0.430  -0.123  0.00  0.00    +0.020 A 
ATOM     18  C   UNL     1      -4.412  -0.353  -1.225  0.00  0.00    +0.111 A 
ATOM     19  N   UNL     1      -3.205  -0.355  -1.756  0.00  0.00    -0.263 NA
ATOM     20  C   UNL     1      -2.231   0.388  -1.267  0.00  0.00    +0.116 A 
ENDBRANCH  12  15
BRANCH   1  21
ATOM     21  S   UNL     1       5.223   3.965  -0.066  0.00  0.00    +0.072 S 
ATOM     22  O   UNL     1       5.051   5.296   0.402  0.00  0.00    -0.150 OA
ATOM     23  O   UNL     1       6.176   3.076   0.498  0.00  0.00    -0.150 OA
BRANCH  21  24
ATOM     24  N   UNL     1       5.574   4.073  -1.681  0.00  0.00    -0.216 N 
ATOM     25  H   UNL     1       6.472   3.581  -2.083  0.00  0.00    +0.174 HD
BRANCH  24  30
ATOM     26  C   UNL     1       2.151   6.986  -5.139  0.00  0.00    +0.044 C 
ATOM     27  C   UNL     1       3.060   6.211  -4.220  0.00  0.00    -0.050 A 
ATOM     28  C   UNL     1       3.268   6.650  -2.925  0.00  0.00    +0.005 A 
ATOM     29  C   UNL     1       4.101   5.944  -2.080  0.00  0.00    +0.025 A 
ATOM     30  C   UNL     1       4.730   4.790  -2.532  0.00  0.00    +0.051 A 
ATOM     31  C   UNL     1       4.523   4.355  -3.835  0.00  0.00    -0.028 A 
ATOM     32  C   UNL     1       3.685   5.064  -4.673  0.00  0.00    +0.008 A 
ATOM     33  C   UNL     1       5.208   3.108  -4.332  0.00  0.00    +0.046 C 
ENDBRANCH  24  30
ENDBRANCH  21  24
ENDBRANCH   1  21
TORSDOF 4
