REMARK  Name = ZINC44137998
REMARK  4 active torsions:
REMARK  status: ('A' for Active; 'I' for Inactive)
REMARK    1  A    between atoms: C_9  and  O_24
REMARK    2  A    between atoms: C_10  and  C_11
REMARK    3  A    between atoms: C_11  and  C_13
REMARK    4  A    between atoms: C_11  and  N_20
REMARK                            x       y       z     vdW  Elec       q    Type
REMARK                         _______ _______ _______ _____ _____    ______ ____
ROOT
ATOM      1  C   UNL     1       4.942   0.072  -0.019  0.00  0.00    +0.139 C 
ENDROOT
BRANCH   1  11
ATOM      2  C   UNL     1       0.500   2.354   1.099  0.00  0.00    +0.001 A 
ATOM      3  C   UNL     1       1.819   2.787   0.964  0.00  0.00    +0.001 A 
ATOM      4  C   UNL     1       2.813   1.913   0.649  0.00  0.00    +0.009 A 
ATOM      5  C   UNL     1       2.511   0.554   0.457  0.00  0.00    -0.009 A 
ATOM      6  C   UNL     1       1.170   0.115   0.594  0.00  0.00    -0.017 A 
ATOM      7  C   UNL     1       0.170   1.046   0.919  0.00  0.00    +0.008 A 
ATOM      8  C   UNL     1       0.865  -1.244   0.401  0.00  0.00    +0.012 A 
ATOM      9  C   UNL     1       1.857  -2.120   0.087  0.00  0.00    +0.046 A 
ATOM     10  C   UNL     1       3.180  -1.689  -0.048  0.00  0.00    +0.123 A 
ATOM     11  C   UNL     1       3.511  -0.376   0.131  0.00  0.00    +0.026 A 
BRANCH  10  12
ATOM     12  O   UNL     1       4.149  -2.588  -0.362  0.00  0.00    -0.506 OA
ATOM     13  H   UNL     1       4.233  -2.761  -1.310  0.00  0.00    +0.292 HD
ENDBRANCH  10  12
ENDBRANCH   1  11
BRANCH   1  14
ATOM     14  C   UNL     1       5.293   0.149  -1.483  0.00  0.00    -0.023 A 
ATOM     15  C   UNL     1       5.742  -0.977  -2.146  0.00  0.00    +0.007 A 
ATOM     16  C   UNL     1       6.064  -0.907  -3.489  0.00  0.00    +0.020 A 
ATOM     17  C   UNL     1       5.937   0.291  -4.168  0.00  0.00    +0.041 A 
ATOM     18  C   UNL     1       5.488   1.419  -3.504  0.00  0.00    +0.020 A 
ATOM     19  C   UNL     1       5.161   1.346  -2.163  0.00  0.00    +0.007 A 
ATOM     20 CL   UNL     1       6.342   0.381  -5.854  0.00  0.00    -0.084 Cl
ENDBRANCH   1  14
BRANCH   1  21
ATOM     21  N   UNL     1       5.827  -0.888   0.645  0.00  0.00    -0.289 N 
ATOM     22  C   UNL     1       6.099  -0.757   1.958  0.00  0.00    +0.298 C 
ATOM     23  O   UNL     1       5.537   0.100   2.613  0.00  0.00    -0.253 OA
ATOM     24  N   UNL     1       6.993  -1.576   2.546  0.00  0.00    -0.313 N 
ATOM     25  H   UNL     1       6.217  -1.618   0.139  0.00  0.00    +0.151 HD
ATOM     26  H   UNL     1       7.441  -2.260   2.024  0.00  0.00    +0.146 HD
ATOM     27  H   UNL     1       7.189  -1.482   3.492  0.00  0.00    +0.146 HD
ENDBRANCH   1  21
TORSDOF 4
