REMARK  Name = ZINC59199319
REMARK  16 active torsions:
REMARK  status: ('A' for Active; 'I' for Inactive)
REMARK    1  A    between atoms: C_1  and  C_2
REMARK    2  A    between atoms: C_2  and  C_33
REMARK    3  A    between atoms: C_4  and  N_10
REMARK    4  A    between atoms: C_6  and  C_8
REMARK    5  A    between atoms: C_6  and  C_9
REMARK    6  A    between atoms: N_10  and  C_11
REMARK    7  A    between atoms: N_10  and  C_20
REMARK    8  A    between atoms: C_11  and  C_12
REMARK    9  A    between atoms: C_17  and  O_18
REMARK   10  A    between atoms: O_18  and  C_19
REMARK   11  A    between atoms: C_20  and  N_22
REMARK   12  A    between atoms: N_22  and  C_23
REMARK   13  A    between atoms: C_27  and  O_31
REMARK   14  A    between atoms: C_28  and  O_29
REMARK   15  A    between atoms: O_29  and  C_30
REMARK   16  A    between atoms: O_31  and  C_32
REMARK                            x       y       z     vdW  Elec       q    Type
REMARK                         _______ _______ _______ _____ _____    ______ ____
ROOT
ATOM      1  N   UNL     1       2.338  -1.226  -2.703  0.00  0.00    -0.305 N 
ENDROOT
BRANCH   1   5
ATOM      2  C   UNL     1      -0.241   1.053   0.045  0.00  0.00    -0.010 C 
ATOM      3  C   UNL     1      -0.385  -0.456  -0.175  0.00  0.00    -0.072 C 
ATOM      4  C   UNL     1       0.239  -0.844  -1.512  0.00  0.00    +0.009 C 
ATOM      5  C   UNL     1       1.764  -0.819  -1.414  0.00  0.00    +0.073 C 
ATOM      6  C   UNL     1       2.190  -1.816  -0.336  0.00  0.00    +0.009 C 
ATOM      7  C   UNL     1       1.580  -1.435   1.009  0.00  0.00    -0.072 C 
ATOM      8  N   UNL     1       0.147  -1.207   0.948  0.00  0.00    +0.386 N 
ATOM      9  C   UNL     1       2.313  -0.220   1.586  0.00  0.00    -0.010 C 
ATOM     10  C   UNL     1       1.827  -2.615   1.978  0.00  0.00    -0.010 C 
ATOM     11  C   UNL     1      -1.899  -0.758  -0.268  0.00  0.00    -0.010 C 
ATOM     12  H   UNL     1      -0.141  -0.739   1.813  0.00  0.00    -0.084 HD
ATOM     13  H   UNL     1      -0.324  -2.117   0.976  0.00  0.00    -0.084 HD
ENDBRANCH   1   5
BRANCH   1  14
ATOM     14  C   UNL     1       2.070  -2.447  -3.204  0.00  0.00    +0.138 C 
ATOM     15  S   UNL     1       1.012  -3.502  -2.369  0.00  0.00    -0.018 S 
BRANCH  14  16
ATOM     16  N   UNL     1       2.635  -2.839  -4.364  0.00  0.00    -0.294 N 
ATOM     17  H   UNL     1       3.341  -3.504  -4.359  0.00  0.00    +0.154 HD
BRANCH  16  18
ATOM     18  C   UNL     1       2.202  -2.285  -5.576  0.00  0.00    +0.079 A 
ATOM     19  C   UNL     1       1.271  -1.256  -5.577  0.00  0.00    +0.027 A 
ATOM     20  C   UNL     1       0.843  -0.710  -6.772  0.00  0.00    +0.006 A 
ATOM     21  C   UNL     1       1.341  -1.186  -7.972  0.00  0.00    +0.049 A 
ATOM     22  C   UNL     1       2.272  -2.213  -7.980  0.00  0.00    +0.163 A 
ATOM     23  C   UNL     1       2.709  -2.763  -6.780  0.00  0.00    +0.183 A 
BRANCH  23  24
ATOM     24  O   UNL     1       3.626  -3.768  -6.784  0.00  0.00    -0.490 OA
ATOM     25  C   UNL     1       3.123  -5.105  -6.842  0.00  0.00    +0.277 C 
ENDBRANCH  23  24
BRANCH  22  26
ATOM     26  O   UNL     1       2.760  -2.680  -9.160  0.00  0.00    -0.491 OA
ATOM     27  C   UNL     1       2.271  -2.065 -10.354  0.00  0.00    +0.277 C 
ENDBRANCH  22  26
ENDBRANCH  16  18
ENDBRANCH  14  16
ENDBRANCH   1  14
BRANCH   1  28
ATOM     28  C   UNL     1       3.203  -0.304  -3.443  0.00  0.00    +0.145 C 
BRANCH  28  29
ATOM     29  C   UNL     1       4.594  -0.344  -2.864  0.00  0.00    +0.011 A 
ATOM     30  C   UNL     1       5.046   0.698  -2.078  0.00  0.00    +0.009 A 
ATOM     31  C   UNL     1       6.322   0.661  -1.547  0.00  0.00    +0.001 A 
ATOM     32  C   UNL     1       7.148  -0.418  -1.800  0.00  0.00    +0.004 A 
ATOM     33  C   UNL     1       6.701  -1.462  -2.585  0.00  0.00    +0.046 A 
ATOM     34  C   UNL     1       5.419  -1.431  -3.115  0.00  0.00    +0.125 A 
BRANCH  34  35
ATOM     35  O   UNL     1       4.974  -2.460  -3.883  0.00  0.00    -0.495 OA
ATOM     36  C   UNL     1       5.834  -3.594  -4.009  0.00  0.00    +0.277 C 
ENDBRANCH  34  35
ENDBRANCH  28  29
ENDBRANCH   1  28
TORSDOF 9
