REMARK  Name = ZINC64435504
REMARK  4 active torsions:
REMARK  status: ('A' for Active; 'I' for Inactive)
REMARK    1  A    between atoms: C_1  and  C_2
REMARK    2  A    between atoms: C_5  and  C_7
REMARK    3  A    between atoms: C_10  and  C_12
REMARK    4  A    between atoms: C_16  and  C_21
REMARK                            x       y       z     vdW  Elec       q    Type
REMARK                         _______ _______ _______ _____ _____    ______ ____
ROOT
ATOM      1  C   UNL     1       4.936  -5.164  -0.042  0.00  0.00    +0.199 C 
ATOM      2  N   UNL     1       5.019  -6.415  -0.841  0.00  0.00    -0.262 N 
ATOM      3  N   UNL     1       5.340  -6.240  -2.154  0.00  0.00    -0.218 N 
ATOM      4  C   UNL     1       5.214  -6.950  -3.335  0.00  0.00    +0.237 A 
ATOM      5  N   UNL     1       5.771  -6.256  -4.282  0.00  0.00    -0.124 NA
ATOM      6  N   UNL     1       6.229  -5.151  -3.809  0.00  0.00    -0.121 NA
ATOM      7  C   UNL     1       5.977  -5.088  -2.539  0.00  0.00    +0.211 A 
ATOM      8  S   UNL     1       6.085  -4.123  -1.044  0.00  0.00    -0.055 S 
ATOM      9  H   UNL     1       5.636  -7.084  -0.404  0.00  0.00    +0.168 HD
ENDROOT
BRANCH   1  13
ATOM     10  C   UNL     1       1.633  -3.176  -0.023  0.00  0.00    +0.111 C 
ATOM     11  N   UNL     1       1.311  -4.445  -0.034  0.00  0.00    -0.150 NA
ATOM     12  N   UNL     1       2.432  -5.269  -0.042  0.00  0.00    -0.155 NA
ATOM     13  C   UNL     1       3.539  -4.600  -0.036  0.00  0.00    +0.079 C 
ATOM     14  C   UNL     1       3.149  -3.136  -0.030  0.00  0.00    +0.116 C 
BRANCH  10  19
ATOM     15  C   UNL     1      -0.018   1.503   0.010  0.00  0.00    +0.086 C 
ATOM     16  C   UNL     1       0.002  -0.004   0.002  0.00  0.00    +0.103 A 
ATOM     17  C   UNL     1      -1.087  -0.803   0.003  0.00  0.00    +0.045 A 
ATOM     18  C   UNL     1      -0.629  -2.130  -0.007  0.00  0.00    +0.051 A 
ATOM     19  C   UNL     1       0.749  -2.069  -0.013  0.00  0.00    +0.151 A 
ATOM     20  O   UNL     1       1.104  -0.767  -0.013  0.00  0.00    -0.459 OA
ENDBRANCH  10  19
ENDBRANCH   1  13
BRANCH   4  21
ATOM     21  C   UNL     1       4.549  -8.293  -3.494  0.00  0.00    +0.384 C 
ATOM     22  F   UNL     1       4.907  -8.847  -4.728  0.00  0.00    -0.179 F 
ATOM     23  F   UNL     1       4.963  -9.144  -2.463  0.00  0.00    -0.179 F 
ATOM     24 CL   UNL     1       2.759  -8.090  -3.423  0.00  0.00    -0.039 Cl
ENDBRANCH   4  21
TORSDOF 3
