REMARK  Name = ZINC65305854
REMARK  14 active torsions:
REMARK  status: ('A' for Active; 'I' for Inactive)
REMARK    1  A    between atoms: C_1  and  C_2
REMARK    2  A    between atoms: C_2  and  C_3
REMARK    3  A    between atoms: C_2  and  C_4
REMARK    4  A    between atoms: C_4  and  C_5
REMARK    5  A    between atoms: C_5  and  C_7
REMARK    6  A    between atoms: C_5  and  N_19
REMARK    7  A    between atoms: N_9  and  C_10
REMARK    8  A    between atoms: C_20  and  C_22
REMARK    9  A    between atoms: C_24  and  O_32
REMARK   10  A    between atoms: C_25  and  O_30
REMARK   11  A    between atoms: C_26  and  O_28
REMARK   12  A    between atoms: O_28  and  C_29
REMARK   13  A    between atoms: O_30  and  C_31
REMARK   14  A    between atoms: O_32  and  C_33
REMARK                            x       y       z     vdW  Elec       q    Type
REMARK                         _______ _______ _______ _____ _____    ______ ____
ROOT
ATOM      1  C   UNL     1       2.187  -0.073  -1.207  0.00  0.00    +0.159 C 
ENDROOT
BRANCH   1   2
ATOM      2  C   UNL     1       2.863  -0.451  -2.500  0.00  0.00    +0.236 C 
ATOM      3  O   UNL     1       3.809  -1.211  -2.491  0.00  0.00    -0.274 OA
ATOM      4  N   UNL     1       2.417   0.055  -3.667  0.00  0.00    -0.277 N 
ATOM      5  H   UNL     1       1.661   0.663  -3.674  0.00  0.00    +0.152 HD
BRANCH   4   6
ATOM      6  C   UNL     1       3.074  -0.312  -4.924  0.00  0.00    +0.269 C 
ATOM      7  N   UNL     1       4.324   0.444  -5.079  0.00  0.00    -0.348 N 
ATOM      8  C   UNL     1       4.217   1.156  -6.163  0.00  0.00    +0.061 A 
ATOM      9  C   UNL     1       5.124   2.099  -6.832  0.00  0.00    +0.027 A 
ATOM     10  C   UNL     1       4.733   2.704  -7.971  0.00  0.00    +0.002 A 
ATOM     11  C   UNL     1       3.477   2.472  -8.560  0.00  0.00    +0.002 A 
ATOM     12  C   UNL     1       2.570   1.627  -8.029  0.00  0.00    +0.027 A 
ATOM     13  C   UNL     1       2.888   0.910  -6.786  0.00  0.00    +0.061 A 
ATOM     14  N   UNL     1       2.224   0.055  -6.063  0.00  0.00    -0.348 N 
ATOM     15  H   UNL     1       5.088   0.417  -4.482  0.00  0.00    +0.163 HD
ATOM     16  H   UNL     1       1.331  -0.278  -6.244  0.00  0.00    +0.163 HD
ENDBRANCH   4   6
ENDBRANCH   1   2
BRANCH   1  17
ATOM     17  N   UNL     1       2.854  -0.750  -0.092  0.00  0.00    -0.300 N 
ATOM     18  C   UNL     1       2.794  -0.224   1.148  0.00  0.00    +0.245 C 
ATOM     19  O   UNL     1       2.187   0.812   1.340  0.00  0.00    -0.270 OA
ATOM     20  H   UNL     1       3.338  -1.576  -0.245  0.00  0.00    +0.150 HD
BRANCH  18  21
ATOM     21  C   UNL     1       3.466  -0.906   2.272  0.00  0.00    +0.044 A 
ATOM     22  C   UNL     1       4.168  -2.093   2.051  0.00  0.00    +0.062 A 
ATOM     23  C   UNL     1       4.797  -2.729   3.105  0.00  0.00    +0.166 A 
ATOM     24  C   UNL     1       4.729  -2.188   4.386  0.00  0.00    +0.204 A 
ATOM     25  C   UNL     1       4.029  -1.005   4.609  0.00  0.00    +0.166 A 
ATOM     26  C   UNL     1       3.405  -0.362   3.557  0.00  0.00    +0.062 A 
BRANCH  25  27
ATOM     27  O   UNL     1       3.965  -0.480   5.862  0.00  0.00    -0.491 OA
ATOM     28  C   UNL     1       3.231   0.736   6.018  0.00  0.00    +0.277 C 
ENDBRANCH  25  27
BRANCH  24  29
ATOM     29  O   UNL     1       5.348  -2.816   5.421  0.00  0.00    -0.488 OA
ATOM     30  C   UNL     1       6.702  -2.446   5.688  0.00  0.00    +0.277 C 
ENDBRANCH  24  29
BRANCH  23  31
ATOM     31  O   UNL     1       5.481  -3.885   2.890  0.00  0.00    -0.491 OA
ATOM     32  C   UNL     1       5.508  -4.384   1.552  0.00  0.00    +0.277 C 
ENDBRANCH  23  31
ENDBRANCH  18  21
ENDBRANCH   1  17
BRANCH   1  33
ATOM     33  C   UNL     1       0.718  -0.497  -1.257  0.00  0.00    +0.034 C 
BRANCH  33  35
ATOM     34  C   UNL     1      -0.019   1.526   0.010  0.00  0.00    +0.007 C 
ATOM     35  C   UNL     1       0.002  -0.004   0.002  0.00  0.00    -0.015 C 
ATOM     36  C   UNL     1      -1.433  -0.534   0.013  0.00  0.00    +0.007 C 
ENDBRANCH  33  35
ENDBRANCH   1  33
TORSDOF 9
