REMARK  Name = ZINC39691152
REMARK  7 active torsions:
REMARK  status: ('A' for Active; 'I' for Inactive)
REMARK    1  A    between atoms: C_1  and  C_2
REMARK    2  A    between atoms: C_7  and  C_8
REMARK    3  A    between atoms: C_8  and  C_9
REMARK    4  A    between atoms: C_9  and  N_10
REMARK    5  A    between atoms: C_11  and  C_13
REMARK    6  A    between atoms: C_24  and  C_26
REMARK    7  A    between atoms: C_26  and  C_32
REMARK                            x       y       z     vdW  Elec       q    Type
REMARK                         _______ _______ _______ _____ _____    ______ ____
ROOT
ATOM      1  C   UNL     1      -2.574   2.292   6.030  0.00  0.00    +0.100 C 
ATOM      2  C   UNL     1      -2.119   1.357   7.172  0.00  0.00    +0.121 C 
ATOM      3  N   UNL     1      -2.962   1.740   8.329  0.00  0.00    -0.300 N 
ATOM      4  C   UNL     1      -4.300   1.994   7.741  0.00  0.00    +0.115 C 
ATOM      5  C   UNL     1      -4.006   2.707   6.406  0.00  0.00    -0.004 C 
ATOM      6  C   UNL     1      -4.989   2.246   5.335  0.00  0.00    -0.010 C 
ATOM      7  C   UNL     1      -6.398   2.721   5.702  0.00  0.00    -0.082 C 
ATOM      8  N   UNL     1      -6.410   4.185   5.809  0.00  0.00    +0.379 N 
ATOM      9  C   UNL     1      -5.533   4.615   6.904  0.00  0.00    -0.082 C 
ATOM     10  C   UNL     1      -4.087   4.220   6.587  0.00  0.00    -0.010 C 
ATOM     11  C   UNL     1      -2.597   1.836   9.622  0.00  0.00    +0.222 C 
ATOM     12  O   UNL     1      -3.428   2.083  10.471  0.00  0.00    -0.275 OA
ATOM     13  H   UNL     1      -6.086   4.587   4.942  0.00  0.00    -0.086 HD
ATOM     14  H   UNL     1      -7.352   4.500   5.990  0.00  0.00    -0.086 HD
ENDROOT
BRANCH  11  15
ATOM     15  C   UNL     1      -1.155   1.637  10.015  0.00  0.00    +0.044 C 
ATOM     16  C   UNL     1      -0.671   0.278   9.504  0.00  0.00    +0.016 C 
ATOM     17  C   UNL     1      -1.525  -0.832  10.119  0.00  0.00    +0.001 C 
ATOM     18  C   UNL     1      -1.401  -0.786  11.643  0.00  0.00    +0.000 C 
ATOM     19  C   UNL     1      -1.885   0.573  12.154  0.00  0.00    +0.001 C 
ATOM     20  C   UNL     1      -1.031   1.683  11.539  0.00  0.00    +0.016 C 
ATOM     21  C   UNL     1      -0.301   2.747   9.399  0.00  0.00    +0.021 C 
ENDBRANCH  11  15
BRANCH   1  23
ATOM     22  N   UNL     1      -2.523   2.243   3.557  0.00  0.00    -0.315 N 
ATOM     23  C   UNL     1      -2.570   1.555   4.715  0.00  0.00    +0.218 C 
ATOM     24  O   UNL     1      -2.609   0.343   4.699  0.00  0.00    -0.275 OA
ATOM     25  H   UNL     1      -2.492   3.212   3.570  0.00  0.00    +0.149 HD
BRANCH  22  26
ATOM     26  C   UNL     1      -2.519   1.527   2.279  0.00  0.00    +0.109 C 
BRANCH  26  27
ATOM     27  C   UNL     1      -2.462   2.535   1.130  0.00  0.00    +0.054 C 
BRANCH  27  34
ATOM     28  C   UNL     1      -4.957   1.719  -0.077  0.00  0.00    +0.044 C 
ATOM     29  C   UNL     1      -3.651   1.407  -0.762  0.00  0.00    -0.047 A 
ATOM     30  C   UNL     1      -3.648   0.737  -1.971  0.00  0.00    +0.003 A 
ATOM     31  C   UNL     1      -2.451   0.451  -2.599  0.00  0.00    +0.000 A 
ATOM     32  C   UNL     1      -1.256   0.837  -2.019  0.00  0.00    +0.000 A 
ATOM     33  C   UNL     1      -1.260   1.508  -0.811  0.00  0.00    +0.004 A 
ATOM     34  C   UNL     1      -2.458   1.798  -0.185  0.00  0.00    -0.043 A 
ENDBRANCH  27  34
ENDBRANCH  26  27
ENDBRANCH  22  26
ENDBRANCH   1  23
TORSDOF 5
