REMARK  Name = ZINC13145850
REMARK  9 active torsions:
REMARK  status: ('A' for Active; 'I' for Inactive)
REMARK    1  A    between atoms: C_1  and  C_2
REMARK    2  A    between atoms: C_2  and  C_3
REMARK    3  A    between atoms: C_3  and  N_4
REMARK    4  A    between atoms: C_8  and  N_9
REMARK    5  A    between atoms: N_9  and  N_10
REMARK    6  A    between atoms: N_10  and  C_11
REMARK    7  A    between atoms: C_14  and  S_17
REMARK    8  A    between atoms: S_17  and  C_20
REMARK    9  A    between atoms: C_23  and  C_26
REMARK                            x       y       z     vdW  Elec       q    Type
REMARK                         _______ _______ _______ _____ _____    ______ ____
ROOT
ATOM      1  N   UNL     1      -2.426   1.038   0.047  0.00  0.00    -0.267 N 
ATOM      2  H   UNL     1      -2.416   0.068   0.027  0.00  0.00    +0.170 HD
ENDROOT
BRANCH   1   3
ATOM      3  C   UNL     1      -1.223   1.748   0.070  0.00  0.00    +0.044 A 
ATOM      4  C   UNL     1      -0.013   1.067   0.064  0.00  0.00    +0.026 A 
ATOM      5  C   UNL     1       1.175   1.773   0.082  0.00  0.00    +0.029 A 
ATOM      6  C   UNL     1       1.159   3.155   0.110  0.00  0.00    +0.094 A 
ATOM      7  C   UNL     1      -0.045   3.836   0.122  0.00  0.00    +0.029 A 
ATOM      8  C   UNL     1      -1.235   3.137   0.105  0.00  0.00    +0.026 A 
BRANCH   6   9
ATOM      9  S   UNL     1       2.676   4.051   0.133  0.00  0.00    +0.025 S 
ATOM     10  O   UNL     1       2.391   5.318   0.709  0.00  0.00    -0.164 OA
ATOM     11  O   UNL     1       3.658   3.174   0.668  0.00  0.00    -0.164 OA
BRANCH   9  12
ATOM     12  C   UNL     1       3.129   4.351  -1.544  0.00  0.00    +0.094 A 
ATOM     13  C   UNL     1       3.920   3.441  -2.219  0.00  0.00    +0.027 A 
ATOM     14  C   UNL     1       4.271   3.674  -3.536  0.00  0.00    +0.005 A 
ATOM     15  C   UNL     1       3.840   4.822  -4.173  0.00  0.00    -0.050 A 
ATOM     16  C   UNL     1       3.052   5.735  -3.496  0.00  0.00    +0.005 A 
ATOM     17  C   UNL     1       2.697   5.499  -2.181  0.00  0.00    +0.027 A 
ATOM     18  C   UNL     1       4.227   5.079  -5.607  0.00  0.00    +0.044 C 
ENDBRANCH   9  12
ENDBRANCH   6   9
ENDBRANCH   1   3
BRANCH   1  19
ATOM     19  N   UNL     1      -3.646   1.726   0.054  0.00  0.00    -0.273 N 
ATOM     20  H   UNL     1      -3.656   2.696   0.074  0.00  0.00    +0.169 HD
BRANCH  19  25
ATOM     21  N   UNL     1      -7.277   3.775   0.272  0.00  0.00    -0.249 N 
ATOM     22  C   UNL     1      -6.068   3.186   0.163  0.00  0.00    +0.258 C 
ATOM     23  O   UNL     1      -5.054   3.853   0.076  0.00  0.00    -0.269 OA
ATOM     24  C   UNL     1      -6.009   1.714   0.145  0.00  0.00    +0.114 C 
ATOM     25  C   UNL     1      -4.807   1.041   0.031  0.00  0.00    +0.106 C 
ATOM     26  C   UNL     1      -7.288   0.990   0.260  0.00  0.00    +0.256 C 
ATOM     27  O   UNL     1      -7.320  -0.227   0.258  0.00  0.00    -0.270 OA
ATOM     28  N   UNL     1      -8.422   1.712   0.368  0.00  0.00    -0.263 N 
ATOM     29  C   UNL     1      -8.401   3.052   0.373  0.00  0.00    +0.146 C 
ATOM     30  S   UNL     1      -9.890   3.885   0.514  0.00  0.00    -0.018 S 
ATOM     31  H   UNL     1      -9.272   1.251   0.445  0.00  0.00    +0.157 HD
BRANCH  21  32
ATOM     32  C   UNL     1      -7.362   5.237   0.286  0.00  0.00    +0.115 C 
BRANCH  32  34
ATOM     33  C   UNL     1      -7.348   7.268   1.742  0.00  0.00    +0.005 C 
ATOM     34  C   UNL     1      -7.259   5.740   1.727  0.00  0.00    +0.016 C 
ENDBRANCH  32  34
ENDBRANCH  21  32
ENDBRANCH  19  25
ENDBRANCH   1  19
TORSDOF 7
