REMARK  Name = ZINC40163679
REMARK  6 active torsions:
REMARK  status: ('A' for Active; 'I' for Inactive)
REMARK    1  A    between atoms: C_1  and  C_2
REMARK    2  A    between atoms: C_2  and  C_3
REMARK    3  A    between atoms: C_2  and  C_4
REMARK    4  A    between atoms: C_2  and  C_5
REMARK    5  A    between atoms: C_14  and  N_20
REMARK    6  A    between atoms: C_16  and  C_18
REMARK                            x       y       z     vdW  Elec       q    Type
REMARK                         _______ _______ _______ _____ _____    ______ ____
ROOT
ATOM      1  C   UNL     1       0.406  -0.146  -1.884  0.00  0.00    -0.000 C 
ATOM      2  C   UNL     1       0.445  -1.667  -1.705  0.00  0.00    +0.009 C 
ATOM      3  C   UNL     1       1.052  -2.319  -2.947  0.00  0.00    +0.037 C 
ATOM      4  C   UNL     1       2.397  -1.661  -3.245  0.00  0.00    -0.025 A 
ATOM      5  C   UNL     1       2.701  -0.452  -2.722  0.00  0.00    -0.004 A 
ATOM      6  S   UNL     1       4.330  -0.079  -3.321  0.00  0.00    -0.073 S 
ATOM      7  C   UNL     1       4.604  -1.542  -4.268  0.00  0.00    +0.114 A 
ATOM      8  C   UNL     1       3.407  -2.280  -4.087  0.00  0.00    +0.051 A 
ATOM      9  C   UNL     1       3.324  -3.541  -4.746  0.00  0.00    +0.128 A 
ATOM     10  N   UNL     1       4.388  -3.891  -5.465  0.00  0.00    -0.216 NA
ATOM     11  C   UNL     1       5.471  -3.149  -5.587  0.00  0.00    +0.147 A 
ATOM     12  N   UNL     1       5.613  -1.966  -5.001  0.00  0.00    -0.224 NA
ATOM     13  C   UNL     1       1.842   0.395  -1.833  0.00  0.00    +0.046 C 
ENDROOT
BRANCH   1  15
ATOM     14  C   UNL     1      -0.450   2.002  -0.937  0.00  0.00    +0.011 C 
ATOM     15  C   UNL     1      -0.420   0.482  -0.760  0.00  0.00    -0.035 C 
ATOM     16  C   UNL     1       0.212   0.138   0.591  0.00  0.00    +0.011 C 
ATOM     17  C   UNL     1      -1.847  -0.066  -0.809  0.00  0.00    +0.011 C 
ENDBRANCH   1  15
BRANCH   9  18
ATOM     18  N   UNL     1       2.207  -4.350  -4.644  0.00  0.00    -0.343 N 
ATOM     19  H   UNL     1       1.369  -3.982  -4.323  0.00  0.00    +0.144 HD
ATOM     20  H   UNL     1       2.261  -5.286  -4.894  0.00  0.00    +0.144 HD
ENDBRANCH   9  18
BRANCH  11  21
ATOM     21  C   UNL     1       6.603  -3.670  -6.434  0.00  0.00    +0.184 C 
ATOM     22 CL   UNL     1       6.382  -3.120  -8.137  0.00  0.00    -0.117 Cl
ENDBRANCH  11  21
TORSDOF 3
