REMARK  Name = ZINC46900795
REMARK  8 active torsions:
REMARK  status: ('A' for Active; 'I' for Inactive)
REMARK    1  A    between atoms: C_1  and  C_2
REMARK    2  A    between atoms: C_5  and  S_9
REMARK    3  A    between atoms: C_6  and  C_8
REMARK    4  A    between atoms: S_9  and  N_12
REMARK    5  A    between atoms: C_18  and  C_20
REMARK    6  A    between atoms: N_28  and  C_29
REMARK    7  A    between atoms: C_29  and  C_30
REMARK    8  A    between atoms: C_29  and  C_31
REMARK                            x       y       z     vdW  Elec       q    Type
REMARK                         _______ _______ _______ _____ _____    ______ ____
ROOT
ATOM      1  N   UNL     1       1.596  -5.649   0.339  0.00  0.00    -0.174 NA
ATOM      2  C   UNL     1       2.733  -5.510  -0.582  0.00  0.00    +0.128 C 
ATOM      3  C   UNL     1       3.703  -4.469  -0.009  0.00  0.00    +0.125 C 
ATOM      4  N   UNL     1       3.968  -4.800   1.399  0.00  0.00    -0.299 N 
ATOM      5  C   UNL     1       2.831  -4.939   2.319  0.00  0.00    +0.125 C 
ATOM      6  C   UNL     1       1.861  -5.973   1.747  0.00  0.00    +0.128 C 
ATOM      7  C   UNL     1       5.231  -4.972   1.837  0.00  0.00    +0.219 C 
ATOM      8  O   UNL     1       6.157  -4.920   1.055  0.00  0.00    -0.275 OA
ENDROOT
BRANCH   7   9
ATOM      9  C   UNL     1       5.492  -5.230   3.299  0.00  0.00    +0.078 C 
ATOM     10  C   UNL     1       5.106  -3.992   4.112  0.00  0.00    +0.032 C 
ATOM     11  C   UNL     1       5.340  -4.270   5.600  0.00  0.00    +0.110 C 
ATOM     12  N   UNL     1       6.731  -4.704   5.786  0.00  0.00    -0.286 N 
ATOM     13  C   UNL     1       7.234  -5.829   4.986  0.00  0.00    +0.110 C 
ATOM     14  C   UNL     1       6.978  -5.534   3.505  0.00  0.00    +0.032 C 
ATOM     15  C   UNL     1       7.532  -4.081   6.674  0.00  0.00    +0.302 C 
ATOM     16  O   UNL     1       7.080  -3.213   7.396  0.00  0.00    -0.253 OA
ATOM     17  N   UNL     1       8.833  -4.421   6.762  0.00  0.00    -0.297 N 
ATOM     18  H   UNL     1       9.211  -5.060   6.138  0.00  0.00    +0.150 HD
BRANCH  17  19
ATOM     19  C   UNL     1       9.677  -3.825   7.801  0.00  0.00    +0.068 C 
ATOM     20  C   UNL     1      10.849  -4.760   8.104  0.00  0.00    +0.027 C 
ATOM     21  C   UNL     1      10.213  -2.478   7.311  0.00  0.00    +0.027 C 
ENDBRANCH  17  19
ENDBRANCH   7   9
BRANCH   1  22
ATOM     22  S   UNL     1       0.044  -5.437  -0.200  0.00  0.00    +0.061 S 
ATOM     23  O   UNL     1      -0.806  -6.055   0.756  0.00  0.00    -0.153 OA
ATOM     24  O   UNL     1       0.038  -5.801  -1.574  0.00  0.00    -0.153 OA
BRANCH  22  29
ATOM     25  C   UNL     1      -1.131   0.477   0.021  0.00  0.00    +0.044 C 
ATOM     26  C   UNL     1      -0.838  -1.000  -0.034  0.00  0.00    -0.050 A 
ATOM     27  C   UNL     1      -0.708  -1.634  -1.256  0.00  0.00    +0.005 A 
ATOM     28  C   UNL     1      -0.438  -2.988  -1.307  0.00  0.00    +0.029 A 
ATOM     29  C   UNL     1      -0.298  -3.709  -0.136  0.00  0.00    +0.108 A 
ATOM     30  C   UNL     1      -0.427  -3.076   1.086  0.00  0.00    -0.024 A 
ATOM     31  C   UNL     1      -0.692  -1.720   1.136  0.00  0.00    +0.008 A 
ATOM     32  C   UNL     1      -0.275  -3.862   2.362  0.00  0.00    +0.046 C 
ENDBRANCH  22  29
ENDBRANCH   1  22
TORSDOF 4
