REMARK  Name = ZINC40779770
REMARK  3 active torsions:
REMARK  status: ('A' for Active; 'I' for Inactive)
REMARK    1  A    between atoms: C_1  and  C_2
REMARK    2  A    between atoms: C_13  and  N_26
REMARK    3  A    between atoms: C_14  and  N_18
REMARK                            x       y       z     vdW  Elec       q    Type
REMARK                         _______ _______ _______ _____ _____    ______ ____
ROOT
ATOM      1  C   UNL     1      -0.056   1.502   0.013  0.00  0.00    +0.044 C 
ATOM      2  C   UNL     1      -0.031  -0.004   0.005  0.00  0.00    -0.049 A 
ATOM      3  C   UNL     1      -0.022  -0.698  -1.197  0.00  0.00    +0.005 A 
ATOM      4  C   UNL     1       0.000  -2.068  -1.232  0.00  0.00    +0.029 A 
ATOM      5  C   UNL     1       0.016  -2.822  -0.036  0.00  0.00    +0.080 A 
ATOM      6  C   UNL     1       0.006  -2.082   1.168  0.00  0.00    +0.041 A 
ATOM      7  C   UNL     1      -0.011  -0.710   1.194  0.00  0.00    +0.020 A 
ATOM      8  S   UNL     1       0.031  -3.362   2.400  0.00  0.00    -0.052 S 
ATOM      9  C   UNL     1       0.052  -4.753   1.278  0.00  0.00    +0.165 A 
ATOM     10  N   UNL     1       0.039  -4.165   0.103  0.00  0.00    -0.225 NA
ATOM     11  N   UNL     1       0.075  -6.103   1.571  0.00  0.00    -0.277 N 
ATOM     12  C   UNL     1       0.089  -7.039   0.542  0.00  0.00    +0.150 A 
ATOM     13  C   UNL     1       0.107  -8.406   0.826  0.00  0.00    +0.106 A 
ATOM     14  C   UNL     1       0.119  -9.302  -0.245  0.00  0.00    +0.150 A 
ATOM     15  N   UNL     1       0.113  -8.822  -1.486  0.00  0.00    -0.219 NA
ATOM     16  C   UNL     1       0.096  -7.524  -1.711  0.00  0.00    +0.225 A 
ATOM     17  N   UNL     1       0.079  -6.645  -0.729  0.00  0.00    -0.219 NA
ATOM     18  H   UNL     1       0.083  -6.398   2.495  0.00  0.00    +0.156 HD
ENDROOT
BRANCH  14  19
ATOM     19  N   UNL     1       0.138 -10.674  -0.018  0.00  0.00    -0.283 N 
ATOM     20  C   UNL     1       0.040 -11.558  -1.088  0.00  0.00    +0.124 A 
ATOM     21  C   UNL     1      -0.050 -12.925  -0.847  0.00  0.00    +0.045 A 
ATOM     22  C   UNL     1      -0.147 -13.793  -1.919  0.00  0.00    +0.020 A 
ATOM     23  C   UNL     1      -0.151 -13.261  -3.203  0.00  0.00    +0.036 A 
ATOM     24  C   UNL     1      -0.059 -11.893  -3.369  0.00  0.00    +0.128 A 
ATOM     25  N   UNL     1       0.027 -11.090  -2.326  0.00  0.00    -0.239 NA
ATOM     26 BR   UNL     1      -0.281 -14.400  -4.708  0.00  0.00    -0.049 Br
ATOM     27  H   UNL     1       0.219 -11.014   0.887  0.00  0.00    +0.155 HD
ENDBRANCH  14  19
BRANCH  13  28
ATOM     28  N   UNL     1       0.113  -8.866   2.151  0.00  0.00    -0.353 N 
ATOM     29  H   UNL     1       0.104  -8.232   2.885  0.00  0.00    +0.143 HD
ATOM     30  H   UNL     1       0.125  -9.819   2.334  0.00  0.00    +0.143 HD
ENDBRANCH  13  28
TORSDOF 2
