REMARK  Name = ZINC08718279
REMARK  4 active torsions:
REMARK  status: ('A' for Active; 'I' for Inactive)
REMARK    1  A    between atoms: C_1  and  C_2
REMARK    2  A    between atoms: C_5  and  C_26
REMARK    3  A    between atoms: C_6  and  C_8
REMARK    4  A    between atoms: C_8  and  N_9
REMARK                            x       y       z     vdW  Elec       q    Type
REMARK                         _______ _______ _______ _____ _____    ______ ____
ROOT
ATOM      1  N   UNL     1      -4.489   3.892   2.179  0.00  0.00    -0.220 N 
ATOM      2  C   UNL     1      -4.632   4.503   0.978  0.00  0.00    +0.251 C 
ATOM      3  O   UNL     1      -4.640   3.937  -0.093  0.00  0.00    -0.272 OA
ATOM      4  C   UNL     1      -4.768   5.967   1.282  0.00  0.00    +0.138 C 
ATOM      5  C   UNL     1      -6.040   6.577   0.707  0.00  0.00    +0.040 C 
ATOM      6  C   UNL     1      -6.261   6.197  -0.743  0.00  0.00    +0.003 C 
ATOM      7  C   UNL     1      -5.299   6.853  -1.713  0.00  0.00    +0.005 C 
ATOM      8  C   UNL     1      -3.906   6.235  -1.603  0.00  0.00    +0.035 C 
ATOM      9  C   UNL     1      -3.164   6.883  -0.454  0.00  0.00    -0.042 A 
ATOM     10  C   UNL     1      -3.555   6.756   0.848  0.00  0.00    -0.012 A 
ATOM     11  C   UNL     1      -2.813   7.375   1.851  0.00  0.00    +0.006 A 
ATOM     12  C   UNL     1      -1.693   8.117   1.535  0.00  0.00    +0.000 A 
ATOM     13  C   UNL     1      -1.303   8.248   0.216  0.00  0.00    +0.000 A 
ATOM     14  C   UNL     1      -2.038   7.633  -0.777  0.00  0.00    +0.004 A 
ATOM     15  N   UNL     1      -4.851   6.011   2.758  0.00  0.00    -0.281 N 
ATOM     16  C   UNL     1      -4.637   4.755   3.188  0.00  0.00    +0.310 C 
ATOM     17  O   UNL     1      -4.585   4.441   4.362  0.00  0.00    -0.252 OA
ATOM     18  H   UNL     1      -5.029   6.797   3.293  0.00  0.00    +0.152 HD
ENDROOT
BRANCH   1  19
ATOM     19  C   UNL     1      -4.220   2.462   2.343  0.00  0.00    +0.153 C 
BRANCH  19  25
ATOM     20  C   UNL     1      -0.013   1.086   0.008  0.00  0.00    +0.044 C 
ATOM     21  C   UNL     1      -0.718   1.572   1.248  0.00  0.00    -0.050 A 
ATOM     22  C   UNL     1       0.001   1.806   2.405  0.00  0.00    +0.003 A 
ATOM     23  C   UNL     1      -0.646   2.252   3.542  0.00  0.00    +0.004 A 
ATOM     24  C   UNL     1      -2.012   2.464   3.522  0.00  0.00    -0.046 A 
ATOM     25  C   UNL     1      -2.731   2.230   2.365  0.00  0.00    -0.026 A 
ATOM     26  C   UNL     1      -2.083   1.789   1.226  0.00  0.00    +0.008 A 
ATOM     27  C   UNL     1      -2.717   2.950   4.762  0.00  0.00    +0.044 C 
ENDBRANCH  19  25
ENDBRANCH   1  19
TORSDOF 2
