REMARK  Name = ZINC24536478
REMARK  6 active torsions:
REMARK  status: ('A' for Active; 'I' for Inactive)
REMARK    1  A    between atoms: C_7  and  N_12
REMARK    2  A    between atoms: C_13  and  C_15
REMARK    3  A    between atoms: C_15  and  O_16
REMARK    4  A    between atoms: O_16  and  C_17
REMARK    5  A    between atoms: C_17  and  C_19
REMARK    6  A    between atoms: C_24  and  N_25
REMARK                            x       y       z     vdW  Elec       q    Type
REMARK                         _______ _______ _______ _____ _____    ______ ____
ROOT
ATOM      1  N   UNL     1      -4.843   1.436   0.142  0.00  0.00    -0.305 N 
ATOM      2  C   UNL     1      -3.604   1.967   0.125  0.00  0.00    +0.251 C 
ATOM      3  O   UNL     1      -3.460   3.171   0.144  0.00  0.00    -0.272 OA
ATOM      4  H   UNL     1      -4.973   0.344   0.124  0.00  0.00    +0.149 HD
ENDROOT
BRANCH   1  11
ATOM      5  C   UNL     1      -5.648   3.494  -3.376  0.00  0.00    +0.001 A 
ATOM      6  C   UNL     1      -6.962   3.540  -3.804  0.00  0.00    +0.004 A 
ATOM      7  C   UNL     1      -7.980   3.185  -2.943  0.00  0.00    +0.046 A 
ATOM      8  C   UNL     1      -7.689   2.782  -1.643  0.00  0.00    +0.125 A 
ATOM      9  C   UNL     1      -6.374   2.740  -1.217  0.00  0.00    +0.014 A 
ATOM     10  C   UNL     1      -5.356   3.095  -2.086  0.00  0.00    +0.009 A 
ATOM     11  C   UNL     1      -6.015   2.313   0.184  0.00  0.00    +0.110 C 
ATOM     12  C   UNL     1      -7.192   1.561   0.811  0.00  0.00    +0.068 C 
ATOM     13  C   UNL     1      -8.467   2.381   0.578  0.00  0.00    +0.231 C 
ATOM     14  O   UNL     1      -8.718   2.433  -0.827  0.00  0.00    -0.492 OA
ENDBRANCH   1  11
BRANCH   2  15
ATOM     15  C   UNL     1      -2.398   1.065   0.081  0.00  0.00    +0.328 C 
BRANCH  15  16
ATOM     16  O   UNL     1      -1.190   1.871   0.070  0.00  0.00    -0.452 OA
BRANCH  16  17
ATOM     17  C   UNL     1      -0.015   1.213   0.032  0.00  0.00    +0.341 C 
ATOM     18  O   UNL     1       0.000  -0.002   0.008  0.00  0.00    -0.245 OA
BRANCH  17  19
ATOM     19  C   UNL     1       1.251   1.966   0.012  0.00  0.00    +0.081 A 
ATOM     20  C   UNL     1       1.238   3.360  -0.086  0.00  0.00    +0.017 A 
ATOM     21  C   UNL     1       2.425   4.059  -0.104  0.00  0.00    +0.002 A 
ATOM     22  C   UNL     1       3.635   3.387  -0.025  0.00  0.00    +0.022 A 
ATOM     23  C   UNL     1       3.665   2.010   0.071  0.00  0.00    +0.062 A 
ATOM     24  C   UNL     1       2.477   1.288   0.097  0.00  0.00    +0.057 A 
ATOM     25 CL   UNL     1       5.187   1.181   0.169  0.00  0.00    -0.082 Cl
BRANCH  24  26
ATOM     26  N   UNL     1       2.504  -0.097   0.201  0.00  0.00    -0.356 N 
ATOM     27  H   UNL     1       3.466  -0.625   0.267  0.00  0.00    +0.142 HD
ATOM     28  H   UNL     1       1.562  -0.666   0.217  0.00  0.00    +0.142 HD
ENDBRANCH  24  26
ENDBRANCH  17  19
ENDBRANCH  16  17
ENDBRANCH  15  16
ENDBRANCH   2  15
TORSDOF 6
