REMARK  Name = ZINC24917631
REMARK  6 active torsions:
REMARK  status: ('A' for Active; 'I' for Inactive)
REMARK    1  A    between atoms: C_3  and  S_21
REMARK    2  A    between atoms: C_6  and  C_7
REMARK    3  A    between atoms: C_7  and  O_9
REMARK    4  A    between atoms: O_9  and  C_10
REMARK    5  A    between atoms: C_10  and  C_11
REMARK    6  A    between atoms: S_21  and  N_24
REMARK                            x       y       z     vdW  Elec       q    Type
REMARK                         _______ _______ _______ _____ _____    ______ ____
ROOT
ATOM      1  C   UNL     1       4.060   0.159  -1.581  0.00  0.00    +0.339 C 
ATOM      2  O   UNL     1       4.714  -0.209  -0.626  0.00  0.00    -0.245 OA
ENDROOT
BRANCH   1   8
ATOM      3  C   UNL     1       3.787   0.306  -4.053  0.00  0.00    +0.017 A 
ATOM      4  C   UNL     1       4.243   0.056  -5.330  0.00  0.00    +0.029 A 
ATOM      5  C   UNL     1       5.437  -0.616  -5.523  0.00  0.00    +0.105 A 
ATOM      6  C   UNL     1       6.184  -1.037  -4.437  0.00  0.00    +0.029 A 
ATOM      7  C   UNL     1       5.743  -0.788  -3.154  0.00  0.00    +0.017 A 
ATOM      8  C   UNL     1       4.539  -0.111  -2.953  0.00  0.00    +0.059 A 
BRANCH   5   9
ATOM      9  S   UNL     1       6.008  -0.938  -7.159  0.00  0.00    +0.056 S 
ATOM     10  O   UNL     1       5.403   0.035  -7.999  0.00  0.00    -0.153 OA
ATOM     11  O   UNL     1       7.418  -1.099  -7.072  0.00  0.00    -0.153 OA
BRANCH   9  12
ATOM     12  N   UNL     1       5.391  -2.406  -7.613  0.00  0.00    -0.204 NA
ATOM     13  H   UNL     1       5.726  -2.644  -8.633  0.00  0.00    +0.144 HD
ATOM     14  H   UNL     1       4.292  -2.365  -7.588  0.00  0.00    +0.144 HD
ENDBRANCH   9  12
ENDBRANCH   5   9
ENDBRANCH   1   8
BRANCH   1  15
ATOM     15  O   UNL     1       2.898   0.813  -1.390  0.00  0.00    -0.456 OA
BRANCH  15  16
ATOM     16  C   UNL     1       2.489   1.043  -0.016  0.00  0.00    +0.268 C 
BRANCH  16  17
ATOM     17  C   UNL     1       1.176   1.782   0.000  0.00  0.00    -0.005 A 
ATOM     18  C   UNL     1       1.162   3.164   0.007  0.00  0.00    +0.056 A 
ATOM     19  C   UNL     1      -0.044   3.846   0.023  0.00  0.00    +0.168 A 
ATOM     20  C   UNL     1      -1.241   3.136   0.031  0.00  0.00    +0.184 A 
ATOM     21  C   UNL     1      -1.221   1.750   0.017  0.00  0.00    +0.087 A 
ATOM     22  C   UNL     1      -0.013   1.076   0.008  0.00  0.00    +0.031 A 
ATOM     23 CL   UNL     1      -2.711   0.860   0.019  0.00  0.00    -0.080 Cl
ATOM     24  O   UNL     1      -2.277   4.026   0.046  0.00  0.00    -0.451 OA
ATOM     25  C   UNL     1      -1.708   5.283  -0.365  0.00  0.00    +0.466 C 
ATOM     26  O   UNL     1      -0.328   5.181   0.033  0.00  0.00    -0.453 OA
ENDBRANCH  16  17
ENDBRANCH  15  16
ENDBRANCH   1  15
TORSDOF 6
