REMARK  Name = ZINC39634427
REMARK  10 active torsions:
REMARK  status: ('A' for Active; 'I' for Inactive)
REMARK    1  A    between atoms: C_1  and  C_2
REMARK    2  A    between atoms: C_5  and  C_8
REMARK    3  A    between atoms: C_8  and  N_9
REMARK    4  A    between atoms: C_10  and  C_12
REMARK    5  A    between atoms: C_23  and  C_25
REMARK    6  A    between atoms: C_25  and  C_27
REMARK    7  A    between atoms: C_25  and  O_30
REMARK    8  A    between atoms: C_27  and  C_28
REMARK    9  A    between atoms: C_27  and  C_29
REMARK   10  A    between atoms: O_30  and  C_31
REMARK                            x       y       z     vdW  Elec       q    Type
REMARK                         _______ _______ _______ _____ _____    ______ ____
ROOT
ATOM      1  C   UNL     1       3.541  -6.752   0.457  0.00  0.00    +0.100 C 
ATOM      2  C   UNL     1       4.046  -6.148  -0.873  0.00  0.00    +0.121 C 
ATOM      3  N   UNL     1       4.571  -7.306  -1.634  0.00  0.00    -0.297 N 
ATOM      4  C   UNL     1       3.609  -8.399  -1.354  0.00  0.00    +0.115 C 
ATOM      5  C   UNL     1       3.255  -8.229   0.137  0.00  0.00    -0.004 C 
ATOM      6  C   UNL     1       1.780  -8.544   0.367  0.00  0.00    -0.010 C 
ATOM      7  C   UNL     1       1.532 -10.031   0.098  0.00  0.00    -0.082 C 
ATOM      8  N   UNL     1       2.371 -10.838   0.993  0.00  0.00    +0.379 N 
ATOM      9  C   UNL     1       3.789 -10.598   0.700  0.00  0.00    -0.082 C 
ATOM     10  C   UNL     1       4.133  -9.135   0.995  0.00  0.00    -0.010 C 
ATOM     11  C   UNL     1       5.675  -7.354  -2.406  0.00  0.00    +0.257 C 
ATOM     12  O   UNL     1       5.922  -8.353  -3.049  0.00  0.00    -0.272 OA
ATOM     13  H   UNL     1       2.179 -10.586   1.950  0.00  0.00    -0.086 HD
ATOM     14  H   UNL     1       2.161 -11.816   0.856  0.00  0.00    -0.086 HD
ENDROOT
BRANCH   1  16
ATOM     15  N   UNL     1       1.911  -6.099   2.199  0.00  0.00    -0.311 N 
ATOM     16  C   UNL     1       2.280  -6.059   0.903  0.00  0.00    +0.218 C 
ATOM     17  O   UNL     1       1.597  -5.463   0.097  0.00  0.00    -0.275 OA
ATOM     18  H   UNL     1       2.457  -6.575   2.844  0.00  0.00    +0.149 HD
BRANCH  15  19
ATOM     19  C   UNL     1       0.685  -5.425   2.633  0.00  0.00    +0.139 C 
BRANCH  19  24
ATOM     20  C   UNL     1      -0.020  -6.174   8.319  0.00  0.00    +0.044 C 
ATOM     21  C   UNL     1       0.164  -5.979   6.836  0.00  0.00    -0.050 A 
ATOM     22  C   UNL     1       0.874  -4.890   6.365  0.00  0.00    +0.003 A 
ATOM     23  C   UNL     1       1.042  -4.711   5.005  0.00  0.00    +0.005 A 
ATOM     24  C   UNL     1       0.502  -5.621   4.116  0.00  0.00    -0.030 A 
ATOM     25  C   UNL     1      -0.206  -6.710   4.587  0.00  0.00    +0.005 A 
ATOM     26  C   UNL     1      -0.372  -6.892   5.947  0.00  0.00    +0.003 A 
ENDBRANCH  19  24
ENDBRANCH  15  19
ENDBRANCH   1  16
BRANCH  11  27
ATOM     27  C   UNL     1       6.601  -6.168  -2.472  0.00  0.00    +0.261 C 
BRANCH  27  28
ATOM     28  C   UNL     1       7.641  -6.270  -1.355  0.00  0.00    +0.033 C 
ATOM     29  C   UNL     1       8.662  -5.140  -1.503  0.00  0.00    +0.011 C 
ATOM     30  C   UNL     1       6.944  -6.152   0.002  0.00  0.00    +0.011 C 
ENDBRANCH  27  28
BRANCH  27  31
ATOM     31  O   UNL     1       7.263  -6.150  -3.739  0.00  0.00    -0.479 OA
BRANCH  31  32
ATOM     32  C   UNL     1       7.513  -4.931  -4.287  0.00  0.00    +0.122 A 
ATOM     33  C   UNL     1       8.165  -4.840  -5.508  0.00  0.00    +0.045 A 
ATOM     34  C   UNL     1       8.418  -3.600  -6.064  0.00  0.00    +0.004 A 
ATOM     35  C   UNL     1       8.022  -2.452  -5.403  0.00  0.00    +0.000 A 
ATOM     36  C   UNL     1       7.372  -2.541  -4.186  0.00  0.00    +0.004 A 
ATOM     37  C   UNL     1       7.112  -3.778  -3.629  0.00  0.00    +0.045 A 
ENDBRANCH  31  32
ENDBRANCH  27  31
ENDBRANCH  11  27
TORSDOF 7
