REMARK  Name = ZINC39716334
REMARK  8 active torsions:
REMARK  status: ('A' for Active; 'I' for Inactive)
REMARK    1  A    between atoms: C_1  and  C_2
REMARK    2  A    between atoms: C_7  and  N_29
REMARK    3  A    between atoms: C_8  and  C_13
REMARK    4  A    between atoms: N_17  and  C_21
REMARK    5  A    between atoms: C_21  and  C_22
REMARK    6  A    between atoms: C_22  and  C_23
REMARK    7  A    between atoms: C_31  and  C_38
REMARK    8  A    between atoms: C_34  and  C_37
REMARK                            x       y       z     vdW  Elec       q    Type
REMARK                         _______ _______ _______ _____ _____    ______ ____
ROOT
ATOM      1  C   UNL     1      -0.212   1.526   0.018  0.00  0.00    +0.045 C 
ATOM      2  C   UNL     1      -0.217   0.019   0.023  0.00  0.00    -0.034 A 
ATOM      3  C   UNL     1      -0.533  -0.683  -1.148  0.00  0.00    +0.008 A 
ATOM      4  C   UNL     1      -0.535  -2.046  -1.135  0.00  0.00    +0.047 A 
ATOM      5  C   UNL     1      -0.220  -2.729   0.054  0.00  0.00    +0.142 A 
ATOM      6  N   UNL     1      -0.224  -4.062   0.057  0.00  0.00    -0.214 NA
ATOM      7  C   UNL     1       0.065  -4.755   1.149  0.00  0.00    +0.136 A 
ATOM      8  C   UNL     1       0.387  -4.072   2.345  0.00  0.00    +0.081 A 
ATOM      9  C   UNL     1       0.388  -2.656   2.330  0.00  0.00    +0.267 A 
ATOM     10  O   UNL     1       0.659  -2.026   3.337  0.00  0.00    -0.267 OA
ATOM     11  N   UNL     1       0.084  -2.016   1.180  0.00  0.00    -0.267 N 
ATOM     12  C   UNL     1       0.088  -0.653   1.156  0.00  0.00    +0.099 A 
ENDROOT
BRANCH   8  13
ATOM     13  C   UNL     1       0.699  -4.785   3.526  0.00  0.00    +0.037 C 
ATOM     14  C   UNL     1      -0.128  -4.705   4.609  0.00  0.00    +0.077 C 
ATOM     15  C   UNL     1      -1.398  -4.075   4.735  0.00  0.00    +0.258 C 
ATOM     16  O   UNL     1      -1.906  -3.495   3.792  0.00  0.00    -0.269 OA
ATOM     17  N   UNL     1      -2.011  -4.137   5.904  0.00  0.00    -0.255 N 
ATOM     18  C   UNL     1      -1.448  -4.780   6.951  0.00  0.00    +0.121 C 
ATOM     19  S   UNL     1      -2.055  -4.984   8.539  0.00  0.00    -0.027 S 
ATOM     20  S   UNL     1       0.087  -5.371   6.254  0.00  0.00    -0.061 S 
BRANCH  17  21
ATOM     21  C   UNL     1      -3.320  -3.498   6.069  0.00  0.00    +0.119 C 
BRANCH  21  22
ATOM     22  C   UNL     1      -4.423  -4.500   5.721  0.00  0.00    +0.054 C 
BRANCH  22  23
ATOM     23  C   UNL     1      -5.769  -3.843   5.890  0.00  0.00    -0.046 A 
ATOM     24  C   UNL     1      -6.416  -3.897   7.110  0.00  0.00    +0.004 A 
ATOM     25  C   UNL     1      -7.650  -3.294   7.265  0.00  0.00    +0.000 A 
ATOM     26  C   UNL     1      -8.238  -2.638   6.200  0.00  0.00    +0.000 A 
ATOM     27  C   UNL     1      -7.590  -2.583   4.980  0.00  0.00    +0.000 A 
ATOM     28  C   UNL     1      -6.353  -3.182   4.826  0.00  0.00    +0.004 A 
ENDBRANCH  22  23
ENDBRANCH  21  22
ENDBRANCH  17  21
ENDBRANCH   8  13
BRANCH   7  29
ATOM     29  N   UNL     1       0.051  -6.133   1.119  0.00  0.00    -0.310 N 
ATOM     30  C   UNL     1      -0.483  -6.910   2.249  0.00  0.00    +0.138 C 
ATOM     31  C   UNL     1      -1.488  -7.929   1.702  0.00  0.00    +0.133 C 
ATOM     32  O   UNL     1      -0.874  -8.679   0.651  0.00  0.00    -0.371 OA
ATOM     33  C   UNL     1      -0.486  -7.893  -0.479  0.00  0.00    +0.133 C 
ATOM     34  C   UNL     1       0.566  -6.871  -0.045  0.00  0.00    +0.138 C 
ATOM     35  C   UNL     1      -1.708  -7.160  -1.036  0.00  0.00    +0.039 C 
ATOM     36  C   UNL     1      -1.916  -8.878   2.824  0.00  0.00    +0.039 C 
ENDBRANCH   7  29
TORSDOF 5
