REMARK  Name = ZINC01195845
REMARK  4 active torsions:
REMARK  status: ('A' for Active; 'I' for Inactive)
REMARK    1  A    between atoms: C_14  and  C_33
REMARK    2  A    between atoms: N_21  and  C_24
REMARK    3  A    between atoms: C_28  and  N_30
REMARK    4  A    between atoms: C_33  and  O_34
REMARK                            x       y       z     vdW  Elec       q    Type
REMARK                         _______ _______ _______ _____ _____    ______ ____
ROOT
ATOM      1  C   UNL     1      -1.252   3.144   0.031  0.00  0.00    +0.000 A 
ATOM      2  C   UNL     1      -1.217   1.762   0.017  0.00  0.00    +0.000 A 
ATOM      3  C   UNL     1      -0.013   1.076   0.008  0.00  0.00    +0.005 A 
ATOM      4  C   UNL     1       1.164   1.789   0.001  0.00  0.00    -0.030 A 
ATOM      5  C   UNL     1       1.106   3.179  -0.037  0.00  0.00    -0.035 A 
ATOM      6  C   UNL     1      -0.062   3.867  -0.000  0.00  0.00    +0.004 A 
ATOM      7  C   UNL     1       2.509   3.816  -0.167  0.00  0.00    +0.062 C 
ATOM      8  C   UNL     1       3.149   3.287   1.112  0.00  0.00    -0.035 A 
ATOM      9  C   UNL     1       3.733   4.104   2.048  0.00  0.00    +0.004 A 
ATOM     10  C   UNL     1       4.232   3.541   3.213  0.00  0.00    +0.000 A 
ATOM     11  C   UNL     1       4.145   2.180   3.439  0.00  0.00    +0.000 A 
ATOM     12  C   UNL     1       3.578   1.350   2.478  0.00  0.00    +0.005 A 
ATOM     13  C   UNL     1       3.115   1.913   1.331  0.00  0.00    -0.030 A 
ATOM     14  C   UNL     1       2.521   1.098   0.146  0.00  0.00    +0.056 C 
ATOM     15  C   UNL     1       3.518   1.656  -0.885  0.00  0.00    +0.106 C 
ATOM     16  C   UNL     1       2.932   3.015  -1.359  0.00  0.00    +0.101 C 
ATOM     17  C   UNL     1       3.833   3.317  -2.477  0.00  0.00    +0.231 C 
ATOM     18  O   UNL     1       4.271   4.394  -2.819  0.00  0.00    -0.274 OA
ATOM     19  N   UNL     1       4.061   2.084  -3.044  0.00  0.00    -0.210 N 
ATOM     20  C   UNL     1       3.674   1.041  -2.240  0.00  0.00    +0.231 C 
ATOM     21  O   UNL     1       3.497  -0.116  -2.556  0.00  0.00    -0.274 OA
ENDROOT
BRANCH  19  22
ATOM     22  C   UNL     1       4.630   1.911  -4.314  0.00  0.00    +0.046 A 
ATOM     23  C   UNL     1       4.834   0.632  -4.816  0.00  0.00    +0.024 A 
ATOM     24  C   UNL     1       5.390   0.465  -6.069  0.00  0.00    +0.004 A 
ATOM     25  C   UNL     1       5.754   1.569  -6.819  0.00  0.00    +0.033 A 
ATOM     26  C   UNL     1       5.558   2.843  -6.319  0.00  0.00    +0.128 A 
ATOM     27  C   UNL     1       4.997   3.017  -5.068  0.00  0.00    +0.056 A 
BRANCH  26  28
ATOM     28  N   UNL     1       5.949   4.022  -7.124  0.00  0.00    +0.056 N 
ATOM     29  O   UNL     1       5.777   5.144  -6.683  0.00  0.00    -0.126 OA
ATOM     30  O   UNL     1       6.444   3.869  -8.226  0.00  0.00    -0.126 OA
ENDBRANCH  26  28
ENDBRANCH  19  22
BRANCH  14  31
ATOM     31  C   UNL     1       2.477  -0.426   0.277  0.00  0.00    +0.172 C 
BRANCH  31  32
ATOM     32  O   UNL     1       1.718  -0.783   1.434  0.00  0.00    -0.394 OA
ATOM     33  H   UNL     1       1.648  -1.736   1.580  0.00  0.00    +0.209 HD
ENDBRANCH  31  32
ENDBRANCH  14  31
TORSDOF 4
