REMARK  Name = ZINC17373788
REMARK  8 active torsions:
REMARK  status: ('A' for Active; 'I' for Inactive)
REMARK    1  A    between atoms: C_5  and  C_7
REMARK    2  A    between atoms: N_11  and  C_15
REMARK    3  A    between atoms: C_15  and  C_16
REMARK    4  A    between atoms: C_16  and  C_17
REMARK    5  A    between atoms: C_17  and  C_18
REMARK    6  A    between atoms: N_20  and  N_21
REMARK    7  A    between atoms: C_22  and  C_24
REMARK    8  A    between atoms: C_29  and  N_30
REMARK                            x       y       z     vdW  Elec       q    Type
REMARK                         _______ _______ _______ _____ _____    ______ ____
ROOT
ATOM      1  C   UNL     1       4.124   3.925   2.291  0.00  0.00    +0.099 C 
ENDROOT
BRANCH   1   2
ATOM      2  C   UNL     1       3.112   2.823   2.107  0.00  0.00    +0.229 C 
ATOM      3  O   UNL     1       1.952   3.008   2.408  0.00  0.00    -0.274 OA
ATOM      4  N   UNL     1       3.496   1.632   1.606  0.00  0.00    -0.234 N 
ATOM      5  H   UNL     1       4.424   1.484   1.365  0.00  0.00    +0.173 HD
BRANCH   4   6
ATOM      6  N   UNL     1       2.555   0.608   1.435  0.00  0.00    -0.230 N 
ATOM      7  C   UNL     1       2.940  -0.583   0.934  0.00  0.00    +0.262 C 
ATOM      8  O   UNL     1       4.102  -0.769   0.632  0.00  0.00    -0.269 OA
ATOM      9  H   UNL     1       1.627   0.757   1.672  0.00  0.00    +0.173 HD
BRANCH   7  10
ATOM     10  C   UNL     1       1.947  -1.664   0.753  0.00  0.00    +0.068 A 
ATOM     11  C   UNL     1       0.591  -1.414   0.972  0.00  0.00    +0.015 A 
ATOM     12  C   UNL     1      -0.330  -2.425   0.797  0.00  0.00    +0.001 A 
ATOM     13  C   UNL     1       0.088  -3.688   0.415  0.00  0.00    +0.002 A 
ATOM     14  C   UNL     1       1.431  -3.943   0.202  0.00  0.00    +0.033 A 
ATOM     15  C   UNL     1       2.362  -2.939   0.368  0.00  0.00    +0.138 A 
BRANCH  15  16
ATOM     16  N   UNL     1       3.799  -3.215   0.140  0.00  0.00    +0.057 N 
ATOM     17  O   UNL     1       4.160  -3.742  -0.896  0.00  0.00    -0.126 OA
ATOM     18  O   UNL     1       4.619  -2.913   0.989  0.00  0.00    -0.126 OA
ENDBRANCH  15  16
ENDBRANCH   7  10
ENDBRANCH   4   6
ENDBRANCH   1   2
BRANCH   1  19
ATOM     19  C   UNL     1       3.432   5.160   2.870  0.00  0.00    +0.029 C 
BRANCH  19  20
ATOM     20  C   UNL     1       4.459   6.279   3.057  0.00  0.00    +0.115 C 
BRANCH  20  25
ATOM     21  C   UNL     1       2.820   9.229   6.694  0.00  0.00    +0.029 C 
ATOM     22  C   UNL     1       3.043   8.821   5.419  0.00  0.00    +0.077 C 
ATOM     23  C   UNL     1       3.723   7.606   4.924  0.00  0.00    +0.258 C 
ATOM     24  O   UNL     1       4.189   6.779   5.685  0.00  0.00    -0.269 OA
ATOM     25  N   UNL     1       3.797   7.462   3.612  0.00  0.00    -0.255 N 
ATOM     26  C   UNL     1       3.283   8.383   2.772  0.00  0.00    +0.121 C 
ATOM     27  S   UNL     1       3.285   8.380   1.060  0.00  0.00    -0.027 S 
ATOM     28  S   UNL     1       2.596   9.606   3.877  0.00  0.00    -0.061 S 
BRANCH  21  33
ATOM     29  C   UNL     1       3.078   6.137   8.799  0.00  0.00    +0.001 A 
ATOM     30  C   UNL     1       3.695   6.636   9.933  0.00  0.00    +0.001 A 
ATOM     31  C   UNL     1       4.028   7.976  10.017  0.00  0.00    +0.020 A 
ATOM     32  C   UNL     1       3.752   8.826   8.965  0.00  0.00    +0.048 A 
ATOM     33  C   UNL     1       3.123   8.330   7.816  0.00  0.00    -0.005 A 
ATOM     34  C   UNL     1       2.790   6.973   7.741  0.00  0.00    +0.009 A 
ATOM     35 CL   UNL     1       4.177  10.506   9.068  0.00  0.00    -0.083 Cl
ENDBRANCH  21  33
ENDBRANCH  20  25
ENDBRANCH  19  20
ENDBRANCH   1  19
TORSDOF 8
