REMARK  Name = ZINC14477992
REMARK  2 active torsions:
REMARK  status: ('A' for Active; 'I' for Inactive)
REMARK    1  A    between atoms: C_4  and  N_25
REMARK    2  A    between atoms: C_5  and  C_7
REMARK                            x       y       z     vdW  Elec       q    Type
REMARK                         _______ _______ _______ _____ _____    ______ ____
ROOT
ATOM      1  C   UNL     1      -1.306   3.975   0.239  0.00  0.00    +0.107 C 
ATOM      2  C   UNL     1      -0.171   4.760  -0.393  0.00  0.00    +0.029 C 
ATOM      3  C   UNL     1      -0.222   6.288  -0.270  0.00  0.00    +0.033 C 
ATOM      4  C   UNL     1       1.266   6.648  -0.289  0.00  0.00    -0.030 C 
ATOM      5  C   UNL     1       1.986   5.623   0.151  0.00  0.00    -0.023 C 
ATOM      6  C   UNL     1       1.063   4.521   0.528  0.00  0.00    +0.050 C 
ATOM      7  C   UNL     1       1.452   3.100   0.404  0.00  0.00    -0.001 A 
ATOM      8  C   UNL     1       0.427   2.161   0.241  0.00  0.00    +0.034 A 
ATOM      9  C   UNL     1       0.749   0.812   0.159  0.00  0.00    +0.043 A 
ATOM     10  C   UNL     1       2.067   0.405   0.224  0.00  0.00    +0.044 A 
ATOM     11  C   UNL     1       3.077   1.338   0.372  0.00  0.00    +0.040 A 
ATOM     12  C   UNL     1       2.766   2.684   0.461  0.00  0.00    +0.048 A 
ATOM     13 CL   UNL     1       4.035   3.854   0.647  0.00  0.00    -0.083 Cl
ATOM     14 CL   UNL     1       2.457  -1.284   0.121  0.00  0.00    -0.083 Cl
ATOM     15  N   UNL     1      -0.914   2.553   0.138  0.00  0.00    -0.336 N 
ATOM     16  H   UNL     1      -1.597   1.879  -0.003  0.00  0.00    +0.147 HD
ENDROOT
BRANCH   1  21
ATOM     17  C   UNL     1      -3.731   5.015  -2.462  0.00  0.00    +0.000 A 
ATOM     18  C   UNL     1      -4.941   4.658  -1.898  0.00  0.00    +0.002 A 
ATOM     19  C   UNL     1      -4.976   4.080  -0.643  0.00  0.00    +0.033 A 
ATOM     20  C   UNL     1      -3.799   3.854   0.046  0.00  0.00    +0.131 A 
ATOM     21  C   UNL     1      -2.589   4.216  -0.515  0.00  0.00    +0.003 A 
ATOM     22  C   UNL     1      -2.554   4.795  -1.770  0.00  0.00    +0.008 A 
BRANCH  20  23
ATOM     23  N   UNL     1      -3.835   3.229   1.388  0.00  0.00    +0.057 N 
ATOM     24  O   UNL     1      -4.904   3.014   1.931  0.00  0.00    -0.126 OA
ATOM     25  O   UNL     1      -2.796   2.930   1.948  0.00  0.00    -0.126 OA
ENDBRANCH  20  23
ENDBRANCH   1  21
TORSDOF 2
