REMARK  Name = ZINC40320031
REMARK  8 active torsions:
REMARK  status: ('A' for Active; 'I' for Inactive)
REMARK    1  A    between atoms: C_1  and  C_2
REMARK    2  A    between atoms: C_2  and  C_3
REMARK    3  A    between atoms: C_3  and  N_4
REMARK    4  A    between atoms: N_4  and  C_5
REMARK    5  A    between atoms: N_4  and  S_10
REMARK    6  A    between atoms: C_5  and  C_6
REMARK    7  A    between atoms: S_10  and  C_13
REMARK    8  A    between atoms: C_16  and  N_20
REMARK                            x       y       z     vdW  Elec       q    Type
REMARK                         _______ _______ _______ _____ _____    ______ ____
ROOT
ATOM      1  S   UNL     1       2.055  -2.776  -0.676  0.00  0.00    +0.064 S 
ATOM      2  O   UNL     1       2.053  -4.054  -1.296  0.00  0.00    -0.153 OA
ATOM      3  O   UNL     1       3.158  -1.885  -0.769  0.00  0.00    -0.153 OA
ENDROOT
BRANCH   1   4
ATOM      4  C   UNL     1       1.772  -3.050   1.042  0.00  0.00    +0.142 A 
ATOM      5  C   UNL     1       2.188  -2.110   1.969  0.00  0.00    +0.070 A 
ATOM      6  C   UNL     1       1.968  -2.322   3.317  0.00  0.00    +0.044 A 
ATOM      7  C   UNL     1       1.328  -3.480   3.741  0.00  0.00    +0.027 A 
ATOM      8  C   UNL     1       0.911  -4.421   2.808  0.00  0.00    +0.044 A 
ATOM      9  C   UNL     1       1.130  -4.201   1.461  0.00  0.00    +0.070 A 
ATOM     10 CL   UNL     1       0.603  -5.374   0.295  0.00  0.00    -0.081 Cl
ATOM     11 CL   UNL     1       2.988  -0.663   1.438  0.00  0.00    -0.081 Cl
BRANCH   7  12
ATOM     12  N   UNL     1       1.104  -3.697   5.102  0.00  0.00    -0.358 N 
ATOM     13  H   UNL     1       1.396  -3.039   5.753  0.00  0.00    +0.142 HD
ATOM     14  H   UNL     1       0.657  -4.506   5.397  0.00  0.00    +0.142 HD
ENDBRANCH   7  12
ENDBRANCH   1   4
BRANCH   1  15
ATOM     15  N   UNL     1       0.738  -1.962  -1.265  0.00  0.00    -0.168 NA
BRANCH  15  16
ATOM     16  C   UNL     1       0.718  -0.497  -1.257  0.00  0.00    +0.109 C 
BRANCH  16  18
ATOM     17  C   UNL     1      -0.019   1.526   0.010  0.00  0.00    +0.005 C 
ATOM     18  C   UNL     1       0.002  -0.004   0.002  0.00  0.00    +0.014 C 
ENDBRANCH  16  18
ENDBRANCH  15  16
BRANCH  15  19
ATOM     19  C   UNL     1      -0.407  -2.708  -1.794  0.00  0.00    +0.222 C 
BRANCH  19  20
ATOM     20  C   UNL     1      -0.269  -2.843  -3.312  0.00  0.00    +0.404 C 
ATOM     21  F   UNL     1       0.913  -3.528  -3.614  0.00  0.00    -0.169 F 
ATOM     22  F   UNL     1      -1.363  -3.555  -3.817  0.00  0.00    -0.169 F 
ATOM     23  F   UNL     1      -0.232  -1.571  -3.893  0.00  0.00    -0.169 F 
ENDBRANCH  19  20
ENDBRANCH  15  19
ENDBRANCH   1  15
TORSDOF 7
