REMARK  Name = ZINC14157983
REMARK  14 active torsions:
REMARK  status: ('A' for Active; 'I' for Inactive)
REMARK    1  A    between atoms: C_1  and  C_2
REMARK    2  A    between atoms: C_4  and  C_35
REMARK    3  A    between atoms: N_10  and  C_11
REMARK    4  A    between atoms: C_11  and  N_13
REMARK    5  A    between atoms: N_13  and  C_14
REMARK    6  A    between atoms: C_17  and  O_22
REMARK    7  A    between atoms: C_19  and  O_20
REMARK    8  A    between atoms: O_20  and  C_21
REMARK    9  A    between atoms: O_22  and  C_23
REMARK   10  A    between atoms: N_24  and  C_25
REMARK   11  A    between atoms: C_27  and  C_33
REMARK   12  A    between atoms: C_27  and  C_34
REMARK   13  A    between atoms: C_29  and  C_31
REMARK   14  A    between atoms: C_29  and  C_32
REMARK                            x       y       z     vdW  Elec       q    Type
REMARK                         _______ _______ _______ _____ _____    ______ ____
ROOT
ATOM      1  C   UNL     1      -0.678   7.603  -7.544  0.00  0.00    +0.066 C 
ATOM      2  C   UNL     1      -0.883   7.475  -6.056  0.00  0.00    +0.044 A 
ATOM      3  C   UNL     1      -1.611   8.430  -5.364  0.00  0.00    +0.046 A 
ATOM      4  C   UNL     1      -1.776   8.273  -3.996  0.00  0.00    +0.044 A 
ATOM      5  N   UNL     1      -1.238   7.223  -3.397  0.00  0.00    -0.217 NA
ATOM      6  C   UNL     1      -0.548   6.329  -4.089  0.00  0.00    +0.231 A 
ATOM      7  N   UNL     1      -0.367   6.452  -5.395  0.00  0.00    -0.217 NA
ATOM      8  N   UNL     1       0.004   5.240  -3.428  0.00  0.00    -0.297 N 
ATOM      9  C   UNL     1       0.806   4.362  -4.106  0.00  0.00    +0.196 C 
ATOM     10  N   UNL     1       1.137   4.605  -5.362  0.00  0.00    -0.159 NA
ATOM     11  N   UNL     1       1.264   3.236  -3.485  0.00  0.00    -0.355 N 
ATOM     12  C   UNL     1      -2.560   9.285  -3.202  0.00  0.00    +0.066 C 
ATOM     13  H   UNL     1      -0.204   5.083  -2.359  0.00  0.00    +0.171 HD
ATOM     14  H   UNL     1       1.974   2.574  -4.000  0.00  0.00    +0.163 HD
ENDROOT
BRANCH  11  15
ATOM     15  C   UNL     1       0.808   2.910  -2.127  0.00  0.00    +0.079 C 
ATOM     16  C   UNL     1       1.909   2.139  -1.399  0.00  0.00    +0.011 C 
ATOM     17  C   UNL     1       1.454   1.768   0.010  0.00  0.00    -0.071 C 
ATOM     18  N   UNL     1       0.145   1.148   0.036  0.00  0.00    +0.386 N 
ATOM     19  C   UNL     1      -0.915   1.646  -0.814  0.00  0.00    -0.071 C 
ATOM     20  C   UNL     1      -0.432   2.021  -2.213  0.00  0.00    +0.011 C 
ATOM     21  C   UNL     1      -1.972   0.531  -0.971  0.00  0.00    -0.010 C 
ATOM     22  C   UNL     1      -1.618   2.850  -0.175  0.00  0.00    -0.010 C 
ATOM     23  C   UNL     1       1.495   3.011   0.907  0.00  0.00    -0.010 C 
ATOM     24  C   UNL     1       2.477   0.759   0.579  0.00  0.00    -0.010 C 
ATOM     25  H   UNL     1       0.235   0.089  -0.249  0.00  0.00    -0.084 HD
ATOM     26  H   UNL     1      -0.275   1.220   1.050  0.00  0.00    -0.084 HD
ENDBRANCH  11  15
BRANCH  10  27
ATOM     27  C   UNL     1       2.000   3.798  -5.996  0.00  0.00    +0.162 C 
ATOM     28  S   UNL     1       1.580   2.166  -6.302  0.00  0.00    -0.016 S 
BRANCH  27  29
ATOM     29  N   UNL     1       3.198   4.271  -6.393  0.00  0.00    -0.292 N 
ATOM     30  H   UNL     1       3.510   5.287  -6.109  0.00  0.00    +0.154 HD
BRANCH  29  31
ATOM     31  C   UNL     1       4.048   3.467  -7.167  0.00  0.00    +0.075 A 
ATOM     32  C   UNL     1       3.516   2.609  -8.118  0.00  0.00    +0.030 A 
ATOM     33  C   UNL     1       4.354   1.817  -8.880  0.00  0.00    +0.047 A 
ATOM     34  C   UNL     1       5.727   1.878  -8.697  0.00  0.00    +0.124 A 
ATOM     35  C   UNL     1       6.264   2.735  -7.747  0.00  0.00    +0.093 A 
ATOM     36  C   UNL     1       5.428   3.533  -6.985  0.00  0.00    +0.145 A 
BRANCH  36  37
ATOM     37  O   UNL     1       5.952   4.378  -6.057  0.00  0.00    -0.493 OA
ATOM     38  C   UNL     1       7.375   4.394  -5.925  0.00  0.00    +0.277 C 
ENDBRANCH  36  37
BRANCH  34  39
ATOM     39  O   UNL     1       6.549   1.098  -9.448  0.00  0.00    -0.495 OA
ATOM     40  C   UNL     1       5.928   0.239 -10.408  0.00  0.00    +0.277 C 
ENDBRANCH  34  39
ENDBRANCH  29  31
ENDBRANCH  27  29
ENDBRANCH  10  27
TORSDOF 6
