REMARK  Name = ZINC64920767
REMARK  5 active torsions:
REMARK  status: ('A' for Active; 'I' for Inactive)
REMARK    1  A    between atoms: C_1  and  C_2
REMARK    2  A    between atoms: C_7  and  S_8
REMARK    3  A    between atoms: S_8  and  N_11
REMARK    4  A    between atoms: C_15  and  C_17
REMARK    5  A    between atoms: N_19  and  C_20
REMARK                            x       y       z     vdW  Elec       q    Type
REMARK                         _______ _______ _______ _____ _____    ______ ____
ROOT
ATOM      1  N   UNL     1       1.617   1.132   2.607  0.00  0.00    -0.165 NA
ATOM      2  C   UNL     1       2.994   0.699   2.907  0.00  0.00    +0.110 C 
ATOM      3  C   UNL     1       3.897   1.664   2.099  0.00  0.00    +0.019 C 
ATOM      4  C   UNL     1       3.118   3.000   2.227  0.00  0.00    +0.031 C 
ATOM      5  C   UNL     1       1.645   2.543   2.196  0.00  0.00    +0.165 C 
ENDROOT
BRANCH   5   6
ATOM      6  C   UNL     1       0.833   3.373   3.156  0.00  0.00    +0.232 C 
ATOM      7  O   UNL     1       0.280   2.845   4.098  0.00  0.00    -0.274 OA
ATOM      8  N   UNL     1       0.721   4.703   2.970  0.00  0.00    -0.311 N 
ATOM      9  H   UNL     1       1.163   5.126   2.217  0.00  0.00    +0.149 HD
BRANCH   8  10
ATOM     10  C   UNL     1      -0.068   5.511   3.903  0.00  0.00    +0.073 C 
ATOM     11  C   UNL     1       0.801   5.899   5.101  0.00  0.00    +0.022 C 
ATOM     12  C   UNL     1       0.133   7.045   5.865  0.00  0.00    +0.002 C 
ATOM     13  C   UNL     1      -1.036   6.497   6.686  0.00  0.00    +0.000 C 
ATOM     14  C   UNL     1      -2.220   6.211   5.759  0.00  0.00    +0.000 C 
ATOM     15  C   UNL     1      -2.395   7.373   4.780  0.00  0.00    +0.000 C 
ATOM     16  C   UNL     1      -2.074   6.898   3.361  0.00  0.00    +0.002 C 
ATOM     17  C   UNL     1      -0.558   6.776   3.196  0.00  0.00    +0.022 C 
ENDBRANCH   8  10
ENDBRANCH   5   6
BRANCH   1  18
ATOM     18  S   UNL     1       0.263   0.183   2.711  0.00  0.00    +0.062 S 
ATOM     19  O   UNL     1      -0.853   1.061   2.653  0.00  0.00    -0.153 OA
ATOM     20  O   UNL     1       0.474  -0.710   3.796  0.00  0.00    -0.153 OA
BRANCH  18  27
ATOM     21  C   UNL     1      -0.123   1.297  -0.069  0.00  0.00    +0.046 C 
ATOM     22  C   UNL     1       0.024  -0.200   0.020  0.00  0.00    -0.022 A 
ATOM     23  C   UNL     1      -0.016  -0.966  -1.131  0.00  0.00    +0.032 A 
ATOM     24  C   UNL     1       0.119  -2.342  -1.046  0.00  0.00    +0.076 A 
ATOM     25  C   UNL     1       0.295  -2.950   0.196  0.00  0.00    +0.144 A 
ATOM     26  C   UNL     1       0.336  -2.176   1.342  0.00  0.00    +0.076 A 
ATOM     27  C   UNL     1       0.205  -0.802   1.251  0.00  0.00    +0.112 A 
ATOM     28  O   UNL     1       0.424  -4.302   0.266  0.00  0.00    -0.481 OA
ATOM     29  C   UNL     1      -0.299  -5.068  -0.701  0.00  0.00    +0.325 C 
ATOM     30  C   UNL     1      -0.102  -4.470  -2.071  0.00  0.00    +0.255 C 
ATOM     31  O   UNL     1      -0.108  -5.182  -3.053  0.00  0.00    -0.272 OA
ATOM     32  N   UNL     1       0.081  -3.138  -2.200  0.00  0.00    -0.280 N 
ATOM     33  H   UNL     1       0.184  -2.738  -3.078  0.00  0.00    +0.155 HD
ENDBRANCH  18  27
ENDBRANCH   1  18
TORSDOF 4
