REMARK  Name = ZINC26568698
REMARK  8 active torsions:
REMARK  status: ('A' for Active; 'I' for Inactive)
REMARK    1  A    between atoms: C_1  and  C_2
REMARK    2  A    between atoms: C_2  and  C_3
REMARK    3  A    between atoms: C_2  and  C_4
REMARK    4  A    between atoms: C_7  and  C_10
REMARK    5  A    between atoms: C_10  and  C_29
REMARK    6  A    between atoms: N_13  and  C_17
REMARK    7  A    between atoms: C_17  and  C_18
REMARK    8  A    between atoms: N_22  and  C_23
REMARK                            x       y       z     vdW  Elec       q    Type
REMARK                         _______ _______ _______ _____ _____    ______ ____
ROOT
ATOM      1  C   UNL     1       3.291   1.321  -3.736  0.00  0.00    +0.135 C 
ATOM      2  C   UNL     1       2.732   0.845  -2.409  0.00  0.00    +0.251 C 
ATOM      3  O   UNL     1       2.235  -0.234  -2.170  0.00  0.00    -0.272 OA
ATOM      4  N   UNL     1       2.901   1.872  -1.553  0.00  0.00    -0.216 N 
ATOM      5  C   UNL     1       3.489   2.917  -2.146  0.00  0.00    +0.310 C 
ATOM      6  O   UNL     1       3.750   3.958  -1.576  0.00  0.00    -0.252 OA
ATOM      7  N   UNL     1       3.760   2.686  -3.443  0.00  0.00    -0.281 N 
ATOM      8  C   UNL     1       2.202   1.345  -4.810  0.00  0.00    +0.047 C 
ATOM      9  H   UNL     1       4.227   3.289  -4.236  0.00  0.00    +0.152 HD
ENDROOT
BRANCH   1  13
ATOM     10  C   UNL     1       6.548  -1.159  -4.957  0.00  0.00    -0.045 A 
ATOM     11  C   UNL     1       6.561   0.193  -5.248  0.00  0.00    +0.004 A 
ATOM     12  C   UNL     1       5.507   0.995  -4.853  0.00  0.00    +0.006 A 
ATOM     13  C   UNL     1       4.440   0.446  -4.167  0.00  0.00    -0.015 A 
ATOM     14  C   UNL     1       4.429  -0.904  -3.871  0.00  0.00    +0.006 A 
ATOM     15  C   UNL     1       5.481  -1.708  -4.270  0.00  0.00    +0.004 A 
BRANCH  10  17
ATOM     16  C   UNL     1       8.340  -2.674  -4.156  0.00  0.00    +0.012 C 
ATOM     17  C   UNL     1       7.697  -2.034  -5.388  0.00  0.00    +0.013 C 
ATOM     18  C   UNL     1       7.180  -3.130  -6.322  0.00  0.00    +0.012 C 
ENDBRANCH  10  17
ENDBRANCH   1  13
BRANCH   4  19
ATOM     19  C   UNL     1       2.495   1.845  -0.146  0.00  0.00    +0.196 C 
BRANCH  19  20
ATOM     20  C   UNL     1       1.070   2.321  -0.024  0.00  0.00    +0.174 A 
ATOM     21  N   UNL     1      -0.005   1.597  -0.193  0.00  0.00    -0.111 NA
ATOM     22  N   UNL     1      -1.061   2.308  -0.017  0.00  0.00    -0.023 NA
ATOM     23  N   UNL     1      -0.737   3.520   0.279  0.00  0.00    -0.039 NA
ATOM     24  N   UNL     1       0.668   3.574   0.279  0.00  0.00    -0.196 N 
BRANCH  24  25
ATOM     25  C   UNL     1       1.477   4.688   0.543  0.00  0.00    +0.069 A 
ATOM     26  C   UNL     1       2.584   4.563   1.371  0.00  0.00    +0.028 A 
ATOM     27  C   UNL     1       3.383   5.661   1.625  0.00  0.00    +0.002 A 
ATOM     28  C   UNL     1       3.074   6.887   1.064  0.00  0.00    +0.000 A 
ATOM     29  C   UNL     1       1.969   7.016   0.243  0.00  0.00    +0.002 A 
ATOM     30  C   UNL     1       1.170   5.920  -0.019  0.00  0.00    +0.028 A 
ENDBRANCH  24  25
ENDBRANCH  19  20
ENDBRANCH   4  19
TORSDOF 5
