REMARK  Name = ZINC39631785
REMARK  12 active torsions:
REMARK  status: ('A' for Active; 'I' for Inactive)
REMARK    1  A    between atoms: C_1  and  C_2
REMARK    2  A    between atoms: C_7  and  C_8
REMARK    3  A    between atoms: C_12  and  C_21
REMARK    4  A    between atoms: N_23  and  C_24
REMARK    5  A    between atoms: C_24  and  C_26
REMARK    6  A    between atoms: C_24  and  C_27
REMARK    7  A    between atoms: C_27  and  C_28
REMARK    8  A    between atoms: C_28  and  C_29
REMARK    9  A    between atoms: C_29  and  C_30
REMARK   10  A    between atoms: C_30  and  C_31
REMARK   11  A    between atoms: C_30  and  C_32
REMARK   12  A    between atoms: C_30  and  O_33
REMARK                            x       y       z     vdW  Elec       q    Type
REMARK                         _______ _______ _______ _____ _____    ______ ____
ROOT
ATOM      1  C   UNL     1       0.118   0.199   2.408  0.00  0.00    +0.247 C 
ATOM      2  O   UNL     1      -0.024   1.405   2.353  0.00  0.00    -0.270 OA
ATOM      3  N   UNL     1       0.321  -0.402   3.597  0.00  0.00    -0.296 N 
ATOM      4  C   UNL     1       0.602  -1.834   3.855  0.00  0.00    +0.121 C 
ATOM      5  C   UNL     1       1.656  -1.828   4.985  0.00  0.00    +0.100 C 
ATOM      6  C   UNL     1       1.461  -0.479   5.696  0.00  0.00    -0.004 C 
ATOM      7  C   UNL     1       0.320   0.221   4.943  0.00  0.00    +0.115 C 
ATOM      8  C   UNL     1       1.073  -0.702   7.155  0.00  0.00    -0.010 C 
ATOM      9  C   UNL     1       0.941   0.653   7.856  0.00  0.00    -0.082 C 
ATOM     10  N   UNL     1       2.216   1.375   7.773  0.00  0.00    +0.379 N 
ATOM     11  C   UNL     1       2.536   1.667   6.370  0.00  0.00    -0.082 C 
ATOM     12  C   UNL     1       2.735   0.355   5.606  0.00  0.00    -0.010 C 
ATOM     13  H   UNL     1       2.146   2.240   8.287  0.00  0.00    -0.086 HD
ATOM     14  H   UNL     1       2.949   0.808   8.172  0.00  0.00    -0.086 HD
ENDROOT
BRANCH   1  21
ATOM     15  C   UNL     1      -2.144   0.457   0.624  0.00  0.00    +0.044 C 
ATOM     16  C   UNL     1      -1.019  -0.493   0.302  0.00  0.00    -0.038 A 
ATOM     17  C   UNL     1      -1.058  -1.244  -0.854  0.00  0.00    +0.007 A 
ATOM     18  C   UNL     1      -0.026  -2.116  -1.152  0.00  0.00    +0.038 A 
ATOM     19  C   UNL     1       1.053  -2.240  -0.292  0.00  0.00    +0.124 A 
ATOM     20  C   UNL     1       1.104  -1.494   0.869  0.00  0.00    +0.051 A 
ATOM     21  C   UNL     1       0.068  -0.608   1.171  0.00  0.00    +0.043 A 
ATOM     22  F   UNL     1       2.057  -3.094  -0.589  0.00  0.00    -0.205 F 
ENDBRANCH   1  21
BRANCH   5  23
ATOM     23  C   UNL     1       1.409  -2.968   5.939  0.00  0.00    +0.218 C 
ATOM     24  O   UNL     1       0.274  -3.325   6.176  0.00  0.00    -0.275 OA
ATOM     25  N   UNL     1       2.448  -3.590   6.529  0.00  0.00    -0.312 N 
ATOM     26  H   UNL     1       3.356  -3.305   6.340  0.00  0.00    +0.149 HD
BRANCH  25  27
ATOM     27  C   UNL     1       2.208  -4.698   7.457  0.00  0.00    +0.070 C 
ATOM     28  C   UNL     1       2.065  -6.002   6.668  0.00  0.00    +0.028 C 
BRANCH  27  29
ATOM     29  C   UNL     1       3.385  -4.816   8.427  0.00  0.00    +0.022 C 
BRANCH  29  30
ATOM     30  C   UNL     1       3.452  -3.563   9.302  0.00  0.00    +0.005 C 
BRANCH  30  31
ATOM     31  C   UNL     1       4.629  -3.680  10.272  0.00  0.00    +0.034 C 
BRANCH  31  32
ATOM     32  C   UNL     1       4.696  -2.427  11.147  0.00  0.00    +0.061 C 
ATOM     33  C   UNL     1       3.395  -2.288  11.939  0.00  0.00    +0.041 C 
ATOM     34  C   UNL     1       5.874  -2.544  12.117  0.00  0.00    +0.041 C 
BRANCH  32  35
ATOM     35  O   UNL     1       4.875  -1.276  10.319  0.00  0.00    -0.389 OA
ATOM     36  H   UNL     1       5.682  -1.296   9.787  0.00  0.00    +0.210 HD
ENDBRANCH  32  35
ENDBRANCH  31  32
ENDBRANCH  30  31
ENDBRANCH  29  30
ENDBRANCH  27  29
ENDBRANCH  25  27
ENDBRANCH   5  23
TORSDOF 8
