REMARK  Name = ZINC20284758
REMARK  10 active torsions:
REMARK  status: ('A' for Active; 'I' for Inactive)
REMARK    1  A    between atoms: C_1  and  C_2
REMARK    2  A    between atoms: C_7  and  N_12
REMARK    3  A    between atoms: C_9  and  C_11
REMARK    4  A    between atoms: C_13  and  C_15
REMARK    5  A    between atoms: C_15  and  C_17
REMARK    6  A    between atoms: C_15  and  N_24
REMARK    7  A    between atoms: C_17  and  C_18
REMARK    8  A    between atoms: N_24  and  S_25
REMARK    9  A    between atoms: S_25  and  C_28
REMARK   10  A    between atoms: N_37  and  C_38
REMARK                            x       y       z     vdW  Elec       q    Type
REMARK                         _______ _______ _______ _____ _____    ______ ____
ROOT
ATOM      1  C   UNL     1      -3.488   1.621   4.846  0.00  0.00    +0.166 C 
ENDROOT
BRANCH   1   3
ATOM      2  N   UNL     1      -3.263   1.807   2.389  0.00  0.00    -0.311 N 
ATOM      3  C   UNL     1      -2.902   1.183   3.528  0.00  0.00    +0.232 C 
ATOM      4  O   UNL     1      -2.105   0.269   3.493  0.00  0.00    -0.274 OA
ATOM      5  H   UNL     1      -3.986   2.635   2.422  0.00  0.00    +0.149 HD
BRANCH   2  11
ATOM      6  C   UNL     1      -4.014   1.683  -2.496  0.00  0.00    +0.008 C 
ATOM      7  C   UNL     1      -3.057   1.310  -1.362  0.00  0.00    -0.009 C 
ATOM      8  C   UNL     1      -1.712   2.007  -1.580  0.00  0.00    +0.003 C 
ATOM      9  C   UNL     1      -0.755   1.634  -0.447  0.00  0.00    +0.002 C 
ATOM     10  C   UNL     1      -1.349   2.079   0.891  0.00  0.00    +0.022 C 
ATOM     11  C   UNL     1      -2.694   1.381   1.109  0.00  0.00    +0.076 C 
ATOM     12  C   UNL     1      -3.651   1.754  -0.025  0.00  0.00    +0.009 C 
ATOM     13  C   UNL     1      -4.995   1.056   0.193  0.00  0.00    +0.009 C 
ENDBRANCH   2  11
ENDBRANCH   1   3
BRANCH   1  14
ATOM     14  N   UNL     1      -2.940   0.793   5.923  0.00  0.00    -0.178 NA
ATOM     15  H   UNL     1      -3.490  -0.094   6.269  0.00  0.00    +0.149 HD
BRANCH  14  16
ATOM     16  S   UNL     1      -1.629   1.320   6.787  0.00  0.00    +0.059 S 
ATOM     17  O   UNL     1      -1.378   0.338   7.783  0.00  0.00    -0.153 OA
ATOM     18  O   UNL     1      -0.647   1.711   5.838  0.00  0.00    -0.153 OA
BRANCH  16  19
ATOM     19  C   UNL     1      -2.119   2.784   7.636  0.00  0.00    +0.109 A 
ATOM     20  C   UNL     1      -2.755   2.690   8.862  0.00  0.00    +0.031 A 
ATOM     21  C   UNL     1      -3.142   3.833   9.534  0.00  0.00    +0.031 A 
ATOM     22  C   UNL     1      -2.892   5.077   8.977  0.00  0.00    +0.090 A 
ATOM     23  C   UNL     1      -2.251   5.174   7.742  0.00  0.00    +0.159 A 
ATOM     24  C   UNL     1      -1.862   4.021   7.078  0.00  0.00    +0.077 A 
ATOM     25  O   UNL     1      -2.139   6.493   7.449  0.00  0.00    -0.407 OA
ATOM     26  C   UNL     1      -2.680   7.213   8.444  0.00  0.00    +0.421 A 
ATOM     27  O   UNL     1      -2.737   8.427   8.481  0.00  0.00    -0.223 OA
ATOM     28  N   UNL     1      -3.150   6.383   9.395  0.00  0.00    -0.277 N 
ATOM     29  C   UNL     1      -3.812   6.779  10.641  0.00  0.00    +0.156 C 
ENDBRANCH  16  19
ENDBRANCH  14  16
ENDBRANCH   1  14
BRANCH   1  30
ATOM     30  C   UNL     1      -5.009   1.464   4.805  0.00  0.00    +0.065 C 
BRANCH  30  31
ATOM     31  C   UNL     1      -5.603   1.993   6.084  0.00  0.00    -0.045 A 
ATOM     32  C   UNL     1      -5.889   1.128   7.124  0.00  0.00    +0.004 A 
ATOM     33  C   UNL     1      -6.431   1.615   8.299  0.00  0.00    +0.000 A 
ATOM     34  C   UNL     1      -6.694   2.965   8.431  0.00  0.00    +0.000 A 
ATOM     35  C   UNL     1      -6.413   3.830   7.390  0.00  0.00    +0.000 A 
ATOM     36  C   UNL     1      -5.868   3.344   6.216  0.00  0.00    +0.004 A 
ENDBRANCH  30  31
ENDBRANCH   1  30
TORSDOF 7
