REMARK  Name = ZINC39675916
REMARK  10 active torsions:
REMARK  status: ('A' for Active; 'I' for Inactive)
REMARK    1  A    between atoms: C_1  and  C_2
REMARK    2  A    between atoms: C_3  and  C_8
REMARK    3  A    between atoms: C_4  and  C_7
REMARK    4  A    between atoms: C_12  and  C_21
REMARK    5  A    between atoms: N_23  and  C_24
REMARK    6  A    between atoms: C_24  and  C_25
REMARK    7  A    between atoms: C_25  and  C_27
REMARK    8  A    between atoms: C_25  and  N_33
REMARK    9  A    between atoms: N_33  and  C_34
REMARK   10  A    between atoms: N_33  and  C_35
REMARK                            x       y       z     vdW  Elec       q    Type
REMARK                         _______ _______ _______ _____ _____    ______ ____
ROOT
ATOM      1  C   UNL     1       0.187   0.140  -3.536  0.00  0.00    +0.252 C 
ATOM      2  O   UNL     1       1.144   0.439  -4.223  0.00  0.00    -0.270 OA
ATOM      3  N   UNL     1      -1.062   0.266  -4.027  0.00  0.00    -0.296 N 
ATOM      4  C   UNL     1      -2.341  -0.038  -3.345  0.00  0.00    +0.121 C 
ATOM      5  C   UNL     1      -3.298   1.091  -3.787  0.00  0.00    +0.100 C 
ATOM      6  C   UNL     1      -2.719   1.597  -5.119  0.00  0.00    -0.004 C 
ATOM      7  C   UNL     1      -1.465   0.747  -5.370  0.00  0.00    +0.115 C 
ATOM      8  C   UNL     1      -2.336   3.070  -5.003  0.00  0.00    -0.010 C 
ATOM      9  C   UNL     1      -1.815   3.565  -6.356  0.00  0.00    -0.082 C 
ATOM     10  N   UNL     1      -2.856   3.388  -7.376  0.00  0.00    +0.379 N 
ATOM     11  C   UNL     1      -3.152   1.960  -7.547  0.00  0.00    -0.082 C 
ATOM     12  C   UNL     1      -3.728   1.397  -6.245  0.00  0.00    -0.010 C 
ATOM     13  H   UNL     1      -3.693   3.872  -7.089  0.00  0.00    -0.086 HD
ATOM     14  H   UNL     1      -2.533   3.770  -8.252  0.00  0.00    -0.086 HD
ENDROOT
BRANCH   1  17
ATOM     15  C   UNL     1       0.342   1.944  -0.851  0.00  0.00    +0.070 C 
ATOM     16  C   UNL     1       0.464   0.444  -0.944  0.00  0.00    +0.093 A 
ATOM     17  C   UNL     1       0.392  -0.360  -2.164  0.00  0.00    +0.101 A 
ATOM     18  C   UNL     1       0.552  -1.663  -1.789  0.00  0.00    +0.147 A 
ATOM     19  O   UNL     1       0.710  -1.695  -0.463  0.00  0.00    -0.359 OA
ATOM     20  N   UNL     1       0.657  -0.377   0.046  0.00  0.00    -0.083 NA
ATOM     21  C   UNL     1       0.550  -2.856  -2.709  0.00  0.00    +0.090 C 
ENDBRANCH   1  17
BRANCH   5  22
ATOM     22  C   UNL     1      -4.690   0.551  -3.990  0.00  0.00    +0.218 C 
ATOM     23  O   UNL     1      -4.848  -0.587  -4.380  0.00  0.00    -0.275 OA
ATOM     24  N   UNL     1      -5.760   1.331  -3.736  0.00  0.00    -0.316 N 
ATOM     25  H   UNL     1      -5.633   2.240  -3.424  0.00  0.00    +0.149 HD
BRANCH  24  26
ATOM     26  C   UNL     1      -7.113   0.805  -3.933  0.00  0.00    +0.093 C 
BRANCH  26  27
ATOM     27  C   UNL     1      -8.133   1.917  -3.682  0.00  0.00    -0.021 C 
BRANCH  27  28
ATOM     28  C   UNL     1      -8.076   2.334  -2.235  0.00  0.00    -0.059 A 
ATOM     29  C   UNL     1      -8.711   1.574  -1.271  0.00  0.00    +0.002 A 
ATOM     30  C   UNL     1      -8.659   1.957   0.056  0.00  0.00    +0.000 A 
ATOM     31  C   UNL     1      -7.971   3.099   0.419  0.00  0.00    +0.000 A 
ATOM     32  C   UNL     1      -7.335   3.859  -0.544  0.00  0.00    +0.000 A 
ATOM     33  C   UNL     1      -7.384   3.474  -1.871  0.00  0.00    +0.002 A 
ENDBRANCH  27  28
BRANCH  27  34
ATOM     34  N   UNL     1      -9.481   1.425  -3.997  0.00  0.00    +0.382 N 
ATOM     35  C   UNL     1     -10.462   2.489  -3.744  0.00  0.00    -0.096 C 
ATOM     36  C   UNL     1      -9.540   1.031  -5.411  0.00  0.00    -0.096 C 
ATOM     37  H   UNL     1      -9.692   0.628  -3.416  0.00  0.00    -0.082 HD
ENDBRANCH  27  34
ENDBRANCH  26  27
ENDBRANCH  24  26
ENDBRANCH   5  22
TORSDOF 6
