REMARK  Name = ZINC08493183
REMARK  11 active torsions:
REMARK  status: ('A' for Active; 'I' for Inactive)
REMARK    1  A    between atoms: C_1  and  C_2
REMARK    2  A    between atoms: C_2  and  C_3
REMARK    3  A    between atoms: C_8  and  N_9
REMARK    4  A    between atoms: C_10  and  C_12
REMARK    5  A    between atoms: C_12  and  N_13
REMARK    6  A    between atoms: N_13  and  C_14
REMARK    7  A    between atoms: N_13  and  C_15
REMARK    8  A    between atoms: C_15  and  C_17
REMARK    9  A    between atoms: C_15  and  C_18
REMARK   10  A    between atoms: N_23  and  C_24
REMARK   11  A    between atoms: C_24  and  C_25
REMARK                            x       y       z     vdW  Elec       q    Type
REMARK                         _______ _______ _______ _____ _____    ______ ____
ROOT
ATOM      1  C   UNL     1       7.128  -0.267   2.168  0.00  0.00    +0.017 C 
ATOM      2  C   UNL     1       8.309  -0.537   1.233  0.00  0.00    -0.004 C 
ENDROOT
BRANCH   1   3
ATOM      3  C   UNL     1       7.078   1.202   2.501  0.00  0.00    +0.207 C 
ATOM      4  O   UNL     1       6.394   1.952   1.837  0.00  0.00    -0.277 OA
ATOM      5  N   UNL     1       7.793   1.683   3.538  0.00  0.00    -0.242 N 
ATOM      6  C   UNL     1       7.748   2.997   3.836  0.00  0.00    +0.306 C 
ATOM      7  O   UNL     1       7.063   3.748   3.170  0.00  0.00    -0.252 OA
ATOM      8  N   UNL     1       8.463   3.477   4.872  0.00  0.00    -0.295 N 
ATOM      9  H   UNL     1       8.340   1.083   4.069  0.00  0.00    +0.159 HD
ATOM     10  H   UNL     1       9.010   2.878   5.403  0.00  0.00    +0.151 HD
BRANCH   8  11
ATOM     11  C   UNL     1       8.415   4.905   5.196  0.00  0.00    +0.141 C 
BRANCH  11  12
ATOM     12  C   UNL     1       9.296   5.180   6.387  0.00  0.00    -0.030 A 
ATOM     13  C   UNL     1       8.774   5.103   7.665  0.00  0.00    +0.005 A 
ATOM     14  C   UNL     1       9.582   5.356   8.758  0.00  0.00    +0.000 A 
ATOM     15  C   UNL     1      10.912   5.685   8.572  0.00  0.00    +0.000 A 
ATOM     16  C   UNL     1      11.434   5.761   7.295  0.00  0.00    +0.000 A 
ATOM     17  C   UNL     1      10.627   5.504   6.202  0.00  0.00    +0.005 A 
ENDBRANCH  11  12
ENDBRANCH   8  11
ENDBRANCH   1   3
BRANCH   1  18
ATOM     18  N   UNL     1       5.878  -0.661   1.505  0.00  0.00    +0.391 N 
ATOM     19  C   UNL     1       5.967  -2.068   1.090  0.00  0.00    -0.094 C 
ATOM     20  H   UNL     1       5.729  -0.080   0.694  0.00  0.00    -0.080 HD
BRANCH  18  21
ATOM     21  C   UNL     1       4.755  -0.496   2.438  0.00  0.00    +0.020 C 
BRANCH  21  23
ATOM     22  N   UNL     1       2.288  -0.657   2.375  0.00  0.00    -0.287 N 
ATOM     23  C   UNL     1       3.459  -0.752   1.714  0.00  0.00    +0.201 C 
ATOM     24  O   UNL     1       3.469  -1.044   0.537  0.00  0.00    -0.278 OA
ATOM     25  H   UNL     1       2.275  -0.360   3.298  0.00  0.00    +0.155 HD
BRANCH  22  31
ATOM     26  C   UNL     1       0.018  -1.478   2.462  0.00  0.00    -0.026 A 
ATOM     27  C   UNL     1      -1.163  -1.798   1.822  0.00  0.00    +0.005 A 
ATOM     28  C   UNL     1      -1.277  -1.635   0.454  0.00  0.00    +0.000 A 
ATOM     29  C   UNL     1      -0.208  -1.151  -0.279  0.00  0.00    +0.002 A 
ATOM     30  C   UNL     1       0.976  -0.830   0.354  0.00  0.00    +0.023 A 
ATOM     31  C   UNL     1       1.091  -0.988   1.730  0.00  0.00    +0.036 A 
BRANCH  26  33
ATOM     32  C   UNL     1      -0.177  -0.333   4.652  0.00  0.00    +0.009 C 
ATOM     33  C   UNL     1       0.141  -1.656   3.953  0.00  0.00    +0.033 C 
ENDBRANCH  26  33
ENDBRANCH  22  31
ENDBRANCH  21  23
ENDBRANCH  18  21
ENDBRANCH   1  18
TORSDOF 8
