REMARK  Name = ZINC43124717
REMARK  6 active torsions:
REMARK  status: ('A' for Active; 'I' for Inactive)
REMARK    1  A    between atoms: C_1  and  C_2
REMARK    2  A    between atoms: C_2  and  C_4
REMARK    3  A    between atoms: C_2  and  N_23
REMARK    4  A    between atoms: C_4  and  C_6
REMARK    5  A    between atoms: C_4  and  O_11
REMARK    6  A    between atoms: O_11  and  C_12
REMARK                            x       y       z     vdW  Elec       q    Type
REMARK                         _______ _______ _______ _____ _____    ______ ____
ROOT
ATOM      1  C   UNL     1       0.758  -0.511   1.264  0.00  0.00    +0.189 C 
ENDROOT
BRANCH   1   2
ATOM      2  C   UNL     1       0.175  -0.038   2.571  0.00  0.00    -0.002 A 
ATOM      3  C   UNL     1       0.655   1.107   3.179  0.00  0.00    +0.015 A 
ATOM      4  C   UNL     1       0.108   1.505   4.354  0.00  0.00    +0.045 A 
ATOM      5  S   UNL     1      -1.123   0.244   4.635  0.00  0.00    -0.105 S 
ATOM      6  C   UNL     1      -0.831  -0.726   3.164  0.00  0.00    +0.052 A 
ENDBRANCH   1   2
BRANCH   1   8
ATOM      7  C   UNL     1      -0.091   1.552   0.139  0.00  0.00    -0.010 C 
ATOM      8  C   UNL     1      -0.087   0.022   0.106  0.00  0.00    -0.032 C 
BRANCH   8   9
ATOM      9  N   UNL     1       0.481  -0.439  -1.168  0.00  0.00    +0.382 N 
ATOM     10  H   UNL     1       1.426  -0.099  -1.257  0.00  0.00    -0.089 HD
ATOM     11  H   UNL     1       0.483  -1.448  -1.189  0.00  0.00    -0.089 HD
ATOM     12  H   UNL     1      -0.077  -0.088  -1.932  0.00  0.00    -0.089 HD
ENDBRANCH   8   9
ENDBRANCH   1   8
BRANCH   1  13
ATOM     13  O   UNL     1       0.761  -1.940   1.234  0.00  0.00    -0.486 OA
BRANCH  13  14
ATOM     14  C   UNL     1       1.755  -2.539   0.526  0.00  0.00    +0.122 A 
ATOM     15  C   UNL     1       2.757  -1.757  -0.055  0.00  0.00    +0.046 A 
ATOM     16  C   UNL     1       3.764  -2.328  -0.768  0.00  0.00    +0.012 A 
ATOM     17  C   UNL     1       3.803  -3.724  -0.925  0.00  0.00    -0.017 A 
ATOM     18  C   UNL     1       4.830  -4.347  -1.655  0.00  0.00    +0.023 A 
ATOM     19  C   UNL     1       4.836  -5.702  -1.787  0.00  0.00    +0.018 A 
ATOM     20  C   UNL     1       3.838  -6.485  -1.208  0.00  0.00    +0.016 A 
ATOM     21  C   UNL     1       2.828  -5.916  -0.495  0.00  0.00    +0.010 A 
ATOM     22  C   UNL     1       2.788  -4.520  -0.337  0.00  0.00    -0.014 A 
ATOM     23  C   UNL     1       1.765  -3.899   0.398  0.00  0.00    +0.054 A 
ATOM     24 BR   UNL     1       6.220  -6.536  -2.771  0.00  0.00    -0.050 Br
ENDBRANCH  13  14
ENDBRANCH   1  13
TORSDOF 5
