REMARK  Name = ZINC67548387
REMARK  6 active torsions:
REMARK  status: ('A' for Active; 'I' for Inactive)
REMARK    1  A    between atoms: C_6  and  C_11
REMARK    2  A    between atoms: C_11  and  C_13
REMARK    3  A    between atoms: C_11  and  O_30
REMARK    4  A    between atoms: C_13  and  N_14
REMARK    5  A    between atoms: N_17  and  C_18
REMARK    6  A    between atoms: C_20  and  C_26
REMARK                            x       y       z     vdW  Elec       q    Type
REMARK                         _______ _______ _______ _____ _____    ______ ____
ROOT
ATOM      1  N   UNL     1       6.615  -3.924   1.343  0.00  0.00    -0.296 N 
ATOM      2  C   UNL     1       7.142  -4.417   2.481  0.00  0.00    +0.304 C 
ATOM      3  O   UNL     1       6.454  -4.509   3.479  0.00  0.00    -0.253 OA
ATOM      4  N   UNL     1       8.431  -4.809   2.513  0.00  0.00    -0.265 N 
ATOM      5  H   UNL     1       7.164  -3.851   0.546  0.00  0.00    +0.150 HD
ATOM      6  H   UNL     1       8.959  -4.806   1.699  0.00  0.00    +0.157 HD
ENDROOT
BRANCH   4   7
ATOM      7  C   UNL     1       9.008  -5.222   3.722  0.00  0.00    +0.100 A 
ATOM      8  C   UNL     1       9.546  -6.474   3.840  0.00  0.00    +0.042 A 
ATOM      9  C   UNL     1      10.118  -6.861   5.060  0.00  0.00    +0.073 A 
ATOM     10  C   UNL     1      10.134  -6.001   6.104  0.00  0.00    +0.098 A 
ATOM     11  N   UNL     1       9.600  -4.756   5.989  0.00  0.00    -0.327 N 
ATOM     12  H   UNL     1       9.620  -4.153   6.748  0.00  0.00    +0.168 HD
ATOM     13  C   UNL     1       9.047  -4.348   4.830  0.00  0.00    +0.270 A 
ATOM     14  O   UNL     1       8.576  -3.226   4.740  0.00  0.00    -0.266 OA
BRANCH   9  15
ATOM     15  C   UNL     1      10.716  -8.237   5.209  0.00  0.00    +0.419 C 
ATOM     16  F   UNL     1      11.220  -8.389   6.505  0.00  0.00    -0.166 F 
ATOM     17  F   UNL     1       9.729  -9.201   4.977  0.00  0.00    -0.166 F 
ATOM     18  F   UNL     1      11.752  -8.398   4.284  0.00  0.00    -0.166 F 
ENDBRANCH   9  15
ENDBRANCH   4   7
BRANCH   1  19
ATOM     19  C   UNL     1       5.214  -3.498   1.308  0.00  0.00    +0.141 C 
BRANCH  19  20
ATOM     20  C   UNL     1       4.872  -2.982  -0.091  0.00  0.00    +0.162 C 
BRANCH  20  26
ATOM     21  C   UNL     1      -0.626   0.405  -0.021  0.00  0.00    +0.001 A 
ATOM     22  C   UNL     1       0.455   1.279   0.071  0.00  0.00    +0.001 A 
ATOM     23  C   UNL     1       1.734   0.814   0.077  0.00  0.00    +0.008 A 
ATOM     24  C   UNL     1       1.971  -0.568  -0.011  0.00  0.00    -0.018 A 
ATOM     25  C   UNL     1       3.278  -1.086  -0.008  0.00  0.00    +0.014 A 
ATOM     26  C   UNL     1       3.470  -2.430  -0.094  0.00  0.00    -0.017 A 
ATOM     27  C   UNL     1       2.388  -3.305  -0.186  0.00  0.00    +0.007 A 
ATOM     28  C   UNL     1       1.109  -2.840  -0.192  0.00  0.00    +0.009 A 
ATOM     29  C   UNL     1       0.872  -1.457  -0.104  0.00  0.00    -0.018 A 
ATOM     30  C   UNL     1      -0.435  -0.940  -0.108  0.00  0.00    +0.008 A 
ENDBRANCH  20  26
BRANCH  20  31
ATOM     31  O   UNL     1       4.964  -4.055  -1.030  0.00  0.00    -0.386 OA
ATOM     32  H   UNL     1       4.367  -4.793  -0.844  0.00  0.00    +0.210 HD
ENDBRANCH  20  31
ENDBRANCH  19  20
ENDBRANCH   1  19
TORSDOF 6
