REMARK  Name = ZINC35781320
REMARK  13 active torsions:
REMARK  status: ('A' for Active; 'I' for Inactive)
REMARK    1  A    between atoms: C_1  and  C_2
REMARK    2  A    between atoms: C_2  and  C_3
REMARK    3  A    between atoms: C_2  and  C_4
REMARK    4  A    between atoms: C_2  and  O_5
REMARK    5  A    between atoms: O_5  and  C_6
REMARK    6  A    between atoms: C_6  and  C_7
REMARK    7  A    between atoms: C_7  and  C_9
REMARK    8  A    between atoms: C_7  and  O_35
REMARK    9  A    between atoms: C_9  and  N_10
REMARK   10  A    between atoms: N_10  and  C_11
REMARK   11  A    between atoms: N_10  and  C_18
REMARK   12  A    between atoms: C_11  and  C_12
REMARK   13  A    between atoms: C_18  and  C_19
REMARK                            x       y       z     vdW  Elec       q    Type
REMARK                         _______ _______ _______ _____ _____    ______ ____
ROOT
ATOM      1  N   UNL     1       4.333  -0.569  -3.816  0.00  0.00    +0.389 N 
ATOM      2  H   UNL     1       4.070  -1.540  -3.895  0.00  0.00    -0.081 HD
ENDROOT
BRANCH   1   3
ATOM      3  C   UNL     1       4.048  -0.093  -2.456  0.00  0.00    -0.044 C 
BRANCH   3   4
ATOM      4  C   UNL     1       2.579  -0.356  -2.121  0.00  0.00    +0.124 C 
BRANCH   4   5
ATOM      5  O   UNL     1       2.343  -1.765  -2.085  0.00  0.00    -0.391 OA
ATOM      6  H   UNL     1       2.874  -2.236  -1.429  0.00  0.00    +0.210 HD
ENDBRANCH   4   5
BRANCH   4   7
ATOM      7  C   UNL     1       2.251   0.250  -0.755  0.00  0.00    +0.189 C 
BRANCH   7   8
ATOM      8  O   UNL     1       0.853   0.107  -0.494  0.00  0.00    -0.372 OA
BRANCH   8  10
ATOM      9  C   UNL     1       0.756   2.140   0.809  0.00  0.00    +0.041 C 
ATOM     10  C   UNL     1       0.439   0.644   0.764  0.00  0.00    +0.061 C 
ATOM     11  C   UNL     1       1.185  -0.069   1.894  0.00  0.00    +0.041 C 
ATOM     12  C   UNL     1      -1.067   0.436   0.937  0.00  0.00    +0.041 C 
ENDBRANCH   8  10
ENDBRANCH   7   8
ENDBRANCH   4   7
ENDBRANCH   3   4
ENDBRANCH   1   3
BRANCH   1  13
ATOM     13  C   UNL     1       3.565   0.226  -4.784  0.00  0.00    -0.042 C 
BRANCH  13  14
ATOM     14  C   UNL     1       3.762  -0.339  -6.167  0.00  0.00    -0.064 A 
ATOM     15  C   UNL     1       4.723   0.198  -7.003  0.00  0.00    +0.002 A 
ATOM     16  C   UNL     1       4.904  -0.321  -8.272  0.00  0.00    +0.000 A 
ATOM     17  C   UNL     1       4.124  -1.377  -8.704  0.00  0.00    +0.000 A 
ATOM     18  C   UNL     1       3.163  -1.915  -7.868  0.00  0.00    +0.000 A 
ATOM     19  C   UNL     1       2.986  -1.399  -6.598  0.00  0.00    +0.002 A 
ENDBRANCH  13  14
ENDBRANCH   1  13
BRANCH   1  20
ATOM     20  C   UNL     1       5.768  -0.426  -4.095  0.00  0.00    -0.003 C 
BRANCH  20  21
ATOM     21  C   UNL     1       6.547  -1.371  -3.215  0.00  0.00    +0.094 A 
ATOM     22  N   UNL     1       7.903  -1.314  -3.213  0.00  0.00    -0.312 N 
ATOM     23  H   UNL     1       8.353  -0.666  -3.778  0.00  0.00    +0.170 HD
ATOM     24  C   UNL     1       8.637  -2.140  -2.444  0.00  0.00    +0.260 A 
ATOM     25  O   UNL     1       9.855  -2.077  -2.453  0.00  0.00    -0.267 OA
ATOM     26  C   UNL     1       7.963  -3.094  -1.613  0.00  0.00    +0.075 A 
ATOM     27  C   UNL     1       8.553  -4.080  -0.704  0.00  0.00    -0.023 A 
ATOM     28  C   UNL     1       7.695  -4.874  -0.031  0.00  0.00    -0.004 A 
ATOM     29  S   UNL     1       6.080  -4.355  -0.551  0.00  0.00    -0.073 S 
ATOM     30  C   UNL     1       6.562  -3.076  -1.682  0.00  0.00    +0.116 A 
ATOM     31  N   UNL     1       5.904  -2.225  -2.465  0.00  0.00    -0.229 NA
ATOM     32  C   UNL     1       8.022  -5.968   0.937  0.00  0.00    +0.043 C 
ATOM     33  C   UNL     1       9.037  -5.449   1.964  0.00  0.00    +0.005 C 
ATOM     34  C   UNL     1      10.441  -5.707   1.427  0.00  0.00    +0.001 C 
ATOM     35  C   UNL     1      10.446  -5.594  -0.097  0.00  0.00    +0.005 C 
ATOM     36  C   UNL     1      10.066  -4.183  -0.530  0.00  0.00    +0.037 C 
ENDBRANCH  20  21
ENDBRANCH   1  20
TORSDOF 10
