REMARK  Name = ZINC39576059
REMARK  5 active torsions:
REMARK  status: ('A' for Active; 'I' for Inactive)
REMARK    1  A    between atoms: C_1  and  C_2
REMARK    2  A    between atoms: C_10  and  C_12
REMARK    3  A    between atoms: N_13  and  N_14
REMARK    4  A    between atoms: C_15  and  C_17
REMARK    5  A    between atoms: C_20  and  C_23
REMARK                            x       y       z     vdW  Elec       q    Type
REMARK                         _______ _______ _______ _____ _____    ______ ____
ROOT
ATOM      1  N   UNL     1       0.107  -2.802   7.211  0.00  0.00    -0.205 N 
ATOM      2  C   UNL     1       0.107  -2.093   8.357  0.00  0.00    +0.263 C 
ATOM      3  O   UNL     1       0.090  -0.881   8.321  0.00  0.00    -0.271 OA
ATOM      4  H   UNL     1       0.121  -3.771   7.240  0.00  0.00    +0.177 HD
ENDROOT
BRANCH   2   5
ATOM      5  C   UNL     1       0.130  -2.807   9.684  0.00  0.00    +0.240 C 
ATOM      6  C   UNL     1      -1.269  -3.248  10.079  0.00  0.00    +0.041 C 
ATOM      7  C   UNL     1      -1.502  -2.587  11.229  0.00  0.00    +0.092 C 
ATOM      8  N   UNL     1      -0.432  -1.819  11.562  0.00  0.00    -0.153 NA
ATOM      9  N   UNL     1       0.512  -1.883  10.765  0.00  0.00    -0.170 NA
BRANCH   7  10
ATOM     10  C   UNL     1      -2.753  -2.683  12.022  0.00  0.00    +0.002 A 
ATOM     11  C   UNL     1      -3.792  -3.507  11.592  0.00  0.00    +0.010 A 
ATOM     12  C   UNL     1      -4.953  -3.593  12.333  0.00  0.00    +0.001 A 
ATOM     13  C   UNL     1      -5.087  -2.864  13.500  0.00  0.00    +0.000 A 
ATOM     14  C   UNL     1      -4.059  -2.044  13.932  0.00  0.00    +0.001 A 
ATOM     15  C   UNL     1      -2.892  -1.954  13.201  0.00  0.00    +0.010 A 
ENDBRANCH   7  10
ENDBRANCH   2   5
BRANCH   1  17
ATOM     16  C   UNL     1       0.086  -2.820   4.873  0.00  0.00    +0.141 C 
ATOM     17  N   UNL     1       0.086  -2.138   5.977  0.00  0.00    -0.188 NA
BRANCH  16  27
ATOM     18  C   UNL     1      -0.018   1.503   0.010  0.00  0.00    +0.046 C 
ATOM     19  C   UNL     1       0.002  -0.004   0.002  0.00  0.00    -0.024 A 
ATOM     20  C   UNL     1       0.006  -0.680  -1.180  0.00  0.00    +0.005 A 
ATOM     21  C   UNL     1       0.025  -2.073  -1.212  0.00  0.00    +0.001 A 
ATOM     22  C   UNL     1       0.040  -2.797  -0.059  0.00  0.00    +0.010 A 
ATOM     23  C   UNL     1       0.037  -2.132   1.179  0.00  0.00    +0.001 A 
ATOM     24  C   UNL     1       0.023  -0.715   1.214  0.00  0.00    +0.076 A 
ATOM     25  N   UNL     1       0.025  -0.070   2.386  0.00  0.00    -0.234 NA
ATOM     26  C   UNL     1       0.044  -0.714   3.526  0.00  0.00    +0.139 A 
ATOM     27  C   UNL     1       0.064  -2.122   3.575  0.00  0.00    +0.032 A 
ATOM     28  C   UNL     1       0.052  -2.847   2.389  0.00  0.00    +0.022 A 
ATOM     29 CL   UNL     1       0.044   0.187   5.010  0.00  0.00    -0.061 Cl
ENDBRANCH  16  27
ENDBRANCH   1  17
TORSDOF 4
