REMARK  Name = ZINC27127316
REMARK  4 active torsions:
REMARK  status: ('A' for Active; 'I' for Inactive)
REMARK    1  A    between atoms: C_4  and  N_7
REMARK    2  A    between atoms: C_8  and  C_10
REMARK    3  A    between atoms: C_10  and  N_11
REMARK    4  A    between atoms: C_17  and  C_19
REMARK                            x       y       z     vdW  Elec       q    Type
REMARK                         _______ _______ _______ _____ _____    ______ ____
ROOT
ATOM      1  N   UNL     1      -2.034  -3.029   0.854  0.00  0.00    +0.387 N 
ATOM      2  C   UNL     1      -2.721  -2.626   2.088  0.00  0.00    -0.059 C 
ATOM      3  C   UNL     1      -4.234  -2.785   1.903  0.00  0.00    +0.089 C 
ATOM      4  N   UNL     1      -4.508  -4.160   1.459  0.00  0.00    -0.305 N 
ATOM      5  C   UNL     1      -3.756  -4.684   0.309  0.00  0.00    +0.089 C 
ATOM      6  C   UNL     1      -2.262  -4.450   0.557  0.00  0.00    -0.059 C 
ATOM      7  C   UNL     1      -5.425  -4.921   2.090  0.00  0.00    +0.222 C 
ATOM      8  O   UNL     1      -5.592  -6.074   1.752  0.00  0.00    -0.275 OA
ATOM      9  H   UNL     1      -2.461  -2.442   0.027  0.00  0.00    -0.081 HD
ENDROOT
BRANCH   7  10
ATOM     10  C   UNL     1      -6.241  -4.339   3.215  0.00  0.00    +0.117 C 
ATOM     11  C   UNL     1      -7.085  -5.439   3.863  0.00  0.00    +0.055 C 
ATOM     12  C   UNL     1      -8.111  -4.820   4.778  0.00  0.00    -0.004 A 
ATOM     13  C   UNL     1      -8.722  -5.618   5.731  0.00  0.00    +0.027 A 
ATOM     14  C   UNL     1      -9.673  -5.086   6.580  0.00  0.00    +0.041 A 
ATOM     15  C   UNL     1     -10.018  -3.750   6.481  0.00  0.00    +0.023 A 
ATOM     16  C   UNL     1      -9.410  -2.950   5.535  0.00  0.00    +0.047 A 
ATOM     17  C   UNL     1      -8.451  -3.483   4.679  0.00  0.00    +0.124 A 
ATOM     18  O   UNL     1      -7.873  -2.662   3.764  0.00  0.00    -0.491 OA
ATOM     19  C   UNL     1      -7.189  -3.266   2.664  0.00  0.00    +0.242 C 
ATOM     20 CL   UNL     1     -10.435  -6.094   7.771  0.00  0.00    -0.084 Cl
ENDBRANCH   7  10
BRANCH   1  21
ATOM     21  C   UNL     1      -0.598  -2.730   0.928  0.00  0.00    +0.019 C 
BRANCH  21  23
ATOM     22  N   UNL     1       0.847  -0.727   1.061  0.00  0.00    -0.287 N 
ATOM     23  C   UNL     1      -0.398  -1.238   0.988  0.00  0.00    +0.201 C 
ATOM     24  O   UNL     1      -1.357  -0.496   0.970  0.00  0.00    -0.278 OA
ATOM     25  H   UNL     1       1.720  -1.394   0.999  0.00  0.00    +0.155 HD
BRANCH  22  29
ATOM     26  C   UNL     1       1.392   3.377   1.523  0.00  0.00    +0.000 A 
ATOM     27  C   UNL     1       2.263   2.493   2.133  0.00  0.00    +0.002 A 
ATOM     28  C   UNL     1       2.085   1.132   1.982  0.00  0.00    +0.023 A 
ATOM     29  C   UNL     1       1.030   0.651   1.216  0.00  0.00    +0.033 A 
ATOM     30  C   UNL     1       0.161   1.542   0.601  0.00  0.00    +0.023 A 
ATOM     31  C   UNL     1       0.341   2.902   0.761  0.00  0.00    +0.002 A 
ENDBRANCH  22  29
ENDBRANCH  21  23
ENDBRANCH   1  21
TORSDOF 4
