REMARK  Name = ZINC63833361
REMARK  5 active torsions:
REMARK  status: ('A' for Active; 'I' for Inactive)
REMARK    1  A    between atoms: C_1  and  O_2
REMARK    2  A    between atoms: O_2  and  C_3
REMARK    3  A    between atoms: C_8  and  C_13
REMARK    4  A    between atoms: C_13  and  N_14
REMARK    5  A    between atoms: C_21  and  C_24
REMARK                            x       y       z     vdW  Elec       q    Type
REMARK                         _______ _______ _______ _____ _____    ______ ____
ROOT
ATOM      1  N   UNL     1      -4.329  -4.065  -2.415  0.00  0.00    -0.295 N 
ATOM      2  C   UNL     1      -5.107  -3.087  -2.946  0.00  0.00    +0.203 A 
ATOM      3  N   UNL     1      -4.732  -2.430  -4.011  0.00  0.00    -0.230 NA
ATOM      4  C   UNL     1      -3.574  -2.698  -4.609  0.00  0.00    +0.116 A 
ATOM      5  C   UNL     1      -2.705  -3.692  -4.132  0.00  0.00    +0.083 A 
ATOM      6  C   UNL     1      -3.143  -4.389  -2.962  0.00  0.00    +0.263 A 
ATOM      7  O   UNL     1      -2.454  -5.266  -2.469  0.00  0.00    -0.267 OA
ATOM      8  C   UNL     1      -1.477  -3.861  -4.902  0.00  0.00    +0.039 A 
ATOM      9  C   UNL     1      -1.274  -3.071  -5.986  0.00  0.00    +0.059 A 
ATOM     10  S   UNL     1      -2.734  -2.050  -6.031  0.00  0.00    -0.076 S 
ENDROOT
BRANCH   8  11
ATOM     11  C   UNL     1      -0.474  -4.872  -4.508  0.00  0.00    +0.136 A 
ATOM     12  C   UNL     1       0.095  -5.794  -5.330  0.00  0.00    +0.050 A 
ATOM     13  C   UNL     1       0.987  -6.547  -4.539  0.00  0.00    +0.042 A 
ATOM     14  C   UNL     1       0.919  -6.053  -3.288  0.00  0.00    +0.196 A 
ATOM     15  O   UNL     1       0.040  -5.037  -3.274  0.00  0.00    -0.463 OA
ENDBRANCH   8  11
BRANCH   1  16
ATOM     16  C   UNL     1      -4.788  -4.777  -1.220  0.00  0.00    +0.173 C 
BRANCH  16  22
ATOM     17  C   UNL     1      -1.198  -0.636   0.010  0.00  0.00    +0.122 A 
ATOM     18  C   UNL     1      -2.418   0.160   0.020  0.00  0.00    +0.048 A 
ATOM     19  C   UNL     1      -3.638  -0.408   0.029  0.00  0.00    +0.031 A 
ATOM     20  C   UNL     1      -3.762  -1.873   0.028  0.00  0.00    +0.060 A 
ATOM     21  N   UNL     1      -4.795  -2.665   0.036  0.00  0.00    -0.362 N 
ATOM     22  C   UNL     1      -4.295  -4.045   0.030  0.00  0.00    +0.194 C 
ATOM     23  N   UNL     1      -2.830  -3.955   0.019  0.00  0.00    -0.362 N 
ATOM     24  C   UNL     1      -2.517  -2.688   0.017  0.00  0.00    +0.064 A 
ATOM     25  C   UNL     1      -1.229  -1.991   0.003  0.00  0.00    +0.073 A 
ATOM     26  H   UNL     1      -5.726  -2.393   0.044  0.00  0.00    +0.162 HD
ATOM     27  H   UNL     1      -2.209  -4.700   0.013  0.00  0.00    +0.162 HD
BRANCH  17  29
ATOM     28  C   UNL     1      -0.017   1.425   0.010  0.00  0.00    +0.277 C 
ATOM     29  O   UNL     1       0.002  -0.004   0.002  0.00  0.00    -0.495 OA
ENDBRANCH  17  29
ENDBRANCH  16  22
ENDBRANCH   1  16
TORSDOF 4
