REMARK  Name = ZINC49176431
REMARK  6 active torsions:
REMARK  status: ('A' for Active; 'I' for Inactive)
REMARK    1  A    between atoms: C_1  and  C_2
REMARK    2  A    between atoms: N_5  and  C_11
REMARK    3  A    between atoms: C_7  and  C_9
REMARK    4  A    between atoms: C_7  and  C_10
REMARK    5  A    between atoms: C_11  and  C_12
REMARK    6  A    between atoms: C_17  and  O_18
REMARK                            x       y       z     vdW  Elec       q    Type
REMARK                         _______ _______ _______ _____ _____    ______ ____
ROOT
ATOM      1  C   UNL     1      -3.428  -2.167  -1.255  0.00  0.00    +0.012 A 
ATOM      2  C   UNL     1      -4.237  -1.047  -1.310  0.00  0.00    +0.058 A 
ATOM      3  C   UNL     1      -4.845  -0.687  -2.500  0.00  0.00    +0.167 A 
ATOM      4  C   UNL     1      -4.641  -1.455  -3.645  0.00  0.00    +0.170 A 
ATOM      5  C   UNL     1      -3.830  -2.576  -3.588  0.00  0.00    +0.095 A 
ATOM      6  C   UNL     1      -3.219  -2.930  -2.394  0.00  0.00    +0.125 A 
ATOM      7  O   UNL     1      -5.342  -0.897  -4.675  0.00  0.00    -0.452 OA
ATOM      8  C   UNL     1      -6.301  -0.018  -4.056  0.00  0.00    +0.466 C 
ATOM      9  O   UNL     1      -5.674   0.352  -2.814  0.00  0.00    -0.453 OA
ENDROOT
BRANCH   6  10
ATOM     10  O   UNL     1      -2.418  -4.027  -2.340  0.00  0.00    -0.506 OA
ATOM     11  H   UNL     1      -2.896  -4.856  -2.194  0.00  0.00    +0.292 HD
ENDBRANCH   6  10
BRANCH   1  12
ATOM     12  C   UNL     1      -2.767  -2.556   0.042  0.00  0.00    +0.123 C 
BRANCH  12  16
ATOM     13  C   UNL     1       0.536   1.084   0.299  0.00  0.00    +0.039 C 
ATOM     14  C   UNL     1       0.329  -0.411   0.045  0.00  0.00    +0.130 C 
ATOM     15  C   UNL     1      -1.160  -0.748   0.162  0.00  0.00    +0.116 C 
ATOM     16  N   UNL     1      -1.343  -2.197  -0.006  0.00  0.00    -0.293 NA
ATOM     17  C   UNL     1      -0.577  -2.940   1.005  0.00  0.00    +0.119 C 
ATOM     18  C   UNL     1       0.906  -2.581   0.880  0.00  0.00    +0.077 C 
ATOM     19  O   UNL     1       1.062  -1.166   1.014  0.00  0.00    -0.368 OA
ATOM     20  C   UNL     1       1.425  -3.023  -0.490  0.00  0.00    +0.042 C 
ATOM     21  C   UNL     1       1.697  -3.289   1.981  0.00  0.00    +0.042 C 
ENDBRANCH  12  16
ENDBRANCH   1  12
TORSDOF 3
