REMARK  Name = ZINC38936034
REMARK  6 active torsions:
REMARK  status: ('A' for Active; 'I' for Inactive)
REMARK    1  A    between atoms: C_4  and  C_7
REMARK    2  A    between atoms: N_9  and  C_10
REMARK    3  A    between atoms: C_10  and  C_12
REMARK    4  A    between atoms: C_10  and  C_24
REMARK    5  A    between atoms: N_26  and  N_27
REMARK    6  A    between atoms: C_28  and  C_29
REMARK                            x       y       z     vdW  Elec       q    Type
REMARK                         _______ _______ _______ _____ _____    ______ ____
ROOT
ATOM      1  C   UNL     1       4.995  -2.743  -0.059  0.00  0.00    +0.189 C 
ENDROOT
BRANCH   1   2
ATOM      2  C   UNL     1       5.041  -2.954  -1.573  0.00  0.00    +0.156 C 
ATOM      3  C   UNL     1       5.306  -1.616  -2.220  0.00  0.00    -0.009 A 
ATOM      4  C   UNL     1       6.415  -0.864  -1.934  0.00  0.00    +0.006 A 
ATOM      5  C   UNL     1       6.596   0.358  -2.567  0.00  0.00    +0.000 A 
ATOM      6  C   UNL     1       5.664   0.817  -3.482  0.00  0.00    +0.001 A 
ATOM      7  C   UNL     1       4.543   0.067  -3.777  0.00  0.00    +0.013 A 
ATOM      8  C   UNL     1       4.357  -1.160  -3.146  0.00  0.00    +0.045 A 
ATOM      9  C   UNL     1       3.184  -2.013  -3.414  0.00  0.00    +0.283 C 
ATOM     10  O   UNL     1       2.346  -1.644  -4.212  0.00  0.00    -0.267 OA
ATOM     11  N   UNL     1       3.031  -3.191  -2.791  0.00  0.00    -0.105 NA
ATOM     12  N   UNL     1       3.814  -3.662  -1.968  0.00  0.00    -0.305 N 
ATOM     13  H   UNL     1       3.617  -4.524  -1.569  0.00  0.00    +0.181 HD
ENDBRANCH   1   2
BRANCH   1  16
ATOM     14  C   UNL     1       3.648  -0.735   0.244  0.00  0.00    +0.245 C 
ATOM     15  O   UNL     1       4.605  -0.075  -0.111  0.00  0.00    -0.270 OA
ATOM     16  N   UNL     1       3.741  -2.078   0.304  0.00  0.00    -0.298 N 
ATOM     17  H   UNL     1       2.977  -2.605   0.587  0.00  0.00    +0.150 HD
BRANCH  14  21
ATOM     18  C   UNL     1       0.011   1.192   1.294  0.00  0.00    +0.000 A 
ATOM     19  C   UNL     1       1.099   1.946   0.890  0.00  0.00    +0.001 A 
ATOM     20  C   UNL     1       2.283   1.327   0.548  0.00  0.00    +0.013 A 
ATOM     21  C   UNL     1       2.382  -0.064   0.610  0.00  0.00    +0.037 A 
ATOM     22  C   UNL     1       1.282  -0.819   1.017  0.00  0.00    +0.013 A 
ATOM     23  C   UNL     1       0.103  -0.187   1.357  0.00  0.00    +0.001 A 
ENDBRANCH  14  21
ENDBRANCH   1  16
BRANCH   1  24
ATOM     24  C   UNL     1       5.076  -4.077   0.638  0.00  0.00    +0.255 C 
ATOM     25  O   UNL     1       4.063  -4.627   1.014  0.00  0.00    -0.272 OA
ATOM     26  N   UNL     1       6.274  -4.660   0.841  0.00  0.00    -0.205 N 
ATOM     27  H   UNL     1       7.089  -4.188   0.607  0.00  0.00    +0.177 HD
BRANCH  26  28
ATOM     28  N   UNL     1       6.343  -5.946   1.391  0.00  0.00    -0.188 NA
ATOM     29  C   UNL     1       7.501  -6.547   1.508  0.00  0.00    +0.136 C 
BRANCH  29  30
ATOM     30  C   UNL     1       7.559  -7.874   1.958  0.00  0.00    +0.000 C 
ATOM     31  C   UNL     1       8.701  -8.651   2.142  0.00  0.00    +0.004 A 
ATOM     32  C   UNL     1      10.076  -8.387   1.954  0.00  0.00    +0.010 A 
ATOM     33  C   UNL     1      10.989  -9.354   2.219  0.00  0.00    +0.001 A 
ATOM     34  C   UNL     1      10.606 -10.618   2.678  0.00  0.00    +0.002 A 
ATOM     35  C   UNL     1       9.306 -10.941   2.882  0.00  0.00    +0.026 A 
ATOM     36  C   UNL     1       8.291  -9.981   2.626  0.00  0.00    +0.043 A 
ATOM     37  N   UNL     1       6.982 -10.046   2.741  0.00  0.00    -0.380 N 
ATOM     38  C   UNL     1       6.397  -8.759   2.350  0.00  0.00    +0.150 C 
ATOM     39  H   UNL     1       6.482 -10.821   3.041  0.00  0.00    +0.160 HD
ENDBRANCH  29  30
ENDBRANCH  26  28
ENDBRANCH   1  24
TORSDOF 6
