REMARK  Name = ZINC04035947
REMARK  9 active torsions:
REMARK  status: ('A' for Active; 'I' for Inactive)
REMARK    1  A    between atoms: C_1  and  O_2
REMARK    2  A    between atoms: O_2  and  C_3
REMARK    3  A    between atoms: C_5  and  C_13
REMARK    4  A    between atoms: C_7  and  O_11
REMARK    5  A    between atoms: C_8  and  O_9
REMARK    6  A    between atoms: O_9  and  C_10
REMARK    7  A    between atoms: O_11  and  C_12
REMARK    8  A    between atoms: C_18  and  C_28
REMARK    9  A    between atoms: C_31  and  O_34
REMARK                            x       y       z     vdW  Elec       q    Type
REMARK                         _______ _______ _______ _____ _____    ______ ____
ROOT
ATOM      1  C   UNL     1       7.367  -0.187   0.982  0.00  0.00    +0.032 C 
ATOM      2  C   UNL     1       7.825   1.082   1.698  0.00  0.00    +0.059 C 
ATOM      3  C   UNL     1       6.819   2.198   1.473  0.00  0.00    +0.017 C 
ATOM      4  C   UNL     1       6.120   2.266   0.326  0.00  0.00    +0.036 C 
ATOM      5  C   UNL     1       5.103   3.323  -0.029  0.00  0.00    +0.136 C 
ATOM      6  N   UNL     1       5.086   4.466   0.859  0.00  0.00    -0.331 N 
ATOM      7  C   UNL     1       4.720   4.329   2.197  0.00  0.00    +0.049 A 
ATOM      8  C   UNL     1       3.550   4.886   2.687  0.00  0.00    +0.025 A 
ATOM      9  C   UNL     1       3.169   4.629   3.993  0.00  0.00    +0.002 A 
ATOM     10  C   UNL     1       3.948   3.823   4.803  0.00  0.00    +0.002 A 
ATOM     11  C   UNL     1       5.129   3.284   4.323  0.00  0.00    +0.025 A 
ATOM     12  C   UNL     1       5.521   3.556   3.024  0.00  0.00    +0.052 A 
ATOM     13  N   UNL     1       6.716   3.087   2.493  0.00  0.00    -0.316 N 
ATOM     14  C   UNL     1       6.304   1.287  -0.678  0.00  0.00    +0.163 C 
ATOM     15  O   UNL     1       5.673   1.382  -1.713  0.00  0.00    -0.292 OA
ATOM     16  C   UNL     1       7.251   0.137  -0.512  0.00  0.00    +0.088 C 
ATOM     17  H   UNL     1       5.365   5.461   0.481  0.00  0.00    +0.147 HD
ATOM     18  H   UNL     1       7.625   3.492   2.963  0.00  0.00    +0.152 HD
ENDROOT
BRANCH   1  21
ATOM     19  C   UNL     1       8.931  -3.471   2.007  0.00  0.00    +0.165 A 
ATOM     20  C   UNL     1       8.003  -2.459   1.813  0.00  0.00    +0.053 A 
ATOM     21  C   UNL     1       8.379  -1.284   1.190  0.00  0.00    -0.036 A 
ATOM     22  C   UNL     1       9.679  -1.115   0.752  0.00  0.00    +0.053 A 
ATOM     23  C   UNL     1      10.614  -2.120   0.947  0.00  0.00    +0.165 A 
ATOM     24  C   UNL     1      10.241  -3.303   1.573  0.00  0.00    +0.204 A 
BRANCH  19  26
ATOM     25  C   UNL     1       7.199  -4.731   3.041  0.00  0.00    +0.277 C 
ATOM     26  O   UNL     1       8.560  -4.627   2.621  0.00  0.00    -0.491 OA
ENDBRANCH  19  26
BRANCH  24  27
ATOM     27  O   UNL     1      11.155  -4.293   1.762  0.00  0.00    -0.488 OA
ATOM     28  C   UNL     1      11.281  -5.266   0.722  0.00  0.00    +0.277 C 
ENDBRANCH  24  27
BRANCH  23  29
ATOM     29  O   UNL     1      11.895  -1.950   0.521  0.00  0.00    -0.491 OA
ATOM     30  C   UNL     1      12.208  -0.709  -0.115  0.00  0.00    +0.277 C 
ENDBRANCH  23  29
ENDBRANCH   1  21
BRANCH   5  31
ATOM     31  C   UNL     1       3.735   2.692  -0.019  0.00  0.00    -0.023 A 
ATOM     32  C   UNL     1       3.221   2.175   1.156  0.00  0.00    +0.009 A 
ATOM     33  C   UNL     1       1.967   1.595   1.167  0.00  0.00    +0.046 A 
ATOM     34  C   UNL     1       1.223   1.532  -0.001  0.00  0.00    +0.117 A 
ATOM     35  C   UNL     1       1.742   2.047  -1.181  0.00  0.00    +0.046 A 
ATOM     36  C   UNL     1       2.994   2.631  -1.185  0.00  0.00    +0.009 A 
BRANCH  34  37
ATOM     37  O   UNL     1      -0.011   0.963   0.007  0.00  0.00    -0.507 OA
ATOM     38  H   UNL     1      -0.601   0.913  -0.920  0.00  0.00    +0.292 HD
ENDBRANCH  34  37
ENDBRANCH   5  31
TORSDOF 6
