REMARK  Name = ZINC45895996
REMARK  8 active torsions:
REMARK  status: ('A' for Active; 'I' for Inactive)
REMARK    1  A    between atoms: C_1  and  C_2
REMARK    2  A    between atoms: C_2  and  C_3
REMARK    3  A    between atoms: C_4  and  C_21
REMARK    4  A    between atoms: C_5  and  C_13
REMARK    5  A    between atoms: C_18  and  O_19
REMARK    6  A    between atoms: O_19  and  C_20
REMARK    7  A    between atoms: C_21  and  O_23
REMARK    8  A    between atoms: O_23  and  C_24
REMARK                            x       y       z     vdW  Elec       q    Type
REMARK                         _______ _______ _______ _____ _____    ______ ____
ROOT
ATOM      1  C   UNL     1       0.695  -0.593  -1.208  0.00  0.00    +0.023 C 
ATOM      2  C   UNL     1       2.033  -0.694  -1.191  0.00  0.00    +0.082 C 
ATOM      3  C   UNL     1       2.845  -1.073  -2.401  0.00  0.00    +0.184 C 
ATOM      4  N   UNL     1       1.999  -1.020  -3.588  0.00  0.00    -0.201 N 
ATOM      5  C   UNL     1       0.646  -0.908  -3.545  0.00  0.00    +0.240 A 
ATOM      6  N   UNL     1       0.220  -0.898  -4.775  0.00  0.00    -0.092 NA
ATOM      7  N   UNL     1       1.212  -0.993  -5.593  0.00  0.00    -0.021 NA
ATOM      8  N   UNL     1       2.327  -1.070  -4.941  0.00  0.00    -0.042 NA
ATOM      9  N   UNL     1      -0.043  -0.826  -2.342  0.00  0.00    -0.286 N 
ATOM     10  H   UNL     1      -1.007  -0.925  -2.305  0.00  0.00    +0.155 HD
ENDROOT
BRANCH   3  11
ATOM     11  C   UNL     1       3.382  -2.470  -2.228  0.00  0.00    +0.023 A 
ATOM     12  C   UNL     1       2.512  -3.531  -2.071  0.00  0.00    +0.009 A 
ATOM     13  C   UNL     1       3.004  -4.813  -1.911  0.00  0.00    +0.001 A 
ATOM     14  C   UNL     1       4.369  -5.037  -1.910  0.00  0.00    +0.004 A 
ATOM     15  C   UNL     1       5.243  -3.980  -2.067  0.00  0.00    +0.046 A 
ATOM     16  C   UNL     1       4.752  -2.693  -2.233  0.00  0.00    +0.126 A 
BRANCH  16  17
ATOM     17  O   UNL     1       5.610  -1.652  -2.393  0.00  0.00    -0.495 OA
ATOM     18  C   UNL     1       7.006  -1.955  -2.388  0.00  0.00    +0.277 C 
ENDBRANCH  16  17
ENDBRANCH   3  11
BRANCH   1  20
ATOM     19  C   UNL     1      -0.201   1.300   0.119  0.00  0.00    +0.010 C 
ATOM     20  C   UNL     1      -0.023  -0.219   0.063  0.00  0.00    +0.048 C 
ENDBRANCH   1  20
BRANCH   2  21
ATOM     21  C   UNL     1       2.712  -0.430   0.019  0.00  0.00    +0.339 C 
ATOM     22  O   UNL     1       3.247   0.649   0.194  0.00  0.00    -0.245 OA
BRANCH  21  23
ATOM     23  O   UNL     1       2.768  -1.375   0.981  0.00  0.00    -0.465 OA
ATOM     24  C   UNL     1       3.471  -1.040   2.179  0.00  0.00    +0.280 C 
ENDBRANCH  21  23
ENDBRANCH   2  21
TORSDOF 5
