REMARK  Name = ZINC66571587
REMARK  7 active torsions:
REMARK  status: ('A' for Active; 'I' for Inactive)
REMARK    1  A    between atoms: C_1  and  C_2
REMARK    2  A    between atoms: N_10  and  C_13
REMARK    3  A    between atoms: C_13  and  C_15
REMARK    4  A    between atoms: C_13  and  C_16
REMARK    5  A    between atoms: N_18  and  N_19
REMARK    6  A    between atoms: C_20  and  C_22
REMARK    7  A    between atoms: C_22  and  C_23
REMARK                            x       y       z     vdW  Elec       q    Type
REMARK                         _______ _______ _______ _____ _____    ______ ____
ROOT
ATOM      1  C   UNL     1      -1.135  -6.410   2.007  0.00  0.00    +0.250 C 
ATOM      2  O   UNL     1      -1.943  -5.960   1.223  0.00  0.00    -0.272 OA
ATOM      3  N   UNL     1      -1.329  -7.627   2.553  0.00  0.00    -0.233 N 
ATOM      4  H   UNL     1      -0.683  -7.986   3.180  0.00  0.00    +0.173 HD
ENDROOT
BRANCH   3   5
ATOM      5  N   UNL     1      -2.465  -8.373   2.213  0.00  0.00    -0.234 N 
ATOM      6  C   UNL     1      -2.660  -9.590   2.759  0.00  0.00    +0.229 C 
ATOM      7  O   UNL     1      -1.852 -10.039   3.544  0.00  0.00    -0.274 OA
ATOM      8  H   UNL     1      -3.112  -8.014   1.586  0.00  0.00    +0.173 HD
BRANCH   6   9
ATOM      9  C   UNL     1      -3.882 -10.393   2.394  0.00  0.00    +0.101 C 
BRANCH   9  10
ATOM     10  C   UNL     1      -3.861 -11.725   3.146  0.00  0.00    -0.002 C 
ATOM     11  C   UNL     1      -2.671 -12.560   2.670  0.00  0.00    +0.004 C 
ATOM     12  C   UNL     1      -2.649 -13.892   3.423  0.00  0.00    +0.000 C 
ATOM     13  C   UNL     1      -3.948 -14.653   3.149  0.00  0.00    +0.000 C 
ATOM     14  C   UNL     1      -5.138 -13.818   3.625  0.00  0.00    +0.000 C 
ATOM     15  C   UNL     1      -5.160 -12.486   2.873  0.00  0.00    +0.004 C 
ENDBRANCH   9  10
ENDBRANCH   6   9
ENDBRANCH   3   5
BRANCH   1  16
ATOM     16  C   UNL     1       0.087  -5.607   2.373  0.00  0.00    +0.169 C 
ATOM     17  C   UNL     1       1.345  -6.389   1.989  0.00  0.00    +0.038 C 
BRANCH  16  27
ATOM     18  C   UNL     1      -0.018   1.503   0.010  0.00  0.00    +0.044 C 
ATOM     19  C   UNL     1       0.002  -0.004   0.002  0.00  0.00    -0.050 A 
ATOM     20  C   UNL     1       0.006  -0.684  -1.202  0.00  0.00    +0.004 A 
ATOM     21  C   UNL     1       0.024  -2.070  -1.226  0.00  0.00    +0.014 A 
ATOM     22  C   UNL     1       0.039  -2.777  -0.035  0.00  0.00    +0.049 A 
ATOM     23  C   UNL     1       0.036  -2.084   1.192  0.00  0.00    +0.050 A 
ATOM     24  C   UNL     1       0.023  -0.699   1.201  0.00  0.00    +0.017 A 
ATOM     25  C   UNL     1       0.054  -3.123   2.244  0.00  0.00    +0.254 C 
ATOM     26  O   UNL     1       0.057  -2.920   3.441  0.00  0.00    -0.270 OA
ATOM     27  N   UNL     1       0.067  -4.331   1.652  0.00  0.00    -0.222 N 
ATOM     28  C   UNL     1       0.059  -4.214   0.312  0.00  0.00    +0.254 C 
ATOM     29  O   UNL     1       0.067  -5.135  -0.480  0.00  0.00    -0.270 OA
ENDBRANCH  16  27
ENDBRANCH   1  16
TORSDOF 5
