REMARK  Name = ZINC67622268
REMARK  6 active torsions:
REMARK  status: ('A' for Active; 'I' for Inactive)
REMARK    1  A    between atoms: C_1  and  N_2
REMARK    2  A    between atoms: C_3  and  C_5
REMARK    3  A    between atoms: C_5  and  N_6
REMARK    4  A    between atoms: C_9  and  N_12
REMARK    5  A    between atoms: C_18  and  N_21
REMARK    6  A    between atoms: N_21  and  C_22
REMARK                            x       y       z     vdW  Elec       q    Type
REMARK                         _______ _______ _______ _____ _____    ______ ____
ROOT
ATOM      1  N   UNL     1      -6.090  -4.732  -0.927  0.00  0.00    -0.297 N 
ATOM      2  C   UNL     1      -6.435  -5.985  -1.285  0.00  0.00    +0.302 C 
ATOM      3  O   UNL     1      -5.590  -6.752  -1.705  0.00  0.00    -0.253 OA
ATOM      4  N   UNL     1      -7.717  -6.387  -1.179  0.00  0.00    -0.284 N 
ATOM      5  C   UNL     1      -8.836  -5.565  -0.695  0.00  0.00    +0.111 C 
ATOM      6  C   UNL     1     -10.110  -6.432  -0.774  0.00  0.00    +0.043 C 
ATOM      7  C   UNL     1      -9.734  -7.506  -1.829  0.00  0.00    +0.089 C 
ATOM      8  C   UNL     1      -8.231  -7.722  -1.533  0.00  0.00    +0.131 C 
ATOM      9  H   UNL     1      -6.764  -4.121  -0.592  0.00  0.00    +0.151 HD
ENDROOT
BRANCH   1  13
ATOM     10  N   UNL     1      -2.514  -2.709   0.011  0.00  0.00    +0.385 N 
ATOM     11  C   UNL     1      -3.188  -2.315  -1.231  0.00  0.00    -0.076 C 
ATOM     12  C   UNL     1      -4.648  -2.772  -1.190  0.00  0.00    +0.004 C 
ATOM     13  C   UNL     1      -4.696  -4.295  -1.043  0.00  0.00    +0.071 C 
ATOM     14  C   UNL     1      -3.926  -4.701   0.217  0.00  0.00    +0.004 C 
ATOM     15  C   UNL     1      -2.493  -4.172   0.124  0.00  0.00    -0.076 C 
ATOM     16  H   UNL     1      -3.009  -2.319   0.799  0.00  0.00    -0.081 HD
BRANCH  10  17
ATOM     17  C   UNL     1      -1.135  -2.201   0.001  0.00  0.00    +0.019 C 
BRANCH  17  20
ATOM     18  C   UNL     1      -0.018   1.461   0.010  0.00  0.00    +0.128 C 
ATOM     19  N   UNL     1       0.002  -0.004   0.002  0.00  0.00    -0.320 N 
ATOM     20  C   UNL     1      -1.156  -0.694   0.009  0.00  0.00    +0.196 C 
ATOM     21  O   UNL     1      -2.214  -0.102   0.023  0.00  0.00    -0.278 OA
ATOM     22  H   UNL     1       0.849  -0.478  -0.009  0.00  0.00    +0.148 HD
ENDBRANCH  17  20
ENDBRANCH  10  17
ENDBRANCH   1  13
BRANCH   7  23
ATOM     23  N   UNL     1     -10.497  -8.739  -1.618  0.00  0.00    -0.339 N 
ATOM     24  H   UNL     1     -10.844  -8.949  -0.737  0.00  0.00    +0.146 HD
BRANCH  23  25
ATOM     25  C   UNL     1     -10.725  -9.610  -2.685  0.00  0.00    +0.027 A 
ATOM     26  C   UNL     1     -10.223  -9.313  -3.946  0.00  0.00    +0.023 A 
ATOM     27  C   UNL     1     -10.450 -10.177  -4.999  0.00  0.00    +0.002 A 
ATOM     28  C   UNL     1     -11.175 -11.337  -4.800  0.00  0.00    +0.000 A 
ATOM     29  C   UNL     1     -11.676 -11.636  -3.546  0.00  0.00    +0.002 A 
ATOM     30  C   UNL     1     -11.448 -10.780  -2.487  0.00  0.00    +0.023 A 
ENDBRANCH  23  25
ENDBRANCH   7  23
TORSDOF 5
