REMARK  Name = ZINC16882636
REMARK  8 active torsions:
REMARK  status: ('A' for Active; 'I' for Inactive)
REMARK    1  A    between atoms: C_1  and  C_2
REMARK    2  A    between atoms: C_4  and  C_26
REMARK    3  A    between atoms: C_5  and  C_9
REMARK    4  A    between atoms: C_6  and  C_8
REMARK    5  A    between atoms: C_9  and  N_10
REMARK    6  A    between atoms: C_13  and  O_25
REMARK    7  A    between atoms: C_14  and  C_17
REMARK    8  A    between atoms: C_17  and  C_18
REMARK                            x       y       z     vdW  Elec       q    Type
REMARK                         _______ _______ _______ _____ _____    ______ ____
ROOT
ATOM      1  N   UNL     1       1.054   2.129  -0.393  0.00  0.00    -0.294 N 
ATOM      2  C   UNL     1      -0.152   1.609  -0.089  0.00  0.00    +0.206 A 
ATOM      3  N   UNL     1      -1.233   2.340  -0.087  0.00  0.00    -0.203 NA
ATOM      4  C   UNL     1      -1.191   3.648  -0.377  0.00  0.00    +0.222 A 
ATOM      5  C   UNL     1       0.018   4.237  -0.695  0.00  0.00    +0.083 A 
ATOM      6  C   UNL     1       1.171   3.438  -0.700  0.00  0.00    +0.261 A 
ATOM      7  O   UNL     1       2.259   3.917  -0.975  0.00  0.00    -0.267 OA
ENDROOT
BRANCH   4   8
ATOM      8  O   UNL     1      -2.325   4.386  -0.361  0.00  0.00    -0.492 OA
ATOM      9  H   UNL     1      -3.118   3.884  -0.127  0.00  0.00    +0.294 HD
ENDBRANCH   4   8
BRANCH   1  10
ATOM     10  C   UNL     1       2.241   1.271  -0.390  0.00  0.00    +0.162 C 
BRANCH  10  15
ATOM     11  C   UNL     1       3.298  -0.579  -5.761  0.00  0.00    +0.044 C 
ATOM     12  C   UNL     1       3.022  -0.096  -4.361  0.00  0.00    -0.050 A 
ATOM     13  C   UNL     1       3.837   0.862  -3.786  0.00  0.00    +0.007 A 
ATOM     14  C   UNL     1       3.584   1.304  -2.501  0.00  0.00    -0.045 A 
ATOM     15  C   UNL     1       2.516   0.789  -1.791  0.00  0.00    -0.022 A 
ATOM     16  C   UNL     1       1.705  -0.173  -2.363  0.00  0.00    -0.045 A 
ATOM     17  C   UNL     1       1.954  -0.611  -3.650  0.00  0.00    +0.007 A 
ATOM     18  C   UNL     1       0.544  -0.739  -1.586  0.00  0.00    +0.044 C 
ATOM     19  C   UNL     1       4.473   2.348  -1.875  0.00  0.00    +0.044 C 
ENDBRANCH  10  15
ENDBRANCH   1  10
BRANCH   5  20
ATOM     20  C   UNL     1       0.095   5.705  -1.031  0.00  0.00    +0.082 C 
BRANCH  20  21
ATOM     21  C   UNL     1       0.427   6.488   0.213  0.00  0.00    -0.024 A 
ATOM     22  C   UNL     1       0.695   5.825   1.396  0.00  0.00    +0.005 A 
ATOM     23  C   UNL     1       1.005   6.543   2.536  0.00  0.00    +0.000 A 
ATOM     24  C   UNL     1       1.037   7.925   2.496  0.00  0.00    +0.001 A 
ATOM     25  C   UNL     1       0.764   8.588   1.315  0.00  0.00    +0.020 A 
ATOM     26  C   UNL     1       0.459   7.870   0.172  0.00  0.00    +0.044 A 
ATOM     27 CL   UNL     1       0.116   8.703  -1.312  0.00  0.00    -0.083 Cl
ENDBRANCH  20  21
ENDBRANCH   5  20
TORSDOF 5
