REMARK  Name = ZINC12640999
REMARK  10 active torsions:
REMARK  status: ('A' for Active; 'I' for Inactive)
REMARK    1  A    between atoms: C_1  and  C_2
REMARK    2  A    between atoms: C_2  and  C_3
REMARK    3  A    between atoms: C_2  and  C_4
REMARK    4  A    between atoms: C_2  and  N_5
REMARK    5  A    between atoms: C_6  and  C_8
REMARK    6  A    between atoms: C_8  and  C_10
REMARK    7  A    between atoms: C_8  and  N_15
REMARK    8  A    between atoms: N_15  and  C_16
REMARK    9  A    between atoms: C_26  and  C_28
REMARK   10  A    between atoms: N_30  and  C_31
REMARK                            x       y       z     vdW  Elec       q    Type
REMARK                         _______ _______ _______ _____ _____    ______ ____
ROOT
ATOM      1  N   UNL     1       2.443   1.319   0.087  0.00  0.00    -0.244 N 
ATOM      2  C   UNL     1       1.242   1.909  -0.071  0.00  0.00    +0.307 C 
ATOM      3  O   UNL     1       1.173   3.110  -0.237  0.00  0.00    -0.265 OA
ENDROOT
BRANCH   1   4
ATOM      4  C   UNL     1       3.597   2.101   0.207  0.00  0.00    +0.042 A 
ATOM      5  C   UNL     1       4.848   1.497   0.218  0.00  0.00    +0.027 A 
ATOM      6  C   UNL     1       5.987   2.269   0.337  0.00  0.00    +0.051 A 
ATOM      7  C   UNL     1       5.886   3.648   0.446  0.00  0.00    +0.162 A 
ATOM      8  C   UNL     1       4.636   4.256   0.433  0.00  0.00    +0.164 A 
ATOM      9  C   UNL     1       3.493   3.482   0.309  0.00  0.00    +0.073 A 
ATOM     10  O   UNL     1       4.517   5.608   0.534  0.00  0.00    -0.485 OA
ATOM     11  C   UNL     1       5.658   6.319   1.028  0.00  0.00    +0.270 C 
ATOM     12  C   UNL     1       6.902   5.794   0.299  0.00  0.00    +0.270 C 
ATOM     13  O   UNL     1       7.020   4.392   0.567  0.00  0.00    -0.485 OA
ENDBRANCH   1   4
BRANCH   2  14
ATOM     14  C   UNL     1      -0.004   1.087  -0.041  0.00  0.00    +0.300 C 
ATOM     15  O   UNL     1       0.069  -0.123   0.016  0.00  0.00    -0.265 OA
ATOM     16  N   UNL     1      -1.209   1.688  -0.083  0.00  0.00    -0.305 N 
ATOM     17  H   UNL     1      -1.267   2.656  -0.128  0.00  0.00    +0.149 HD
BRANCH  16  18
ATOM     18  C   UNL     1      -2.432   0.881  -0.059  0.00  0.00    +0.073 C 
ATOM     19  C   UNL     1      -2.826   0.477  -1.495  0.00  0.00    +0.022 C 
ATOM     20  C   UNL     1      -4.373   0.543  -1.497  0.00  0.00    +0.002 C 
ATOM     21  C   UNL     1      -4.664   1.782  -0.615  0.00  0.00    +0.002 C 
ATOM     22  C   UNL     1      -3.600   1.711   0.500  0.00  0.00    +0.022 C 
ENDBRANCH  16  18
ENDBRANCH   2  14
BRANCH   1  23
ATOM     23  C   UNL     1       2.541  -0.142   0.134  0.00  0.00    +0.233 C 
BRANCH  23  24
ATOM     24  C   UNL     1       3.300  -0.634  -1.072  0.00  0.00    +0.135 A 
ATOM     25  C   UNL     1       3.005  -1.729  -1.794  0.00  0.00    +0.047 A 
ATOM     26  C   UNL     1       3.969  -1.812  -2.825  0.00  0.00    +0.041 A 
ATOM     27  C   UNL     1       4.795  -0.762  -2.671  0.00  0.00    +0.195 A 
ATOM     28  O   UNL     1       4.381  -0.049  -1.611  0.00  0.00    -0.465 OA
ENDBRANCH  23  24
BRANCH  23  30
ATOM     29  N   UNL     1       3.134  -1.813   1.859  0.00  0.00    -0.309 N 
ATOM     30  C   UNL     1       3.267  -0.557   1.388  0.00  0.00    +0.242 C 
ATOM     31  O   UNL     1       3.970   0.239   1.973  0.00  0.00    -0.273 OA
ATOM     32  H   UNL     1       2.572  -2.450   1.390  0.00  0.00    +0.149 HD
BRANCH  29  34
ATOM     33  C   UNL     1       3.388  -1.336   4.244  0.00  0.00    +0.031 C 
ATOM     34  C   UNL     1       3.840  -2.217   3.077  0.00  0.00    +0.026 C 
ATOM     35  C   UNL     1       3.520  -3.680   3.390  0.00  0.00    +0.031 C 
ATOM     36  C   UNL     1       5.347  -2.057   2.871  0.00  0.00    +0.031 C 
ENDBRANCH  29  34
ENDBRANCH  23  30
ENDBRANCH   1  23
TORSDOF 7
