REMARK  Name = ZINC03527667
REMARK  6 active torsions:
REMARK  status: ('A' for Active; 'I' for Inactive)
REMARK    1  A    between atoms: C_1  and  C_2
REMARK    2  A    between atoms: C_5  and  C_25
REMARK    3  A    between atoms: C_6  and  C_8
REMARK    4  A    between atoms: C_8  and  C_10
REMARK    5  A    between atoms: C_10  and  N_11
REMARK    6  A    between atoms: C_19  and  C_21
REMARK                            x       y       z     vdW  Elec       q    Type
REMARK                         _______ _______ _______ _____ _____    ______ ____
ROOT
ATOM      1  N   UNL     1       2.577   3.766   1.808  0.00  0.00    -0.217 N 
ATOM      2  C   UNL     1       2.065   2.742   1.095  0.00  0.00    +0.247 C 
ATOM      3  O   UNL     1       2.085   1.564   1.383  0.00  0.00    -0.273 OA
ATOM      4  C   UNL     1       1.461   3.371  -0.140  0.00  0.00    +0.115 C 
ATOM      5  C   UNL     1       2.148   2.846  -1.395  0.00  0.00    +0.035 C 
ATOM      6  C   UNL     1       1.895   1.341  -1.525  0.00  0.00    +0.003 C 
ATOM      7  C   UNL     1       0.388   1.084  -1.602  0.00  0.00    +0.000 C 
ATOM      8  C   UNL     1      -0.285   1.598  -0.328  0.00  0.00    +0.006 C 
ATOM      9  C   UNL     1      -0.039   3.103  -0.193  0.00  0.00    +0.018 C 
ATOM     10  C   UNL     1      -0.695   3.614   1.092  0.00  0.00    +0.010 C 
ATOM     11  N   UNL     1       1.722   4.806   0.028  0.00  0.00    -0.285 N 
ATOM     12  C   UNL     1       2.379   4.940   1.196  0.00  0.00    +0.310 C 
ATOM     13  O   UNL     1       2.751   6.007   1.644  0.00  0.00    -0.252 OA
ATOM     14  H   UNL     1       1.470   5.518  -0.582  0.00  0.00    +0.151 HD
ENDROOT
BRANCH   1  15
ATOM     15  C   UNL     1       3.265   3.613   3.092  0.00  0.00    +0.197 C 
BRANCH  15  16
ATOM     16  C   UNL     1       4.740   3.415   2.851  0.00  0.00    +0.181 C 
ATOM     17  O   UNL     1       5.173   3.403   1.719  0.00  0.00    -0.290 OA
BRANCH  16  23
ATOM     18  C   UNL     1       5.535   3.352   7.773  0.00  0.00    +0.044 C 
ATOM     19  C   UNL     1       6.043   3.204   6.362  0.00  0.00    -0.050 A 
ATOM     20  C   UNL     1       7.374   2.898   6.136  0.00  0.00    +0.003 A 
ATOM     21  C   UNL     1       7.849   2.760   4.843  0.00  0.00    +0.004 A 
ATOM     22  C   UNL     1       6.998   2.922   3.771  0.00  0.00    -0.040 A 
ATOM     23  C   UNL     1       5.654   3.236   3.991  0.00  0.00    +0.022 A 
ATOM     24  C   UNL     1       5.180   3.374   5.300  0.00  0.00    +0.015 A 
ATOM     25  C   UNL     1       7.517   2.766   2.364  0.00  0.00    +0.044 C 
ENDBRANCH  16  23
ENDBRANCH  15  16
ENDBRANCH   1  15
TORSDOF 3
