REMARK  Name = ZINC20975173
REMARK  5 active torsions:
REMARK  status: ('A' for Active; 'I' for Inactive)
REMARK    1  A    between atoms: C_1  and  C_2
REMARK    2  A    between atoms: N_13  and  C_24
REMARK    3  A    between atoms: C_14  and  S_16
REMARK    4  A    between atoms: S_16  and  C_17
REMARK    5  A    between atoms: C_17  and  C_18
REMARK                            x       y       z     vdW  Elec       q    Type
REMARK                         _______ _______ _______ _____ _____    ______ ____
ROOT
ATOM      1  C   UNL     1      -9.038   7.804   3.171  0.00  0.00    +0.008 C 
ATOM      2  C   UNL     1      -8.468   6.679   2.304  0.00  0.00    -0.009 C 
ATOM      3  C   UNL     1      -8.366   5.395   3.132  0.00  0.00    +0.008 C 
ATOM      4  C   UNL     1      -8.038   4.213   2.218  0.00  0.00    +0.037 C 
ATOM      5  C   UNL     1      -6.806   4.561   1.387  0.00  0.00    -0.023 A 
ATOM      6  C   UNL     1      -6.415   5.843   1.238  0.00  0.00    -0.004 A 
ATOM      7  S   UNL     1      -4.969   5.766   0.215  0.00  0.00    -0.073 S 
ATOM      8  C   UNL     1      -4.895   4.007  -0.011  0.00  0.00    +0.117 A 
ATOM      9  C   UNL     1      -6.000   3.538   0.719  0.00  0.00    +0.076 A 
ATOM     10  C   UNL     1      -6.194   2.120   0.715  0.00  0.00    +0.268 A 
ATOM     11  O   UNL     1      -7.127   1.622   1.320  0.00  0.00    -0.267 OA
ATOM     12  N   UNL     1      -5.334   1.344   0.029  0.00  0.00    -0.255 N 
ATOM     13  C   UNL     1      -4.279   1.885  -0.652  0.00  0.00    +0.178 A 
ATOM     14  N   UNL     1      -4.080   3.188  -0.664  0.00  0.00    -0.215 NA
ATOM     15  C   UNL     1      -7.064   7.063   1.815  0.00  0.00    +0.046 C 
ENDROOT
BRANCH  12  16
ATOM     16  C   UNL     1      -5.521  -0.045   0.017  0.00  0.00    +0.052 A 
ATOM     17  C   UNL     1      -6.302  -0.633  -0.968  0.00  0.00    +0.028 A 
ATOM     18  C   UNL     1      -6.480  -2.002  -0.981  0.00  0.00    +0.022 A 
ATOM     19  C   UNL     1      -5.889  -2.787  -0.006  0.00  0.00    +0.041 A 
ATOM     20  C   UNL     1      -5.114  -2.203   0.980  0.00  0.00    +0.022 A 
ATOM     21  C   UNL     1      -4.928  -0.834   0.994  0.00  0.00    +0.028 A 
ATOM     22 CL   UNL     1      -6.120  -4.508  -0.021  0.00  0.00    -0.084 Cl
ENDBRANCH  12  16
BRANCH  13  23
ATOM     23  S   UNL     1      -3.177   0.828  -1.530  0.00  0.00    -0.078 S 
BRANCH  23  24
ATOM     24  C   UNL     1      -2.037   2.058  -2.210  0.00  0.00    +0.173 C 
BRANCH  24  25
ATOM     25  C   UNL     1      -0.976   1.363  -3.024  0.00  0.00    +0.231 C 
ATOM     26  O   UNL     1      -0.989   0.156  -3.133  0.00  0.00    -0.274 OA
ATOM     27  N   UNL     1      -0.015   2.085  -3.635  0.00  0.00    -0.240 N 
ATOM     28  C   UNL     1       0.931   1.464  -4.367  0.00  0.00    +0.303 C 
ATOM     29  O   UNL     1       0.918   0.254  -4.477  0.00  0.00    -0.253 OA
ATOM     30  N   UNL     1       1.892   2.185  -4.978  0.00  0.00    -0.313 N 
ATOM     31  H   UNL     1      -0.003   3.180  -3.536  0.00  0.00    +0.159 HD
ATOM     32  H   UNL     1       2.664   1.679  -5.576  0.00  0.00    +0.146 HD
ATOM     33  H   UNL     1       1.904   3.281  -4.879  0.00  0.00    +0.146 HD
ENDBRANCH  24  25
ENDBRANCH  23  24
ENDBRANCH  13  23
TORSDOF 4
