REMARK  Name = ZINC07088474
REMARK  4 active torsions:
REMARK  status: ('A' for Active; 'I' for Inactive)
REMARK    1  A    between atoms: C_1  and  C_2
REMARK    2  A    between atoms: C_2  and  C_3
REMARK    3  A    between atoms: N_11  and  C_15
REMARK    4  A    between atoms: C_15  and  C_16
REMARK                            x       y       z     vdW  Elec       q    Type
REMARK                         _______ _______ _______ _____ _____    ______ ____
ROOT
ATOM      1  C   UNL     1      -3.704   8.750  -7.438  0.00  0.00    -0.011 C 
ATOM      2  C   UNL     1      -4.032   7.615  -6.465  0.00  0.00    +0.006 C 
ATOM      3  C   UNL     1      -2.743   6.880  -6.089  0.00  0.00    +0.035 C 
ATOM      4  C   UNL     1      -1.767   7.859  -5.445  0.00  0.00    +0.113 C 
ATOM      5  C   UNL     1      -1.448   9.007  -6.396  0.00  0.00    +0.035 C 
ATOM      6  C   UNL     1      -2.742   9.735  -6.771  0.00  0.00    +0.006 C 
ATOM      7  C   UNL     1      -0.496   7.151  -5.034  0.00  0.00    +0.247 C 
ATOM      8  O   UNL     1       0.290   6.577  -5.756  0.00  0.00    -0.273 OA
ATOM      9  N   UNL     1      -0.422   7.293  -3.695  0.00  0.00    -0.220 N 
ATOM     10  C   UNL     1      -1.458   7.992  -3.215  0.00  0.00    +0.310 C 
ATOM     11  O   UNL     1      -1.609   8.254  -2.038  0.00  0.00    -0.252 OA
ATOM     12  N   UNL     1      -2.313   8.373  -4.183  0.00  0.00    -0.285 N 
ATOM     13  H   UNL     1      -3.128   8.886  -4.069  0.00  0.00    +0.151 HD
ENDROOT
BRANCH   1  15
ATOM     14  C   UNL     1      -4.685  10.532  -8.889  0.00  0.00    +0.004 C 
ATOM     15  C   UNL     1      -4.993   9.479  -7.823  0.00  0.00    -0.000 C 
ENDBRANCH   1  15
BRANCH   9  16
ATOM     16  C   UNL     1       0.661   6.753  -2.869  0.00  0.00    +0.153 C 
BRANCH  16  17
ATOM     17  C   UNL     1       0.299   5.363  -2.412  0.00  0.00    -0.025 A 
ATOM     18  C   UNL     1      -0.387   5.184  -1.223  0.00  0.00    +0.054 A 
ATOM     19  C   UNL     1      -0.717   3.906  -0.807  0.00  0.00    +0.164 A 
ATOM     20  C   UNL     1      -0.361   2.809  -1.579  0.00  0.00    +0.180 A 
ATOM     21  C   UNL     1       0.324   2.991  -2.769  0.00  0.00    +0.086 A 
ATOM     22  C   UNL     1       0.653   4.271  -3.182  0.00  0.00    +0.029 A 
ATOM     23 CL   UNL     1       0.769   1.621  -3.737  0.00  0.00    -0.080 Cl
ATOM     24  O   UNL     1      -0.692   1.553  -1.159  0.00  0.00    -0.487 OA
ATOM     25  C   UNL     1      -0.013   1.086   0.008  0.00  0.00    +0.232 C 
ATOM     26  C   UNL     1      -0.712   1.570   1.269  0.00  0.00    +0.082 C 
ATOM     27  C   UNL     1      -0.662   3.083   1.413  0.00  0.00    +0.232 C 
ATOM     28  O   UNL     1      -1.394   3.716   0.363  0.00  0.00    -0.488 OA
ENDBRANCH  16  17
ENDBRANCH   9  16
TORSDOF 3
