REMARK  Name = ZINC13590388
REMARK  5 active torsions:
REMARK  status: ('A' for Active; 'I' for Inactive)
REMARK    1  A    between atoms: C_1  and  C_2
REMARK    2  A    between atoms: N_4  and  C_26
REMARK    3  A    between atoms: C_8  and  C_9
REMARK    4  A    between atoms: C_10  and  O_25
REMARK    5  A    between atoms: N_15  and  C_18
REMARK                            x       y       z     vdW  Elec       q    Type
REMARK                         _______ _______ _______ _____ _____    ______ ____
ROOT
ATOM      1  C   UNL     1       1.100  -0.632   0.446  0.00  0.00    +0.100 A 
ATOM      2  C   UNL     1       1.968  -0.055   1.390  0.00  0.00    +0.207 A 
ATOM      3  N   UNL     1       2.137   1.296   1.391  0.00  0.00    -0.278 N 
ATOM      4  H   UNL     1       2.732   1.700   2.042  0.00  0.00    +0.173 HD
ATOM      5  C   UNL     1       1.494   2.082   0.513  0.00  0.00    +0.337 A 
ATOM      6  O   UNL     1       1.681   3.282   0.557  0.00  0.00    -0.246 OA
ATOM      7  N   UNL     1       0.653   1.592  -0.412  0.00  0.00    -0.228 N 
ATOM      8  C   UNL     1       0.416   0.267  -0.497  0.00  0.00    +0.272 A 
ATOM      9  O   UNL     1      -0.347  -0.176  -1.335  0.00  0.00    -0.266 OA
ENDROOT
BRANCH   1  17
ATOM     10  C   UNL     1       0.755  -5.216   0.585  0.00  0.00    +0.068 C 
ATOM     11  C   UNL     1       1.961  -4.349   0.328  0.00  0.00    +0.069 C 
ATOM     12  N   UNL     1       3.177  -4.762   0.128  0.00  0.00    -0.177 NA
ATOM     13  N   UNL     1       4.030  -3.674  -0.070  0.00  0.00    -0.156 N 
ATOM     14  C   UNL     1       3.330  -2.526   0.001  0.00  0.00    +0.272 C 
ATOM     15  O   UNL     1       3.771  -1.395  -0.127  0.00  0.00    -0.268 OA
ATOM     16  C   UNL     1       1.976  -2.883   0.254  0.00  0.00    +0.062 C 
ATOM     17  C   UNL     1       0.893  -2.022   0.405  0.00  0.00    +0.033 C 
BRANCH  13  18
ATOM     18  C   UNL     1       5.409  -3.764  -0.306  0.00  0.00    +0.061 A 
ATOM     19  C   UNL     1       6.158  -2.610  -0.494  0.00  0.00    +0.028 A 
ATOM     20  C   UNL     1       7.518  -2.700  -0.722  0.00  0.00    +0.040 A 
ATOM     21  C   UNL     1       8.131  -3.941  -0.774  0.00  0.00    +0.124 A 
ATOM     22  C   UNL     1       7.384  -5.093  -0.592  0.00  0.00    +0.040 A 
ATOM     23  C   UNL     1       6.026  -5.007  -0.358  0.00  0.00    +0.028 A 
ATOM     24  F   UNL     1       9.460  -4.027  -1.002  0.00  0.00    -0.205 F 
ENDBRANCH  13  18
ENDBRANCH   1  17
BRANCH   7  25
ATOM     25  C   UNL     1       0.013   2.469  -1.299  0.00  0.00    +0.054 A 
ATOM     26  C   UNL     1       0.361   2.475  -2.643  0.00  0.00    +0.028 A 
ATOM     27  C   UNL     1      -0.275   3.336  -3.516  0.00  0.00    +0.022 A 
ATOM     28  C   UNL     1      -1.251   4.199  -3.050  0.00  0.00    +0.041 A 
ATOM     29  C   UNL     1      -1.596   4.199  -1.710  0.00  0.00    +0.022 A 
ATOM     30  C   UNL     1      -0.967   3.336  -0.834  0.00  0.00    +0.028 A 
ATOM     31 CL   UNL     1      -2.044   5.285  -4.149  0.00  0.00    -0.084 Cl
ENDBRANCH   7  25
BRANCH   2  32
ATOM     32  O   UNL     1       2.621  -0.826   2.278  0.00  0.00    -0.493 OA
ATOM     33  H   UNL     1       3.205  -0.376   2.904  0.00  0.00    +0.294 HD
ENDBRANCH   2  32
TORSDOF 4
