REMARK  Name = ZINC05021135
REMARK  7 active torsions:
REMARK  status: ('A' for Active; 'I' for Inactive)
REMARK    1  A    between atoms: C_1  and  C_2
REMARK    2  A    between atoms: C_9  and  N_15
REMARK    3  A    between atoms: C_10  and  C_11
REMARK    4  A    between atoms: C_11  and  O_13
REMARK    5  A    between atoms: O_13  and  C_14
REMARK    6  A    between atoms: C_16  and  C_18
REMARK    7  A    between atoms: C_24  and  C_26
REMARK                            x       y       z     vdW  Elec       q    Type
REMARK                         _______ _______ _______ _____ _____    ______ ____
ROOT
ATOM      1  C   UNL     1       1.460   1.460  -0.078  0.00  0.00    +0.008 C 
ATOM      2  C   UNL     1       0.061   0.845  -0.165  0.00  0.00    -0.009 C 
ATOM      3  C   UNL     1      -0.648   0.991   1.185  0.00  0.00    +0.008 C 
ATOM      4  C   UNL     1      -1.936   0.166   1.187  0.00  0.00    +0.037 C 
ATOM      5  C   UNL     1      -2.760   0.541  -0.039  0.00  0.00    -0.021 A 
ATOM      6  C   UNL     1      -2.194   1.168  -1.093  0.00  0.00    -0.004 A 
ATOM      7  S   UNL     1      -3.514   1.392  -2.250  0.00  0.00    -0.077 S 
ATOM      8  C   UNL     1      -4.803   0.663  -1.350  0.00  0.00    +0.086 A 
ATOM      9  C   UNL     1      -4.180   0.264  -0.174  0.00  0.00    +0.091 A 
ATOM     10  C   UNL     1      -0.757   1.577  -1.238  0.00  0.00    +0.046 C 
ENDROOT
BRANCH   8  11
ATOM     11  N   UNL     1      -6.132   0.515  -1.714  0.00  0.00    -0.279 N 
ATOM     12  C   UNL     1      -6.558   0.971  -2.909  0.00  0.00    +0.222 C 
ATOM     13  O   UNL     1      -5.778   1.510  -3.665  0.00  0.00    -0.275 OA
ATOM     14  H   UNL     1      -6.755   0.084  -1.109  0.00  0.00    +0.155 HD
BRANCH  12  15
ATOM     15  C   UNL     1      -8.003   0.810  -3.305  0.00  0.00    +0.093 C 
ATOM     16  C   UNL     1      -8.093   0.460  -4.792  0.00  0.00    +0.040 C 
ATOM     17  C   UNL     1      -7.710   1.646  -5.626  0.00  0.00    -0.030 C 
ATOM     18  C   UNL     1      -7.666   2.862  -5.183  0.00  0.00    -0.030 C 
ATOM     19  C   UNL     1      -7.981   3.252  -3.768  0.00  0.00    +0.042 C 
ATOM     20  C   UNL     1      -8.752   2.127  -3.066  0.00  0.00    +0.118 C 
BRANCH  20  21
ATOM     21  C   UNL     1      -8.831   2.404  -1.586  0.00  0.00    +0.360 C 
ATOM     22  O   UNL     1      -8.339   1.629  -0.800  0.00  0.00    -0.246 OA
ATOM     23  O   UNL     1      -9.448   3.510  -1.143  0.00  0.00    -0.246 OA
ENDBRANCH  20  21
ENDBRANCH  12  15
ENDBRANCH   8  11
BRANCH   9  24
ATOM     24  C   UNL     1      -4.927  -0.412   0.889  0.00  0.00    +0.342 C 
ATOM     25  O   UNL     1      -5.461   0.241   1.766  0.00  0.00    -0.245 OA
BRANCH  24  26
ATOM     26  O   UNL     1      -5.023  -1.757   0.896  0.00  0.00    -0.464 OA
ATOM     27  C   UNL     1      -5.779  -2.358   1.981  0.00  0.00    +0.280 C 
ENDBRANCH  24  26
ENDBRANCH   9  24
TORSDOF 5
