REMARK  Name = ZINC05382025
REMARK  5 active torsions:
REMARK  status: ('A' for Active; 'I' for Inactive)
REMARK    1  A    between atoms: C_1  and  C_2
REMARK    2  A    between atoms: C_2  and  C_14
REMARK    3  A    between atoms: N_3  and  N_4
REMARK    4  A    between atoms: C_5  and  C_7
REMARK    5  A    between atoms: C_17  and  N_20
REMARK                            x       y       z     vdW  Elec       q    Type
REMARK                         _______ _______ _______ _____ _____    ______ ____
ROOT
ATOM      1  C   UNL     1       0.002  -0.004   0.002  0.00  0.00    +0.068 C 
ATOM      2  C   UNL     1      -0.018   1.503   0.010  0.00  0.00    +0.063 C 
ATOM      3  N   UNL     1      -1.151   2.136   0.019  0.00  0.00    -0.184 NA
ENDROOT
BRANCH   2   4
ATOM      4  C   UNL     1       1.249   2.257   0.002  0.00  0.00    -0.002 A 
ATOM      5  C   UNL     1       2.470   1.579  -0.007  0.00  0.00    +0.012 A 
ATOM      6  C   UNL     1       3.651   2.291  -0.021  0.00  0.00    +0.033 A 
ATOM      7  C   UNL     1       3.628   3.675  -0.013  0.00  0.00    +0.126 A 
ATOM      8  C   UNL     1       2.422   4.354   0.002  0.00  0.00    +0.033 A 
ATOM      9  C   UNL     1       1.234   3.654   0.010  0.00  0.00    +0.012 A 
BRANCH   7  10
ATOM     10  N   UNL     1       4.900   4.432  -0.022  0.00  0.00    +0.056 N 
ATOM     11  O   UNL     1       4.883   5.650  -0.016  0.00  0.00    -0.126 OA
ATOM     12  O   UNL     1       5.963   3.838  -0.036  0.00  0.00    -0.126 OA
ENDBRANCH   7  10
ENDBRANCH   2   4
BRANCH   3  13
ATOM     13  N   UNL     1      -2.355   1.419   0.021  0.00  0.00    -0.203 N 
ATOM     14  C   UNL     1      -3.531   2.077   0.030  0.00  0.00    +0.264 C 
ATOM     15  O   UNL     1      -3.547   3.293   0.037  0.00  0.00    -0.268 OA
ATOM     16  H   UNL     1      -2.341   0.450   0.016  0.00  0.00    +0.178 HD
BRANCH  14  17
ATOM     17  C   UNL     1      -4.800   1.321   0.032  0.00  0.00    +0.052 A 
ATOM     18  C   UNL     1      -4.785  -0.075   0.018  0.00  0.00    +0.014 A 
ATOM     19  C   UNL     1      -5.973  -0.774   0.025  0.00  0.00    +0.001 A 
ATOM     20  C   UNL     1      -7.180  -0.096   0.034  0.00  0.00    +0.001 A 
ATOM     21  C   UNL     1      -7.204   1.286   0.043  0.00  0.00    +0.016 A 
ATOM     22  C   UNL     1      -6.021   2.000   0.042  0.00  0.00    +0.030 A 
ATOM     23 BR   UNL     1      -6.055   3.891   0.052  0.00  0.00    -0.050 Br
ENDBRANCH  14  17
ENDBRANCH   3  13
TORSDOF 4
