REMARK  Name = ZINC67358463
REMARK  5 active torsions:
REMARK  status: ('A' for Active; 'I' for Inactive)
REMARK    1  A    between atoms: C_1  and  C_2
REMARK    2  A    between atoms: C_2  and  C_4
REMARK    3  A    between atoms: C_2  and  N_10
REMARK    4  A    between atoms: N_8  and  C_9
REMARK    5  A    between atoms: C_17  and  C_20
REMARK                            x       y       z     vdW  Elec       q    Type
REMARK                         _______ _______ _______ _____ _____    ______ ____
ROOT
ATOM      1  N   UNL     1      -1.372  -0.511   0.012  0.00  0.00    -0.290 N 
ATOM      2  C   UNL     1      -2.029  -0.655   1.181  0.00  0.00    +0.303 C 
ATOM      3  O   UNL     1      -1.452  -0.451   2.231  0.00  0.00    -0.253 OA
ATOM      4  N   UNL     1      -3.325  -1.025   1.185  0.00  0.00    -0.281 N 
ATOM      5  C   UNL     1      -4.012  -1.389  -0.065  0.00  0.00    +0.137 C 
ATOM      6  C   UNL     1      -5.322  -0.596  -0.144  0.00  0.00    +0.179 C 
ATOM      7  O   UNL     1      -6.061  -0.786   1.066  0.00  0.00    -0.369 OA
ATOM      8  C   UNL     1      -5.400  -0.301   2.237  0.00  0.00    +0.166 C 
ATOM      9  C   UNL     1      -4.092  -1.083   2.439  0.00  0.00    +0.145 C 
ATOM     10  H   UNL     1      -1.810  -0.744  -0.821  0.00  0.00    +0.151 HD
ENDROOT
BRANCH   8  11
ATOM     11  C   UNL     1      -6.292  -0.495   3.436  0.00  0.00    -0.016 A 
ATOM     12  C   UNL     1      -7.033  -1.656   3.564  0.00  0.00    +0.008 A 
ATOM     13  C   UNL     1      -7.852  -1.836   4.663  0.00  0.00    +0.022 A 
ATOM     14  C   UNL     1      -7.931  -0.854   5.635  0.00  0.00    +0.059 A 
ATOM     15  C   UNL     1      -7.189   0.308   5.506  0.00  0.00    +0.060 A 
ATOM     16  C   UNL     1      -6.366   0.483   4.408  0.00  0.00    +0.027 A 
ATOM     17 CL   UNL     1      -7.288   1.540   6.724  0.00  0.00    -0.082 Cl
ATOM     18 CL   UNL     1      -8.960  -1.079   7.014  0.00  0.00    -0.082 Cl
ENDBRANCH   8  11
BRANCH   1  20
ATOM     19  C   UNL     1      -0.021   1.527   0.009  0.00  0.00    +0.036 C 
ATOM     20  C   UNL     1       0.001  -0.002   0.002  0.00  0.00    +0.139 C 
BRANCH  20  21
ATOM     21  C   UNL     1       0.708  -0.488  -1.238  0.00  0.00    +0.153 A 
ATOM     22  N   UNL     1       0.229  -0.486  -2.452  0.00  0.00    -0.133 NA
ATOM     23  N   UNL     1       1.102  -0.971  -3.262  0.00  0.00    -0.138 NA
ATOM     24  C   UNL     1       2.177  -1.305  -2.602  0.00  0.00    +0.224 A 
ATOM     25  N   UNL     1       1.959  -1.004  -1.299  0.00  0.00    -0.319 N 
ATOM     26  C   UNL     1       2.888  -1.198  -0.182  0.00  0.00    +0.151 C 
ENDBRANCH  20  21
ENDBRANCH   1  20
TORSDOF 3
