REMARK  Name = ZINC08202061
REMARK  9 active torsions:
REMARK  status: ('A' for Active; 'I' for Inactive)
REMARK    1  A    between atoms: C_1  and  C_2
REMARK    2  A    between atoms: C_2  and  C_3
REMARK    3  A    between atoms: C_6  and  C_8
REMARK    4  A    between atoms: C_10  and  C_31
REMARK    5  A    between atoms: C_11  and  N_30
REMARK    6  A    between atoms: N_12  and  N_27
REMARK    7  A    between atoms: C_18  and  C_21
REMARK    8  A    between atoms: N_27  and  C_28
REMARK    9  A    between atoms: N_27  and  C_29
REMARK                            x       y       z     vdW  Elec       q    Type
REMARK                         _______ _______ _______ _____ _____    ______ ____
ROOT
ATOM      1  C   UNL     1      -1.337   5.586   1.529  0.00  0.00    +0.104 C 
ATOM      2  C   UNL     1      -1.760   6.183   0.219  0.00  0.00    +0.078 C 
ATOM      3  C   UNL     1      -3.043   6.083  -0.216  0.00  0.00    +0.117 C 
ATOM      4  N   UNL     1      -3.982   5.434   0.550  0.00  0.00    -0.223 N 
ATOM      5  C   UNL     1      -3.773   5.239   1.889  0.00  0.00    +0.037 C 
ATOM      6  C   UNL     1      -2.528   5.302   2.408  0.00  0.00    +0.027 C 
ATOM      7  C   UNL     1      -2.305   5.102   3.781  0.00  0.00    +0.162 C 
ATOM      8  O   UNL     1      -1.174   5.182   4.219  0.00  0.00    -0.292 OA
ATOM      9  C   UNL     1      -3.439   4.793   4.719  0.00  0.00    +0.088 C 
ATOM     10  C   UNL     1      -4.546   4.072   3.941  0.00  0.00    +0.032 C 
ATOM     11  C   UNL     1      -4.968   4.957   2.766  0.00  0.00    +0.061 C 
ENDROOT
BRANCH  10  12
ATOM     12  C   UNL     1      -5.727   3.833   4.845  0.00  0.00    -0.044 A 
ATOM     13  C   UNL     1      -6.374   4.903   5.436  0.00  0.00    +0.004 A 
ATOM     14  C   UNL     1      -7.460   4.684   6.262  0.00  0.00    +0.000 A 
ATOM     15  C   UNL     1      -7.894   3.394   6.505  0.00  0.00    +0.000 A 
ATOM     16  C   UNL     1      -7.245   2.324   5.919  0.00  0.00    +0.000 A 
ATOM     17  C   UNL     1      -6.161   2.543   5.089  0.00  0.00    +0.004 A 
ENDBRANCH  10  12
BRANCH   1  21
ATOM     18  C   UNL     1       0.325   1.852   0.612  0.00  0.00    -0.010 A 
ATOM     19  C   UNL     1       1.158   2.723   1.232  0.00  0.00    +0.011 A 
ATOM     20  C   UNL     1       0.686   3.977   1.569  0.00  0.00    +0.012 A 
ATOM     21  C   UNL     1      -0.596   4.300   1.269  0.00  0.00    +0.003 A 
ATOM     22  S   UNL     1      -1.177   2.808   0.480  0.00  0.00    -0.097 S 
BRANCH  18  24
ATOM     23  C   UNL     1       0.264  -0.538   1.272  0.00  0.00    +0.009 C 
ATOM     24  C   UNL     1       0.598   0.444   0.147  0.00  0.00    +0.039 C 
ENDBRANCH  18  24
ENDBRANCH   1  21
BRANCH   4  25
ATOM     25  N   UNL     1      -5.132   4.979  -0.029  0.00  0.00    -0.227 NA
ATOM     26  C   UNL     1      -5.305   3.539   0.203  0.00  0.00    +0.128 C 
ATOM     27  C   UNL     1      -6.298   5.734   0.451  0.00  0.00    +0.128 C 
ENDBRANCH   4  25
BRANCH   3  28
ATOM     28  N   UNL     1      -3.403   6.632  -1.423  0.00  0.00    -0.344 N 
ATOM     29  H   UNL     1      -4.339   6.682  -1.673  0.00  0.00    +0.144 HD
ATOM     30  H   UNL     1      -2.722   6.968  -2.025  0.00  0.00    +0.144 HD
ENDBRANCH   3  28
BRANCH   2  31
ATOM     31  C   UNL     1      -0.795   6.870  -0.586  0.00  0.00    +0.099 C 
ATOM     32  N   UNL     1      -0.030   7.415  -1.225  0.00  0.00    -0.191 NA
ENDBRANCH   2  31
TORSDOF 6
