REMARK  Name = ZINC36317516
REMARK  4 active torsions:
REMARK  status: ('A' for Active; 'I' for Inactive)
REMARK    1  A    between atoms: C_1  and  C_2
REMARK    2  A    between atoms: C_10  and  C_11
REMARK    3  A    between atoms: C_11  and  O_13
REMARK    4  A    between atoms: O_13  and  C_14
REMARK                            x       y       z     vdW  Elec       q    Type
REMARK                         _______ _______ _______ _____ _____    ______ ____
ROOT
ATOM      1  C   UNL     1       0.541   1.502  -0.100  0.00  0.00    +0.046 C 
ATOM      2  C   UNL     1       0.511  -0.005  -0.098  0.00  0.00    -0.017 A 
ATOM      3  C   UNL     1       0.146  -0.701  -1.257  0.00  0.00    +0.051 A 
ATOM      4  C   UNL     1      -0.231  -0.191  -2.535  0.00  0.00    +0.134 A 
ATOM      5  N   UNL     1      -0.541  -1.038  -3.502  0.00  0.00    -0.202 NA
ATOM      6  C   UNL     1      -0.515  -2.348  -3.328  0.00  0.00    +0.225 A 
ATOM      7  N   UNL     1      -0.175  -2.883  -2.169  0.00  0.00    -0.210 NA
ATOM      8  C   UNL     1       0.150  -2.114  -1.150  0.00  0.00    +0.116 A 
ATOM      9  S   UNL     1       0.653  -2.396   0.528  0.00  0.00    -0.062 S 
ATOM     10  C   UNL     1       0.844  -0.694   1.030  0.00  0.00    +0.102 A 
ATOM     11 CL   UNL     1      -0.938  -3.389  -4.652  0.00  0.00    -0.041 Cl
ATOM     12  N   UNL     1      -0.272   1.170  -2.760  0.00  0.00    -0.318 N 
ATOM     13  C   UNL     1       0.946   1.915  -3.113  0.00  0.00    +0.087 C 
ATOM     14  C   UNL     1       0.655   2.760  -4.358  0.00  0.00    -0.063 C 
ATOM     15  N   UNL     1      -0.522   3.603  -4.112  0.00  0.00    +0.381 N 
ATOM     16  C   UNL     1      -1.709   2.761  -3.919  0.00  0.00    -0.063 C 
ATOM     17  C   UNL     1      -1.536   1.916  -2.658  0.00  0.00    +0.087 C 
ATOM     18  H   UNL     1      -0.368   4.160  -3.285  0.00  0.00    -0.086 HD
ATOM     19  H   UNL     1      -0.668   4.213  -4.902  0.00  0.00    -0.086 HD
ENDROOT
BRANCH  10  20
ATOM     20  C   UNL     1       1.256  -0.166   2.334  0.00  0.00    +0.346 C 
ATOM     21  O   UNL     1       1.333   1.035   2.507  0.00  0.00    -0.244 OA
BRANCH  20  22
ATOM     22  O   UNL     1       1.549  -1.013   3.342  0.00  0.00    -0.458 OA
BRANCH  22  23
ATOM     23  C   UNL     1       1.943  -0.430   4.586  0.00  0.00    +0.177 C 
ATOM     24  C   UNL     1       0.705  -0.194   5.454  0.00  0.00    +0.044 C 
ATOM     25  C   UNL     1       1.127   0.430   6.785  0.00  0.00    +0.004 C 
ATOM     26  C   UNL     1       2.086  -0.516   7.511  0.00  0.00    +0.000 C 
ATOM     27  C   UNL     1       3.324  -0.752   6.643  0.00  0.00    +0.004 C 
ATOM     28  C   UNL     1       2.902  -1.376   5.311  0.00  0.00    +0.044 C 
ENDBRANCH  22  23
ENDBRANCH  20  22
ENDBRANCH  10  20
TORSDOF 3
