REMARK  Name = ZINC19841681
REMARK  10 active torsions:
REMARK  status: ('A' for Active; 'I' for Inactive)
REMARK    1  A    between atoms: C_1  and  C_2
REMARK    2  A    between atoms: C_2  and  C_3
REMARK    3  A    between atoms: C_3  and  C_4
REMARK    4  A    between atoms: C_4  and  C_5
REMARK    5  A    between atoms: C_9  and  C_11
REMARK    6  A    between atoms: C_11  and  N_12
REMARK    7  A    between atoms: C_15  and  C_18
REMARK    8  A    between atoms: C_18  and  C_30
REMARK    9  A    between atoms: N_21  and  C_25
REMARK   10  A    between atoms: C_30  and  C_31
REMARK                            x       y       z     vdW  Elec       q    Type
REMARK                         _______ _______ _______ _____ _____    ______ ____
ROOT
ATOM      1  C   UNL     1       0.901  -9.193  -6.863  0.00  0.00    +0.119 C 
ATOM      2  C   UNL     1      -0.120  -9.331  -5.750  0.00  0.00    +0.247 C 
ATOM      3  O   UNL     1      -1.174  -8.741  -5.646  0.00  0.00    -0.273 OA
ATOM      4  N   UNL     1       0.387 -10.248  -4.902  0.00  0.00    -0.221 N 
ATOM      5  C   UNL     1       1.574 -10.703  -5.320  0.00  0.00    +0.310 C 
ATOM      6  O   UNL     1       2.226 -11.536  -4.722  0.00  0.00    -0.252 OA
ATOM      7  N   UNL     1       1.964 -10.136  -6.476  0.00  0.00    -0.284 N 
ATOM      8  H   UNL     1       2.785 -10.314  -6.960  0.00  0.00    +0.151 HD
ENDROOT
BRANCH   1  12
ATOM      9  N   UNL     1       1.284  -5.013  -6.056  0.00  0.00    -0.297 NA
ATOM     10  C   UNL     1       2.369  -5.877  -5.573  0.00  0.00    +0.085 C 
ATOM     11  C   UNL     1       1.884  -7.327  -5.521  0.00  0.00    +0.021 C 
ATOM     12  C   UNL     1       1.444  -7.764  -6.920  0.00  0.00    +0.024 C 
ATOM     13  C   UNL     1       0.347  -6.820  -7.420  0.00  0.00    +0.021 C 
ATOM     14  C   UNL     1       0.877  -5.384  -7.417  0.00  0.00    +0.085 C 
BRANCH   9  15
ATOM     15  C   UNL     1       1.668  -3.597  -5.989  0.00  0.00    +0.139 C 
BRANCH  15  20
ATOM     16  C   UNL     1       1.444  -2.513  -2.505  0.00  0.00    +0.084 A 
ATOM     17  N   UNL     1       2.724  -2.749  -2.609  0.00  0.00    -0.350 N 
ATOM     18  H   UNL     1      -0.088  -2.699  -3.897  0.00  0.00    +0.167 HD
ATOM     19  C   UNL     1       2.996  -3.168  -3.854  0.00  0.00    +0.106 A 
ATOM     20  C   UNL     1       1.842  -3.192  -4.548  0.00  0.00    +0.047 A 
ATOM     21  N   UNL     1       0.857  -2.782  -3.691  0.00  0.00    -0.346 N 
ATOM     22  H   UNL     1       3.374  -2.639  -1.899  0.00  0.00    +0.166 HD
BRANCH  16  23
ATOM     23  C   UNL     1       0.739  -2.027  -1.265  0.00  0.00    +0.072 C 
BRANCH  23  24
ATOM     24  C   UNL     1       0.718  -0.497  -1.257  0.00  0.00    +0.007 C 
BRANCH  24  26
ATOM     25  C   UNL     1      -0.019   1.526   0.010  0.00  0.00    +0.004 C 
ATOM     26  C   UNL     1       0.002  -0.004   0.002  0.00  0.00    -0.003 C 
ENDBRANCH  24  26
ENDBRANCH  23  24
ENDBRANCH  16  23
ENDBRANCH  15  20
ENDBRANCH   9  15
ENDBRANCH   1  12
BRANCH   4  27
ATOM     27  C   UNL     1      -0.279 -10.690  -3.675  0.00  0.00    +0.086 C 
ATOM     28  C   UNL     1       0.640 -10.450  -2.459  0.00  0.00    +0.023 C 
ATOM     29  C   UNL     1       0.382 -11.670  -1.541  0.00  0.00    +0.002 C 
ATOM     30  C   UNL     1       0.227 -12.832  -2.553  0.00  0.00    +0.002 C 
ATOM     31  C   UNL     1      -0.542 -12.205  -3.734  0.00  0.00    +0.023 C 
ENDBRANCH   4  27
BRANCH   1  32
ATOM     32  C   UNL     1       0.292  -9.591  -8.209  0.00  0.00    +0.070 C 
BRANCH  32  33
ATOM     33  C   UNL     1      -0.235 -11.000  -8.125  0.00  0.00    -0.045 A 
ATOM     34  C   UNL     1       0.589 -12.065  -8.439  0.00  0.00    +0.006 A 
ATOM     35  C   UNL     1       0.107 -13.358  -8.362  0.00  0.00    +0.038 A 
ATOM     36  C   UNL     1      -1.201 -13.587  -7.971  0.00  0.00    +0.123 A 
ATOM     37  C   UNL     1      -2.025 -12.520  -7.657  0.00  0.00    +0.038 A 
ATOM     38  C   UNL     1      -1.540 -11.228  -7.730  0.00  0.00    +0.006 A 
ATOM     39  F   UNL     1      -1.673 -14.851  -7.896  0.00  0.00    -0.205 F 
ENDBRANCH  32  33
ENDBRANCH   1  32
TORSDOF 9
