REMARK  Name = ZINC58867744
REMARK  7 active torsions:
REMARK  status: ('A' for Active; 'I' for Inactive)
REMARK    1  A    between atoms: C_4  and  C_7
REMARK    2  A    between atoms: C_7  and  N_9
REMARK    3  A    between atoms: C_10  and  C_11
REMARK    4  A    between atoms: C_13  and  C_25
REMARK    5  A    between atoms: N_16  and  C_19
REMARK    6  A    between atoms: C_25  and  S_26
REMARK    7  A    between atoms: S_26  and  C_27
REMARK                            x       y       z     vdW  Elec       q    Type
REMARK                         _______ _______ _______ _____ _____    ______ ____
ROOT
ATOM      1  C   UNL     1       4.892  -4.207  -0.315  0.00  0.00    +0.156 C 
ATOM      2  C   UNL     1       4.900  -4.705  -1.780  0.00  0.00    +0.102 C 
ATOM      3  N   UNL     1       3.457  -4.918  -2.038  0.00  0.00    -0.228 NA
ATOM      4  N   UNL     1       2.852  -5.174  -0.843  0.00  0.00    -0.204 N 
ATOM      5  C   UNL     1       3.591  -4.781   0.218  0.00  0.00    +0.245 C 
ATOM      6  O   UNL     1       3.275  -4.870   1.385  0.00  0.00    -0.273 OA
ATOM      7  H   UNL     1       3.046  -4.112  -2.485  0.00  0.00    +0.145 HD
ENDROOT
BRANCH   4   8
ATOM      8  C   UNL     1       1.597  -5.782  -0.726  0.00  0.00    +0.053 A 
ATOM      9  C   UNL     1       0.598  -5.497  -1.648  0.00  0.00    +0.025 A 
ATOM     10  C   UNL     1      -0.639  -6.099  -1.530  0.00  0.00    +0.002 A 
ATOM     11  C   UNL     1      -0.884  -6.984  -0.495  0.00  0.00    +0.000 A 
ATOM     12  C   UNL     1       0.109  -7.268   0.424  0.00  0.00    +0.002 A 
ATOM     13  C   UNL     1       1.351  -6.675   0.308  0.00  0.00    +0.025 A 
ENDBRANCH   4   8
BRANCH   1  15
ATOM     14  N   UNL     1       3.735  -2.059  -0.193  0.00  0.00    -0.165 NA
ATOM     15  C   UNL     1       4.877  -2.701  -0.259  0.00  0.00    +0.099 C 
ATOM     16  N   UNL     1       6.038  -2.013  -0.277  0.00  0.00    -0.348 N 
ATOM     17  H   UNL     1       6.033  -1.050  -0.160  0.00  0.00    +0.143 HD
ATOM     18  H   UNL     1       6.877  -2.482  -0.408  0.00  0.00    +0.143 HD
BRANCH  14  19
ATOM     19  C   UNL     1       3.712  -0.716  -0.279  0.00  0.00    +0.269 C 
ATOM     20  O   UNL     1       4.255  -0.156  -1.213  0.00  0.00    -0.268 OA
BRANCH  19  24
ATOM     21  C   UNL     1       1.745   1.570   2.715  0.00  0.00    +0.000 A 
ATOM     22  C   UNL     1       2.362   2.209   1.655  0.00  0.00    +0.001 A 
ATOM     23  C   UNL     1       3.002   1.473   0.679  0.00  0.00    +0.013 A 
ATOM     24  C   UNL     1       3.027   0.080   0.765  0.00  0.00    +0.039 A 
ATOM     25  C   UNL     1       2.404  -0.558   1.837  0.00  0.00    +0.013 A 
ATOM     26  C   UNL     1       1.767   0.189   2.806  0.00  0.00    +0.001 A 
ENDBRANCH  19  24
ENDBRANCH  14  19
ENDBRANCH   1  15
BRANCH   2  27
ATOM     27  C   UNL     1       5.678  -6.016  -1.909  0.00  0.00    +0.096 C 
BRANCH  27  28
ATOM     28  S   UNL     1       5.789  -6.484  -3.658  0.00  0.00    -0.124 S 
BRANCH  28  29
ATOM     29  C   UNL     1       6.701  -7.992  -3.639  0.00  0.00    +0.008 A 
ATOM     30  C   UNL     1       7.136  -8.527  -2.432  0.00  0.00    +0.016 A 
ATOM     31  C   UNL     1       7.851  -9.708  -2.421  0.00  0.00    +0.021 A 
ATOM     32  C   UNL     1       8.133 -10.360  -3.608  0.00  0.00    +0.041 A 
ATOM     33  C   UNL     1       7.701  -9.829  -4.811  0.00  0.00    +0.021 A 
ATOM     34  C   UNL     1       6.981  -8.651  -4.829  0.00  0.00    +0.016 A 
ATOM     35 CL   UNL     1       9.032 -11.845  -3.590  0.00  0.00    -0.084 Cl
ENDBRANCH  28  29
ENDBRANCH  27  28
ENDBRANCH   2  27
TORSDOF 7
