REMARK  Name = ZINC06408911
REMARK  6 active torsions:
REMARK  status: ('A' for Active; 'I' for Inactive)
REMARK    1  A    between atoms: C_1  and  C_2
REMARK    2  A    between atoms: C_9  and  C_14
REMARK    3  A    between atoms: C_14  and  C_16
REMARK    4  A    between atoms: C_14  and  N_70
REMARK    5  A    between atoms: N_20  and  C_21
REMARK    6  A    between atoms: C_21  and  C_22
REMARK                            x       y       z     vdW  Elec       q    Type
REMARK                         _______ _______ _______ _____ _____    ______ ____
ROOT
ATOM      1  C   UNL     1       0.004   1.248   2.463  0.00  0.00    +0.039 C 
ENDROOT
BRANCH   1  10
ATOM      2  C   UNL     1       6.292  -2.316   4.305  0.00  0.00    +0.044 C 
ATOM      3  C   UNL     1       5.518  -1.040   4.091  0.00  0.00    -0.050 A 
ATOM      4  C   UNL     1       6.140   0.184   4.299  0.00  0.00    +0.005 A 
ATOM      5  C   UNL     1       5.452   1.363   4.108  0.00  0.00    +0.026 A 
ATOM      6  C   UNL     1       4.121   1.329   3.706  0.00  0.00    +0.049 A 
ATOM      7  C   UNL     1       3.494   0.086   3.497  0.00  0.00    -0.001 A 
ATOM      8  C   UNL     1       4.212  -1.098   3.696  0.00  0.00    +0.013 A 
ATOM      9  C   UNL     1       2.091   0.059   3.079  0.00  0.00    +0.017 A 
ATOM     10  C   UNL     1       1.447   1.239   2.898  0.00  0.00    +0.011 A 
ATOM     11  C   UNL     1       2.122   2.458   3.121  0.00  0.00    +0.251 A 
ATOM     12  O   UNL     1       1.523   3.507   2.957  0.00  0.00    -0.268 OA
ATOM     13  N   UNL     1       3.408   2.492   3.510  0.00  0.00    -0.322 N 
ATOM     14  H   UNL     1       3.842   3.348   3.654  0.00  0.00    +0.169 HD
ENDBRANCH   1  10
BRANCH   1  25
ATOM     15  C   UNL     1       0.752   1.555   0.182  0.00  0.00    -0.077 C 
ATOM     16  C   UNL     1       0.690   2.498  -1.022  0.00  0.00    -0.018 C 
ATOM     17  C   UNL     1      -0.753   2.573  -1.530  0.00  0.00    +0.003 C 
ATOM     18  C   UNL     1      -1.662   3.046  -0.393  0.00  0.00    -0.044 C 
ATOM     19  C   UNL     1      -1.532   2.087   0.792  0.00  0.00    -0.071 C 
ATOM     20  C   UNL     1      -3.113   3.069  -0.876  0.00  0.00    +0.005 C 
ATOM     21  C   UNL     1      -3.241   4.027  -2.062  0.00  0.00    +0.000 C 
ATOM     22  C   UNL     1      -2.824   5.434  -1.629  0.00  0.00    +0.000 C 
ATOM     23  C   UNL     1      -1.373   5.410  -1.146  0.00  0.00    +0.000 C 
ATOM     24  C   UNL     1      -1.246   4.453   0.041  0.00  0.00    +0.005 C 
ATOM     25  N   UNL     1      -0.126   2.079   1.250  0.00  0.00    +0.390 N 
ATOM     26  H   UNL     1       0.157   3.041   1.472  0.00  0.00    -0.080 HD
ENDBRANCH   1  25
BRANCH   1  27
ATOM     27  C   UNL     1      -0.846   1.843   3.556  0.00  0.00    +0.143 A 
ATOM     28  N   UNL     1      -0.840   3.090   3.961  0.00  0.00    -0.115 NA
ATOM     29  N   UNL     1      -1.704   3.205   4.909  0.00  0.00    -0.023 NA
ATOM     30  N   UNL     1      -2.262   2.064   5.120  0.00  0.00    -0.044 NA
ATOM     31  N   UNL     1      -1.763   1.200   4.302  0.00  0.00    -0.226 N 
BRANCH  31  32
ATOM     32  C   UNL     1      -2.125  -0.217   4.205  0.00  0.00    +0.182 C 
BRANCH  32  33
ATOM     33  C   UNL     1      -1.358  -1.003   5.237  0.00  0.00    -0.026 A 
ATOM     34  C   UNL     1      -0.188  -1.649   4.885  0.00  0.00    +0.005 A 
ATOM     35  C   UNL     1       0.519  -2.366   5.832  0.00  0.00    +0.000 A 
ATOM     36  C   UNL     1       0.049  -2.445   7.130  0.00  0.00    +0.000 A 
ATOM     37  C   UNL     1      -1.123  -1.803   7.481  0.00  0.00    +0.000 A 
ATOM     38  C   UNL     1      -1.827  -1.082   6.535  0.00  0.00    +0.005 A 
ENDBRANCH  32  33
ENDBRANCH  31  32
ENDBRANCH   1  27
TORSDOF 5
