REMARK  Name = ZINC66934610
REMARK  6 active torsions:
REMARK  status: ('A' for Active; 'I' for Inactive)
REMARK    1  A    between atoms: C_1  and  C_2
REMARK    2  A    between atoms: C_6  and  C_23
REMARK    3  A    between atoms: N_9  and  S_10
REMARK    4  A    between atoms: S_10  and  C_13
REMARK    5  A    between atoms: C_16  and  S_19
REMARK    6  A    between atoms: S_19  and  N_22
REMARK                            x       y       z     vdW  Elec       q    Type
REMARK                         _______ _______ _______ _____ _____    ______ ____
ROOT
ATOM      1  S   UNL     1      -0.076  -1.276   2.409  0.00  0.00    +0.061 S 
ATOM      2  O   UNL     1       0.716  -1.119   3.578  0.00  0.00    -0.153 OA
ATOM      3  O   UNL     1      -1.431  -0.852   2.344  0.00  0.00    -0.153 OA
ENDROOT
BRANCH   1  10
ATOM      4  C   UNL     1      -0.019   1.526   0.010  0.00  0.00    +0.028 C 
ATOM      5  C   UNL     1       0.002  -0.004   0.002  0.00  0.00    +0.102 C 
ATOM      6  C   UNL     1       0.730  -0.504  -1.251  0.00  0.00    +0.181 C 
ATOM      7  O   UNL     1       2.114  -0.156  -1.162  0.00  0.00    -0.369 OA
ATOM      8  C   UNL     1       2.800  -0.762  -0.064  0.00  0.00    +0.164 C 
ATOM      9  C   UNL     1       2.178  -0.276   1.250  0.00  0.00    +0.146 C 
ATOM     10  N   UNL     1       0.724  -0.496   1.186  0.00  0.00    -0.169 NA
BRANCH   8  11
ATOM     11  C   UNL     1       4.256  -0.376  -0.105  0.00  0.00    -0.018 A 
ATOM     12  C   UNL     1       4.620   0.914  -0.441  0.00  0.00    +0.006 A 
ATOM     13  C   UNL     1       5.956   1.268  -0.479  0.00  0.00    +0.000 A 
ATOM     14  C   UNL     1       6.928   0.331  -0.181  0.00  0.00    +0.000 A 
ATOM     15  C   UNL     1       6.564  -0.960   0.155  0.00  0.00    +0.000 A 
ATOM     16  C   UNL     1       5.228  -1.312   0.197  0.00  0.00    +0.006 A 
ENDBRANCH   8  11
ENDBRANCH   1  10
BRANCH   1  17
ATOM     17  C   UNL     1      -0.069  -2.996   2.022  0.00  0.00    +0.106 A 
ATOM     18  C   UNL     1      -1.095  -3.540   1.273  0.00  0.00    +0.030 A 
ATOM     19  C   UNL     1      -1.089  -4.889   0.970  0.00  0.00    +0.030 A 
ATOM     20  C   UNL     1      -0.056  -5.693   1.416  0.00  0.00    +0.105 A 
ATOM     21  C   UNL     1       0.970  -5.148   2.164  0.00  0.00    +0.030 A 
ATOM     22  C   UNL     1       0.966  -3.799   2.464  0.00  0.00    +0.030 A 
BRANCH  20  23
ATOM     23  S   UNL     1      -0.049  -7.412   1.031  0.00  0.00    +0.056 S 
ATOM     24  O   UNL     1       0.742  -8.048   2.025  0.00  0.00    -0.153 OA
ATOM     25  O   UNL     1      -1.400  -7.779   0.783  0.00  0.00    -0.153 OA
BRANCH  23  26
ATOM     26  N   UNL     1       0.760  -7.590  -0.403  0.00  0.00    -0.204 NA
ATOM     27  H   UNL     1       1.251  -8.406  -0.585  0.00  0.00    +0.144 HD
ATOM     28  H   UNL     1       0.743  -6.877  -1.061  0.00  0.00    +0.144 HD
ENDBRANCH  23  26
ENDBRANCH  20  23
ENDBRANCH   1  17
TORSDOF 5
