REMARK  Name = ZINC32104825
REMARK  6 active torsions:
REMARK  status: ('A' for Active; 'I' for Inactive)
REMARK    1  A    between atoms: C_1  and  C_2
REMARK    2  A    between atoms: C_5  and  C_9
REMARK    3  A    between atoms: C_7  and  C_8
REMARK    4  A    between atoms: C_17  and  C_28
REMARK    5  A    between atoms: C_23  and  O_26
REMARK    6  A    between atoms: O_26  and  C_27
REMARK                            x       y       z     vdW  Elec       q    Type
REMARK                         _______ _______ _______ _____ _____    ______ ____
ROOT
ATOM      1  C   UNL     1       0.059  -4.275  -0.021  0.00  0.00    +0.063 C 
ATOM      2  C   UNL     1      -1.180  -4.804  -0.751  0.00  0.00    +0.109 C 
ATOM      3  C   UNL     1      -1.015  -6.249  -1.127  0.00  0.00    +0.219 C 
ATOM      4  O   UNL     1      -1.970  -6.992  -1.040  0.00  0.00    -0.275 OA
ATOM      5  N   UNL     1       0.164  -6.747  -1.559  0.00  0.00    -0.270 N 
ATOM      6  C   UNL     1       1.293  -5.935  -1.465  0.00  0.00    +0.134 A 
ATOM      7  C   UNL     1       1.284  -4.764  -0.753  0.00  0.00    +0.023 A 
ATOM      8  C   UNL     1       2.543  -4.190  -0.854  0.00  0.00    +0.066 A 
ATOM      9  N   UNL     1       3.298  -4.979  -1.583  0.00  0.00    -0.168 NA
ATOM     10  N   UNL     1       2.533  -6.092  -1.973  0.00  0.00    -0.198 N 
ATOM     11  C   UNL     1       2.978  -7.170  -2.746  0.00  0.00    +0.178 A 
ATOM     12  C   UNL     1       4.051  -7.008  -3.620  0.00  0.00    +0.055 A 
ATOM     13  C   UNL     1       4.455  -8.104  -4.364  0.00  0.00    +0.072 A 
ATOM     14  C   UNL     1       3.763  -9.301  -4.193  0.00  0.00    +0.234 A 
ATOM     15  N   UNL     1       2.755  -9.362  -3.339  0.00  0.00    -0.110 NA
ATOM     16  N   UNL     1       2.384  -8.348  -2.646  0.00  0.00    -0.126 NA
ATOM     17  C   UNL     1       2.971  -2.885  -0.234  0.00  0.00    +0.068 C 
ATOM     18  H   UNL     1       0.223  -7.643  -1.925  0.00  0.00    +0.156 HD
ENDROOT
BRANCH   1  23
ATOM     19  C   UNL     1      -0.018   1.503   0.010  0.00  0.00    +0.044 C 
ATOM     20  C   UNL     1       0.002  -0.004   0.002  0.00  0.00    -0.048 A 
ATOM     21  C   UNL     1       0.006  -0.689  -1.199  0.00  0.00    +0.004 A 
ATOM     22  C   UNL     1       0.025  -2.071  -1.207  0.00  0.00    +0.004 A 
ATOM     23  C   UNL     1       0.040  -2.768  -0.013  0.00  0.00    -0.039 A 
ATOM     24  C   UNL     1       0.037  -2.084   1.188  0.00  0.00    +0.008 A 
ATOM     25  C   UNL     1       0.023  -0.702   1.195  0.00  0.00    -0.047 A 
ATOM     26  C   UNL     1       0.025   0.045   2.504  0.00  0.00    +0.044 C 
ENDBRANCH   1  23
BRANCH  14  27
ATOM     27  O   UNL     1       4.123 -10.402  -4.901  0.00  0.00    -0.479 OA
ATOM     28  C   UNL     1       3.369 -11.594  -4.673  0.00  0.00    +0.279 C 
ENDBRANCH  14  27
TORSDOF 2
