REMARK  Name = ZINC02312329
REMARK  11 active torsions:
REMARK  status: ('A' for Active; 'I' for Inactive)
REMARK    1  A    between atoms: C_1  and  C_2
REMARK    2  A    between atoms: C_5  and  C_8
REMARK    3  A    between atoms: C_10  and  C_31
REMARK    4  A    between atoms: C_14  and  S_18
REMARK    5  A    between atoms: C_15  and  C_16
REMARK    6  A    between atoms: S_18  and  C_19
REMARK    7  A    between atoms: C_19  and  C_20
REMARK    8  A    between atoms: N_22  and  C_23
REMARK    9  A    between atoms: C_26  and  C_29
REMARK   10  A    between atoms: C_31  and  O_33
REMARK   11  A    between atoms: O_33  and  C_34
REMARK                            x       y       z     vdW  Elec       q    Type
REMARK                         _______ _______ _______ _____ _____    ______ ____
ROOT
ATOM      1  C   UNL     1       0.065  -4.255  -0.018  0.00  0.00    +0.085 C 
ATOM      2  C   UNL     1      -1.174  -4.778   0.713  0.00  0.00    +0.200 C 
ATOM      3  C   UNL     1      -1.009  -4.572   2.195  0.00  0.00    +0.262 C 
ATOM      4  N   UNL     1       0.153  -4.675   2.765  0.00  0.00    -0.205 NA
ATOM      5  C   UNL     1       1.278  -4.926   2.056  0.00  0.00    +0.115 C 
ATOM      6  C   UNL     1       1.302  -4.757   0.686  0.00  0.00    +0.070 C 
ATOM      7  O   UNL     1      -2.087  -4.276   2.944  0.00  0.00    -0.270 OA
ENDROOT
BRANCH   1  12
ATOM      8  C   UNL     1       0.030   1.524   0.011  0.00  0.00    +0.044 C 
ATOM      9  C   UNL     1       0.039   0.017   0.003  0.00  0.00    -0.050 A 
ATOM     10  C   UNL     1       0.036  -0.669  -1.198  0.00  0.00    +0.003 A 
ATOM     11  C   UNL     1       0.045  -2.051  -1.204  0.00  0.00    +0.004 A 
ATOM     12  C   UNL     1       0.057  -2.748  -0.011  0.00  0.00    -0.038 A 
ATOM     13  C   UNL     1       0.060  -2.063   1.190  0.00  0.00    +0.004 A 
ATOM     14  C   UNL     1       0.056  -0.681   1.197  0.00  0.00    +0.003 A 
ENDBRANCH   1  12
BRANCH   6  15
ATOM     15  C   UNL     1       2.487  -5.055  -0.061  0.00  0.00    +0.098 C 
ATOM     16  N   UNL     1       3.427  -5.291  -0.653  0.00  0.00    -0.191 NA
ENDBRANCH   6  15
BRANCH   2  17
ATOM     17  C   UNL     1      -2.392  -4.030   0.235  0.00  0.00    +0.320 C 
ATOM     18  O   UNL     1      -2.280  -3.167  -0.604  0.00  0.00    -0.250 OA
BRANCH  17  19
ATOM     19  O   UNL     1      -3.600  -4.322   0.742  0.00  0.00    -0.467 OA
ATOM     20  C   UNL     1      -4.710  -3.573   0.243  0.00  0.00    +0.280 C 
ENDBRANCH  17  19
ENDBRANCH   2  17
BRANCH   5  21
ATOM     21  S   UNL     1       2.730  -5.475   2.890  0.00  0.00    -0.095 S 
BRANCH  21  22
ATOM     22  C   UNL     1       2.234  -5.548   4.633  0.00  0.00    +0.172 C 
BRANCH  22  23
ATOM     23  C   UNL     1       3.400  -6.010   5.469  0.00  0.00    +0.227 C 
ATOM     24  O   UNL     1       4.461  -6.265   4.940  0.00  0.00    -0.275 OA
ATOM     25  N   UNL     1       3.263  -6.140   6.803  0.00  0.00    -0.285 N 
ATOM     26  H   UNL     1       2.436  -5.873   7.234  0.00  0.00    +0.155 HD
BRANCH  25  27
ATOM     27  C   UNL     1       4.314  -6.661   7.567  0.00  0.00    +0.033 A 
ATOM     28  C   UNL     1       4.043  -7.460   8.670  0.00  0.00    +0.023 A 
ATOM     29  C   UNL     1       5.082  -7.972   9.421  0.00  0.00    +0.005 A 
ATOM     30  C   UNL     1       6.391  -7.690   9.077  0.00  0.00    -0.050 A 
ATOM     31  C   UNL     1       6.664  -6.894   7.979  0.00  0.00    +0.005 A 
ATOM     32  C   UNL     1       5.630  -6.384   7.220  0.00  0.00    +0.023 A 
ATOM     33  C   UNL     1       7.523  -8.251   9.899  0.00  0.00    +0.044 C 
ENDBRANCH  25  27
ENDBRANCH  22  23
ENDBRANCH  21  22
ENDBRANCH   5  21
TORSDOF 8
