REMARK  Name = ZINC64921169
REMARK  6 active torsions:
REMARK  status: ('A' for Active; 'I' for Inactive)
REMARK    1  A    between atoms: C_1  and  C_2
REMARK    2  A    between atoms: C_5  and  C_8
REMARK    3  A    between atoms: C_8  and  N_9
REMARK    4  A    between atoms: C_10  and  C_12
REMARK    5  A    between atoms: N_17  and  S_18
REMARK    6  A    between atoms: S_18  and  C_21
REMARK                            x       y       z     vdW  Elec       q    Type
REMARK                         _______ _______ _______ _____ _____    ______ ____
ROOT
ATOM      1  C   UNL     1       2.963  -6.379   0.224  0.00  0.00    +0.165 C 
ATOM      2  C   UNL     1       3.577  -5.805  -1.070  0.00  0.00    +0.031 C 
ATOM      3  C   UNL     1       4.518  -6.944  -1.543  0.00  0.00    +0.019 C 
ATOM      4  C   UNL     1       3.715  -8.203  -1.130  0.00  0.00    +0.110 C 
ATOM      5  N   UNL     1       3.082  -7.843   0.155  0.00  0.00    -0.165 NA
ENDROOT
BRANCH   1   7
ATOM      6  N   UNL     1       1.162  -4.835   0.924  0.00  0.00    -0.310 N 
ATOM      7  C   UNL     1       1.511  -5.987   0.319  0.00  0.00    +0.232 C 
ATOM      8  O   UNL     1       0.656  -6.709  -0.149  0.00  0.00    -0.274 OA
ATOM      9  H   UNL     1       1.845  -4.258   1.299  0.00  0.00    +0.149 HD
BRANCH   6  10
ATOM     10  C   UNL     1      -0.250  -4.454   1.017  0.00  0.00    +0.139 C 
BRANCH  10  15
ATOM     11  C   UNL     1      -0.706   0.609   3.765  0.00  0.00    +0.044 C 
ATOM     12  C   UNL     1      -0.587  -0.712   3.048  0.00  0.00    -0.050 A 
ATOM     13  C   UNL     1      -0.445  -0.741   1.674  0.00  0.00    +0.003 A 
ATOM     14  C   UNL     1      -0.335  -1.952   1.016  0.00  0.00    +0.005 A 
ATOM     15  C   UNL     1      -0.368  -3.134   1.734  0.00  0.00    -0.030 A 
ATOM     16  C   UNL     1      -0.509  -3.104   3.108  0.00  0.00    +0.005 A 
ATOM     17  C   UNL     1      -0.614  -1.893   3.766  0.00  0.00    +0.003 A 
ENDBRANCH  10  15
ENDBRANCH   6  10
ENDBRANCH   1   7
BRANCH   5  18
ATOM     18  S   UNL     1       2.590  -8.907   1.325  0.00  0.00    +0.063 S 
ATOM     19  O   UNL     1       1.461  -8.320   1.958  0.00  0.00    -0.153 OA
ATOM     20  O   UNL     1       2.539 -10.188   0.713  0.00  0.00    -0.153 OA
BRANCH  18  21
ATOM     21  C   UNL     1       3.867  -8.978   2.536  0.00  0.00    +0.127 A 
ATOM     22  C   UNL     1       3.642  -8.474   3.805  0.00  0.00    +0.077 A 
ATOM     23  C   UNL     1       4.645  -8.529   4.756  0.00  0.00    +0.144 A 
ATOM     24  C   UNL     1       5.879  -9.092   4.434  0.00  0.00    +0.077 A 
ATOM     25  C   UNL     1       6.099  -9.596   3.163  0.00  0.00    +0.049 A 
ATOM     26  C   UNL     1       5.089  -9.542   2.217  0.00  0.00    +0.069 A 
ATOM     27 CL   UNL     1       5.359 -10.180   0.625  0.00  0.00    -0.081 Cl
ATOM     28  N   UNL     1       6.886  -9.141   5.408  0.00  0.00    -0.280 N 
ATOM     29  C   UNL     1       6.556  -8.940   6.702  0.00  0.00    +0.255 C 
ATOM     30  O   UNL     1       7.415  -8.947   7.558  0.00  0.00    -0.272 OA
ATOM     31  C   UNL     1       5.115  -8.708   7.078  0.00  0.00    +0.325 C 
ATOM     32  O   UNL     1       4.441  -8.039   6.009  0.00  0.00    -0.481 OA
ATOM     33  H   UNL     1       7.807  -9.316   5.156  0.00  0.00    +0.155 HD
ENDBRANCH  18  21
ENDBRANCH   5  18
TORSDOF 5
