REMARK  Name = ZINC31819981
REMARK  2 active torsions:
REMARK  status: ('A' for Active; 'I' for Inactive)
REMARK    1  A    between atoms: C_1  and  C_2
REMARK    2  A    between atoms: C_18  and  C_20
REMARK                            x       y       z     vdW  Elec       q    Type
REMARK                         _______ _______ _______ _____ _____    ______ ____
ROOT
ATOM      1  C   UNL     1      -0.018   1.503   0.010  0.00  0.00    +0.068 C 
ATOM      2  C   UNL     1       0.002  -0.004   0.002  0.00  0.00    +0.066 A 
ATOM      3  C   UNL     1       0.008  -0.810  -1.127  0.00  0.00    +0.023 A 
ATOM      4  C   UNL     1       0.032  -2.116  -0.714  0.00  0.00    +0.134 A 
ATOM      5  N   UNL     1       0.032  -2.117   0.636  0.00  0.00    -0.198 N 
ATOM      6  N   UNL     1       0.023  -0.779   1.062  0.00  0.00    -0.168 NA
ATOM      7  C   UNL     1       0.044  -3.247   1.461  0.00  0.00    +0.178 A 
ATOM      8  C   UNL     1       0.548  -3.159   2.758  0.00  0.00    +0.055 A 
ATOM      9  C   UNL     1       0.539  -4.304   3.537  0.00  0.00    +0.077 A 
ATOM     10  C   UNL     1       0.028  -5.472   2.976  0.00  0.00    +0.289 A 
ATOM     11  O   UNL     1      -0.002  -6.619   3.701  0.00  0.00    -0.264 OA
ATOM     12  N   UNL     1      -0.429  -5.461   1.735  0.00  0.00    -0.105 NA
ATOM     13  N   UNL     1      -0.427  -4.399   1.014  0.00  0.00    -0.126 NA
ATOM     14  N   UNL     1       0.064  -3.175  -1.620  0.00  0.00    -0.270 N 
ATOM     15  C   UNL     1       0.274  -2.892  -2.923  0.00  0.00    +0.219 C 
ATOM     16  O   UNL     1       0.118  -3.767  -3.747  0.00  0.00    -0.275 OA
ATOM     17  C   UNL     1       0.694  -1.524  -3.383  0.00  0.00    +0.109 C 
ATOM     18  C   UNL     1      -0.013  -0.426  -2.584  0.00  0.00    +0.064 C 
ATOM     19  H   UNL     1      -0.061  -4.090  -1.322  0.00  0.00    +0.156 HD
ENDROOT
BRANCH  18  20
ATOM     20  C   UNL     1      -1.439  -0.295  -3.054  0.00  0.00    -0.021 A 
ATOM     21  C   UNL     1      -2.293  -1.380  -2.981  0.00  0.00    +0.008 A 
ATOM     22  C   UNL     1      -3.601  -1.262  -3.411  0.00  0.00    +0.039 A 
ATOM     23  C   UNL     1      -4.057  -0.056  -3.917  0.00  0.00    +0.125 A 
ATOM     24  C   UNL     1      -3.202   1.030  -3.990  0.00  0.00    +0.058 A 
ATOM     25  C   UNL     1      -1.895   0.912  -3.554  0.00  0.00    +0.047 A 
ATOM     26 CL   UNL     1      -0.824   2.275  -3.639  0.00  0.00    -0.083 Cl
ATOM     27  F   UNL     1      -5.335   0.060  -4.339  0.00  0.00    -0.205 F 
ENDBRANCH  18  20
TORSDOF 1
