REMARK  Name = ZINC04859614
REMARK  2 active torsions:
REMARK  status: ('A' for Active; 'I' for Inactive)
REMARK    1  A    between atoms: C_4  and  N_24
REMARK    2  A    between atoms: C_5  and  C_7
REMARK                            x       y       z     vdW  Elec       q    Type
REMARK                         _______ _______ _______ _____ _____    ______ ____
ROOT
ATOM      1  C   UNL     1      -0.772   0.807   2.462  0.00  0.00    +0.107 C 
ATOM      2  C   UNL     1      -0.934   1.641   1.204  0.00  0.00    +0.029 C 
ATOM      3  C   UNL     1      -0.232   1.139  -0.065  0.00  0.00    +0.033 C 
ATOM      4  C   UNL     1      -1.151   1.683  -1.161  0.00  0.00    -0.030 C 
ATOM      5  C   UNL     1      -2.380   1.844  -0.685  0.00  0.00    -0.023 C 
ATOM      6  C   UNL     1      -2.401   1.401   0.733  0.00  0.00    +0.049 C 
ATOM      7  C   UNL     1      -3.288   2.031   1.735  0.00  0.00    -0.018 A 
ATOM      8  C   UNL     1      -4.498   2.607   1.384  0.00  0.00    +0.021 A 
ATOM      9  C   UNL     1      -5.314   3.157   2.356  0.00  0.00    +0.018 A 
ATOM     10  C   UNL     1      -4.931   3.115   3.685  0.00  0.00    +0.017 A 
ATOM     11  C   UNL     1      -3.733   2.531   4.043  0.00  0.00    +0.024 A 
ATOM     12  C   UNL     1      -2.903   1.981   3.073  0.00  0.00    +0.031 A 
ATOM     13  N   UNL     1      -1.685   1.408   3.459  0.00  0.00    -0.336 N 
ATOM     14 BR   UNL     1      -6.953   3.966   1.869  0.00  0.00    -0.050 Br
ATOM     15  H   UNL     1      -1.435   1.406   4.396  0.00  0.00    +0.147 HD
ENDROOT
BRANCH   1  20
ATOM     16  C   UNL     1      -2.800  -2.369   2.226  0.00  0.00    +0.000 A 
ATOM     17  C   UNL     1      -1.874  -3.249   1.697  0.00  0.00    +0.002 A 
ATOM     18  C   UNL     1      -0.592  -2.816   1.416  0.00  0.00    +0.033 A 
ATOM     19  C   UNL     1      -0.237  -1.502   1.659  0.00  0.00    +0.131 A 
ATOM     20  C   UNL     1      -1.161  -0.624   2.193  0.00  0.00    +0.003 A 
ATOM     21  C   UNL     1      -2.443  -1.057   2.474  0.00  0.00    +0.008 A 
BRANCH  19  22
ATOM     22  N   UNL     1       1.135  -1.038   1.351  0.00  0.00    +0.057 N 
ATOM     23  O   UNL     1       1.918  -1.781   0.788  0.00  0.00    -0.126 OA
ATOM     24  O   UNL     1       1.480   0.088   1.663  0.00  0.00    -0.126 OA
ENDBRANCH  19  22
ENDBRANCH   1  20
TORSDOF 2
