REMARK  Name = ZINC01875842
REMARK  7 active torsions:
REMARK  status: ('A' for Active; 'I' for Inactive)
REMARK    1  A    between atoms: C_3  and  S_29
REMARK    2  A    between atoms: C_6  and  N_7
REMARK    3  A    between atoms: N_7  and  C_8
REMARK    4  A    between atoms: C_9  and  C_10
REMARK    5  A    between atoms: C_9  and  C_12
REMARK    6  A    between atoms: C_14  and  C_17
REMARK    7  A    between atoms: S_29  and  N_32
REMARK                            x       y       z     vdW  Elec       q    Type
REMARK                         _______ _______ _______ _____ _____    ______ ____
ROOT
ATOM      1  C   UNL     1       2.068  -8.588   0.044  0.00  0.00    +0.093 C 
ATOM      2  C   UNL     1       2.304  -7.285  -0.279  0.00  0.00    +0.098 C 
ENDROOT
BRANCH   2   3
ATOM      3  C   UNL     1       1.206  -6.441  -0.787  0.00  0.00    +0.120 A 
ATOM      4  N   UNL     1       1.193  -5.138  -1.028  0.00  0.00    -0.238 NA
ATOM      5  C   UNL     1       0.109  -4.537  -1.488  0.00  0.00    +0.086 A 
ATOM      6  C   UNL     1      -1.023  -5.274  -1.715  0.00  0.00    +0.075 A 
ATOM      7  S   UNL     1      -0.459  -6.904  -1.243  0.00  0.00    -0.074 S 
BRANCH   5   8
ATOM      8  C   UNL     1       0.117  -3.079  -1.749  0.00  0.00    +0.086 A 
ATOM      9  C   UNL     1       1.244  -2.337  -1.518  0.00  0.00    +0.028 A 
ATOM     10  C   UNL     1       1.197  -0.900  -1.792  0.00  0.00    +0.019 A 
ATOM     11  C   UNL     1       2.323  -0.097  -1.574  0.00  0.00    +0.026 A 
ATOM     12  C   UNL     1       2.260   1.253  -1.838  0.00  0.00    +0.019 A 
ATOM     13  C   UNL     1       1.087   1.818  -2.318  0.00  0.00    +0.019 A 
ATOM     14  C   UNL     1      -0.029   1.040  -2.539  0.00  0.00    +0.048 A 
ATOM     15  C   UNL     1       0.010  -0.325  -2.280  0.00  0.00    +0.139 A 
ATOM     16  O   UNL     1      -1.083  -1.087  -2.496  0.00  0.00    -0.422 OA
ATOM     17  C   UNL     1      -1.083  -2.407  -2.257  0.00  0.00    +0.347 A 
ATOM     18  O   UNL     1      -2.092  -3.056  -2.466  0.00  0.00    -0.244 OA
ATOM     19 BR   UNL     1       3.779   2.341  -1.544  0.00  0.00    -0.050 Br
ENDBRANCH   5   8
ENDBRANCH   2   3
BRANCH   1  20
ATOM     20  N   UNL     1       0.789  -9.069   0.052  0.00  0.00    -0.319 N 
ATOM     21  H   UNL     1       0.043  -8.465  -0.084  0.00  0.00    +0.152 HD
BRANCH  20  27
ATOM     22  C   UNL     1       1.625 -11.300   0.448  0.00  0.00    +0.025 A 
ATOM     23  C   UNL     1       1.391 -12.644   0.657  0.00  0.00    +0.030 A 
ATOM     24  C   UNL     1       0.095 -13.129   0.666  0.00  0.00    +0.109 A 
ATOM     25  C   UNL     1      -0.970 -12.269   0.471  0.00  0.00    +0.030 A 
ATOM     26  C   UNL     1      -0.743 -10.922   0.267  0.00  0.00    +0.025 A 
ATOM     27  C   UNL     1       0.556 -10.431   0.258  0.00  0.00    +0.031 A 
BRANCH  24  28
ATOM     28  S   UNL     1      -0.198 -14.847   0.927  0.00  0.00    +0.076 S 
ATOM     29  O   UNL     1       0.931 -15.351   1.626  0.00  0.00    -0.150 OA
ATOM     30  O   UNL     1      -1.521 -14.961   1.433  0.00  0.00    -0.150 OA
BRANCH  28  31
ATOM     31  N   UNL     1      -0.197 -15.575  -0.561  0.00  0.00    -0.169 N 
ATOM     32  C   UNL     1       0.931 -15.601  -1.297  0.00  0.00    +0.316 C 
ATOM     33  O   UNL     1       1.948 -15.089  -0.870  0.00  0.00    -0.251 OA
ATOM     34  N   UNL     1       0.932 -16.193  -2.508  0.00  0.00    -0.312 N 
ATOM     35  H   UNL     1      -1.008 -15.983  -0.902  0.00  0.00    +0.178 HD
ATOM     36  H   UNL     1       0.121 -16.601  -2.849  0.00  0.00    +0.147 HD
ATOM     37  H   UNL     1       1.744 -16.212  -3.038  0.00  0.00    +0.147 HD
ENDBRANCH  28  31
ENDBRANCH  24  28
ENDBRANCH  20  27
ENDBRANCH   1  20
BRANCH   2  38
ATOM     38  C   UNL     1       3.617  -6.736  -0.123  0.00  0.00    +0.103 C 
ATOM     39  N   UNL     1       4.659  -6.300   0.001  0.00  0.00    -0.191 NA
ENDBRANCH   2  38
TORSDOF 7
