REMARK  Name = ZINC17015023
REMARK  5 active torsions:
REMARK  status: ('A' for Active; 'I' for Inactive)
REMARK    1  A    between atoms: C_1  and  C_2
REMARK    2  A    between atoms: C_2  and  C_3
REMARK    3  A    between atoms: C_3  and  C_4
REMARK    4  A    between atoms: N_14  and  C_15
REMARK    5  A    between atoms: C_15  and  C_16
REMARK                            x       y       z     vdW  Elec       q    Type
REMARK                         _______ _______ _______ _____ _____    ______ ____
ROOT
ATOM      1  C   UNL     1      -0.694   1.558   3.746  0.00  0.00    +0.050 A 
ATOM      2  C   UNL     1      -1.606   0.769   4.358  0.00  0.00    +0.095 A 
ATOM      3  C   UNL     1      -2.257   1.231   5.522  0.00  0.00    +0.276 A 
ATOM      4  O   UNL     1      -3.077   0.527   6.085  0.00  0.00    -0.266 OA
ATOM      5  N   UNL     1      -1.973   2.454   6.003  0.00  0.00    -0.158 N 
ATOM      6  C   UNL     1      -1.058   3.245   5.378  0.00  0.00    +0.258 A 
ATOM      7  N   UNL     1      -0.417   2.796   4.247  0.00  0.00    -0.215 NA
ATOM      8  N   UNL     1      -0.977   4.373   6.055  0.00  0.00    -0.176 NA
ATOM      9  C   UNL     1      -1.812   4.335   7.098  0.00  0.00    +0.237 A 
ATOM     10  N   UNL     1      -2.442   3.182   7.106  0.00  0.00    -0.125 NA
ATOM     11  N   UNL     1      -1.988   5.356   8.029  0.00  0.00    -0.308 N 
ATOM     12  H   UNL     1      -1.412   6.288   7.937  0.00  0.00    +0.149 HD
ENDROOT
BRANCH   1  13
ATOM     13  C   UNL     1       0.011   1.072   2.506  0.00  0.00    +0.055 C 
BRANCH  13  15
ATOM     14  C   UNL     1      -0.013   1.086   0.008  0.00  0.00    +0.004 C 
ATOM     15  C   UNL     1      -0.729   1.579   1.267  0.00  0.00    +0.003 C 
ENDBRANCH  13  15
ENDBRANCH   1  13
BRANCH  11  16
ATOM     16  C   UNL     1      -2.939   5.188   9.130  0.00  0.00    +0.139 C 
BRANCH  16  17
ATOM     17  C   UNL     1      -2.939   6.427   9.988  0.00  0.00    -0.029 A 
ATOM     18  C   UNL     1      -3.807   7.465   9.703  0.00  0.00    +0.005 A 
ATOM     19  C   UNL     1      -3.808   8.601  10.489  0.00  0.00    +0.001 A 
ATOM     20  C   UNL     1      -2.941   8.701  11.561  0.00  0.00    +0.015 A 
ATOM     21  C   UNL     1      -2.072   7.663  11.846  0.00  0.00    +0.018 A 
ATOM     22  C   UNL     1      -2.075   6.524  11.062  0.00  0.00    +0.020 A 
ATOM     23 BR   UNL     1      -0.885   7.799  13.312  0.00  0.00    -0.050 Br
ENDBRANCH  16  17
ENDBRANCH  11  16
TORSDOF 4
