REMARK  Name = ZINC63514387
REMARK  8 active torsions:
REMARK  status: ('A' for Active; 'I' for Inactive)
REMARK    1  A    between atoms: C_1  and  C_2
REMARK    2  A    between atoms: C_2  and  C_3
REMARK    3  A    between atoms: C_3  and  C_5
REMARK    4  A    between atoms: C_3  and  N_19
REMARK    5  A    between atoms: N_7  and  C_8
REMARK    6  A    between atoms: C_8  and  C_9
REMARK    7  A    between atoms: C_9  and  C_10
REMARK    8  A    between atoms: C_27  and  C_30
REMARK                            x       y       z     vdW  Elec       q    Type
REMARK                         _______ _______ _______ _____ _____    ______ ____
ROOT
ATOM      1  C   UNL     1      -1.433  -0.534   0.013  0.00  0.00    +0.179 C 
ENDROOT
BRANCH   1   2
ATOM      2  N   UNL     1      -2.082  -0.162   1.273  0.00  0.00    -0.218 N 
ATOM      3  C   UNL     1      -3.200   0.606   1.228  0.00  0.00    +0.277 C 
ATOM      4  O   UNL     1      -3.590   1.129   0.201  0.00  0.00    -0.267 OA
ATOM      5  C   UNL     1      -3.907   0.763   2.507  0.00  0.00    +0.111 A 
ATOM      6  C   UNL     1      -4.906   1.599   2.896  0.00  0.00    +0.079 A 
ATOM      7  C   UNL     1      -5.199   1.308   4.238  0.00  0.00    +0.153 A 
ATOM      8  C   UNL     1      -4.349   0.277   4.643  0.00  0.00    +0.089 A 
ATOM      9  N   UNL     1      -3.560  -0.053   3.586  0.00  0.00    -0.316 N 
ATOM     10  C   UNL     1      -2.498  -1.054   3.450  0.00  0.00    +0.170 C 
ATOM     11  N   UNL     1      -1.544  -0.603   2.437  0.00  0.00    -0.215 NA
ATOM     12  C   UNL     1      -3.107  -2.390   3.019  0.00  0.00    +0.050 C 
ATOM     13  C   UNL     1      -4.673   0.012   5.996  0.00  0.00    +0.067 A 
ATOM     14  C   UNL     1      -5.661   0.854   6.343  0.00  0.00    +0.198 A 
ATOM     15  O   UNL     1      -5.977   1.631   5.293  0.00  0.00    -0.461 OA
ATOM     16  H   UNL     1      -0.907   0.079   2.822  0.00  0.00    +0.147 HD
ENDBRANCH   1   2
BRANCH   1  17
ATOM     17  C   UNL     1      -1.416  -2.035  -0.119  0.00  0.00    +0.235 C 
ATOM     18  O   UNL     1      -1.898  -2.726   0.753  0.00  0.00    -0.274 OA
ATOM     19  N   UNL     1      -0.865  -2.609  -1.207  0.00  0.00    -0.313 N 
ATOM     20  H   UNL     1      -0.480  -2.056  -1.905  0.00  0.00    +0.149 HD
BRANCH  19  21
ATOM     21  C   UNL     1      -0.848  -4.069  -1.335  0.00  0.00    +0.108 C 
BRANCH  21  22
ATOM     22  C   UNL     1      -0.171  -4.457  -2.651  0.00  0.00    +0.052 C 
BRANCH  22  23
ATOM     23  C   UNL     1      -0.154  -5.958  -2.783  0.00  0.00    -0.040 C 
ATOM     24  C   UNL     1      -1.051  -6.727  -3.442  0.00  0.00    -0.001 A 
ATOM     25  C   UNL     1      -2.265  -6.408  -4.203  0.00  0.00    +0.010 A 
ATOM     26  C   UNL     1      -2.973  -7.416  -4.761  0.00  0.00    +0.001 A 
ATOM     27  C   UNL     1      -2.578  -8.754  -4.631  0.00  0.00    +0.002 A 
ATOM     28  C   UNL     1      -1.475  -9.126  -3.947  0.00  0.00    +0.026 A 
ATOM     29  C   UNL     1      -0.655  -8.148  -3.320  0.00  0.00    +0.043 A 
ATOM     30  N   UNL     1       0.444  -8.254  -2.613  0.00  0.00    -0.380 N 
ATOM     31  C   UNL     1       0.874  -6.909  -2.212  0.00  0.00    +0.144 C 
ATOM     32  H   UNL     1       0.900  -9.082  -2.395  0.00  0.00    +0.160 HD
ENDBRANCH  22  23
ENDBRANCH  21  22
ENDBRANCH  19  21
ENDBRANCH   1  17
BRANCH   1  34
ATOM     33  C   UNL     1      -0.019   1.526   0.010  0.00  0.00    +0.006 C 
ATOM     34  C   UNL     1       0.002  -0.004   0.002  0.00  0.00    +0.030 C 
ENDBRANCH   1  34
TORSDOF 6
