REMARK  Name = ZINC67613239
REMARK  8 active torsions:
REMARK  status: ('A' for Active; 'I' for Inactive)
REMARK    1  A    between atoms: C_1  and  C_2
REMARK    2  A    between atoms: C_2  and  C_4
REMARK    3  A    between atoms: C_2  and  N_17
REMARK    4  A    between atoms: N_17  and  C_18
REMARK    5  A    between atoms: N_17  and  S_26
REMARK    6  A    between atoms: C_22  and  O_24
REMARK    7  A    between atoms: O_24  and  C_25
REMARK    8  A    between atoms: S_26  and  C_29
REMARK                            x       y       z     vdW  Elec       q    Type
REMARK                         _______ _______ _______ _____ _____    ______ ____
ROOT
ATOM      1  C   UNL     1      -0.779   0.829  -0.197  0.00  0.00    +0.040 C 
ATOM      2  C   UNL     1      -0.277  -0.587   0.097  0.00  0.00    +0.180 C 
ENDROOT
BRANCH   2   3
ATOM      3  C   UNL     1      -1.394  -1.573  -0.129  0.00  0.00    +0.242 C 
ATOM      4  O   UNL     1      -1.470  -2.173  -1.181  0.00  0.00    -0.273 OA
ATOM      5  N   UNL     1      -2.309  -1.788   0.837  0.00  0.00    -0.259 N 
ATOM      6  C   UNL     1      -2.244  -1.068   2.118  0.00  0.00    +0.209 C 
ATOM      7  C   UNL     1      -2.546  -2.031   3.238  0.00  0.00    +0.235 C 
ATOM      8  O   UNL     1      -2.062  -1.845   4.334  0.00  0.00    -0.274 OA
ATOM      9  N   UNL     1      -3.347  -3.094   3.036  0.00  0.00    -0.283 N 
ATOM     10  C   UNL     1      -3.879  -3.359   1.769  0.00  0.00    +0.055 A 
ATOM     11  C   UNL     1      -3.359  -2.701   0.650  0.00  0.00    +0.058 A 
ATOM     12  C   UNL     1      -3.871  -2.952  -0.609  0.00  0.00    +0.025 A 
ATOM     13  C   UNL     1      -4.909  -3.855  -0.760  0.00  0.00    +0.002 A 
ATOM     14  C   UNL     1      -5.433  -4.503   0.343  0.00  0.00    +0.002 A 
ATOM     15  C   UNL     1      -4.917  -4.263   1.611  0.00  0.00    +0.025 A 
ATOM     16  H   UNL     1      -3.559  -3.683   3.777  0.00  0.00    +0.155 HD
ENDBRANCH   2   3
BRANCH   2  17
ATOM     17  N   UNL     1       0.841  -0.903  -0.794  0.00  0.00    -0.196 N 
BRANCH  17  18
ATOM     18  C   UNL     1       0.677  -0.817  -2.179  0.00  0.00    +0.055 A 
ATOM     19  C   UNL     1       0.499   0.422  -2.783  0.00  0.00    +0.025 A 
ATOM     20  C   UNL     1       0.337   0.506  -4.152  0.00  0.00    +0.005 A 
ATOM     21  C   UNL     1       0.351  -0.640  -4.924  0.00  0.00    +0.046 A 
ATOM     22  C   UNL     1       0.528  -1.879  -4.327  0.00  0.00    +0.122 A 
ATOM     23  C   UNL     1       0.696  -1.968  -2.954  0.00  0.00    +0.070 A 
BRANCH  22  24
ATOM     24  O   UNL     1       0.541  -3.005  -5.088  0.00  0.00    -0.495 OA
ATOM     25  C   UNL     1       0.367  -2.838  -6.496  0.00  0.00    +0.277 C 
ENDBRANCH  22  24
ENDBRANCH  17  18
BRANCH  17  26
ATOM     26  S   UNL     1       2.301  -1.362  -0.161  0.00  0.00    +0.043 S 
ATOM     27  O   UNL     1       3.250  -1.042  -1.169  0.00  0.00    -0.155 OA
ATOM     28  O   UNL     1       2.357  -0.735   1.113  0.00  0.00    -0.155 OA
ATOM     29  C   UNL     1       2.179  -3.162   0.034  0.00  0.00    +0.218 C 
ENDBRANCH  17  26
ENDBRANCH   2  17
TORSDOF 5
