REMARK  Name = ZINC24704773
REMARK  12 active torsions:
REMARK  status: ('A' for Active; 'I' for Inactive)
REMARK    1  A    between atoms: C_1  and  C_2
REMARK    2  A    between atoms: C_2  and  C_3
REMARK    3  A    between atoms: C_2  and  C_4
REMARK    4  A    between atoms: C_2  and  C_5
REMARK    5  A    between atoms: C_8  and  S_11
REMARK    6  A    between atoms: S_11  and  N_14
REMARK    7  A    between atoms: N_14  and  C_15
REMARK    8  A    between atoms: C_15  and  C_16
REMARK    9  A    between atoms: C_16  and  C_17
REMARK   10  A    between atoms: N_19  and  N_20
REMARK   11  A    between atoms: C_21  and  C_23
REMARK   12  A    between atoms: C_23  and  C_24
REMARK                            x       y       z     vdW  Elec       q    Type
REMARK                         _______ _______ _______ _____ _____    ______ ____
ROOT
ATOM      1  C   UNL     1       3.697   1.549   0.348  0.00  0.00    +0.230 C 
ATOM      2  O   UNL     1       3.696   2.732   0.083  0.00  0.00    -0.274 OA
ATOM      3  N   UNL     1       4.856   0.923   0.636  0.00  0.00    -0.234 N 
ATOM      4  H   UNL     1       4.856  -0.150   0.877  0.00  0.00    +0.173 HD
ENDROOT
BRANCH   3   5
ATOM      5  N   UNL     1       6.059   1.640   0.628  0.00  0.00    -0.234 N 
ATOM      6  C   UNL     1       7.218   1.015   0.916  0.00  0.00    +0.233 C 
ATOM      7  O   UNL     1       7.219  -0.169   1.182  0.00  0.00    -0.274 OA
ATOM      8  H   UNL     1       6.059   2.713   0.388  0.00  0.00    +0.173 HD
BRANCH   6   9
ATOM      9  C   UNL     1       8.513   1.786   0.908  0.00  0.00    +0.134 C 
BRANCH   9  10
ATOM     10  C   UNL     1       9.650   0.862   1.260  0.00  0.00    -0.014 A 
ATOM     11  C   UNL     1      10.185   0.682   2.478  0.00  0.00    +0.087 A 
ATOM     12  N   UNL     1      11.197  -0.236   2.412  0.00  0.00    -0.360 N 
ATOM     13  H   UNL     1      11.748  -0.514   3.322  0.00  0.00    +0.165 HD
ATOM     14  C   UNL     1      11.349  -0.674   1.115  0.00  0.00    +0.047 A 
ATOM     15  C   UNL     1      10.386  -0.005   0.337  0.00  0.00    +0.003 A 
ATOM     16  C   UNL     1      10.303  -0.254  -1.034  0.00  0.00    +0.010 A 
ATOM     17  C   UNL     1      11.160  -1.148  -1.614  0.00  0.00    +0.001 A 
ATOM     18  C   UNL     1      12.111  -1.809  -0.851  0.00  0.00    +0.002 A 
ATOM     19  C   UNL     1      12.210  -1.579   0.504  0.00  0.00    +0.026 A 
ENDBRANCH   9  10
ENDBRANCH   6   9
ENDBRANCH   3   5
BRANCH   1  20
ATOM     20  C   UNL     1       2.402   0.777   0.357  0.00  0.00    +0.114 C 
BRANCH  20  21
ATOM     21  C   UNL     1       1.248   1.716  -0.001  0.00  0.00    +0.115 C 
BRANCH  21  22
ATOM     22  N   UNL     1      -0.011   0.966   0.007  0.00  0.00    -0.189 NA
ATOM     23  H   UNL     1      -0.005  -0.121  -0.159  0.00  0.00    +0.148 HD
BRANCH  22  24
ATOM     24  S   UNL     1      -1.456   1.774   0.019  0.00  0.00    +0.058 S 
ATOM     25  O   UNL     1      -2.475   0.784  -0.009  0.00  0.00    -0.153 OA
ATOM     26  O   UNL     1      -1.369   2.749   1.049  0.00  0.00    -0.153 OA
BRANCH  24  30
ATOM     27  C   UNL     1      -1.752   4.044  -3.887  0.00  0.00    -0.042 A 
ATOM     28  C   UNL     1      -2.238   2.753  -3.799  0.00  0.00    +0.006 A 
ATOM     29  C   UNL     1      -2.148   2.060  -2.607  0.00  0.00    +0.029 A 
ATOM     30  C   UNL     1      -1.571   2.658  -1.502  0.00  0.00    +0.105 A 
ATOM     31  C   UNL     1      -1.089   3.950  -1.588  0.00  0.00    +0.029 A 
ATOM     32  C   UNL     1      -1.175   4.642  -2.782  0.00  0.00    +0.006 A 
BRANCH  27  34
ATOM     33  C   UNL     1      -3.319   4.930  -5.591  0.00  0.00    +0.015 C 
ATOM     34  C   UNL     1      -1.849   4.800  -5.187  0.00  0.00    -0.013 C 
ATOM     35  C   UNL     1      -1.242   6.194  -5.014  0.00  0.00    +0.015 C 
ATOM     36  C   UNL     1      -1.086   4.043  -6.276  0.00  0.00    +0.015 C 
ENDBRANCH  27  34
ENDBRANCH  24  30
ENDBRANCH  22  24
ENDBRANCH  21  22
ENDBRANCH  20  21
ENDBRANCH   1  20
TORSDOF 9
