REMARK  Name = ZINC37492310
REMARK  4 active torsions:
REMARK  status: ('A' for Active; 'I' for Inactive)
REMARK    1  A    between atoms: C_3  and  O_10
REMARK    2  A    between atoms: C_6  and  N_7
REMARK    3  A    between atoms: O_10  and  C_11
REMARK    4  A    between atoms: C_17  and  O_19
REMARK                            x       y       z     vdW  Elec       q    Type
REMARK                         _______ _______ _______ _____ _____    ______ ____
ROOT
ATOM      1  C   UNL     1       1.199  -0.664   0.213  0.00  0.00    +0.036 A 
ATOM      2  C   UNL     1       2.388   0.039   0.203  0.00  0.00    +0.048 A 
ATOM      3  C   UNL     1       2.380   1.409  -0.011  0.00  0.00    +0.121 A 
ATOM      4  C   UNL     1       1.177   2.071  -0.214  0.00  0.00    +0.048 A 
ATOM      5  C   UNL     1      -0.009   1.363  -0.202  0.00  0.00    +0.036 A 
ATOM      6  C   UNL     1       0.002  -0.003   0.011  0.00  0.00    +0.126 A 
ENDROOT
BRANCH   6   7
ATOM      7  N   UNL     1      -1.271  -0.759   0.022  0.00  0.00    +0.056 N 
ATOM      8  O   UNL     1      -1.262  -1.954   0.208  0.00  0.00    -0.126 OA
ATOM      9  O   UNL     1      -2.318  -0.182  -0.155  0.00  0.00    -0.126 OA
ENDBRANCH   6   7
BRANCH   3  10
ATOM     10  O   UNL     1       3.548   2.104  -0.021  0.00  0.00    -0.486 OA
BRANCH  10  11
ATOM     11  C   UNL     1       4.755   1.344   0.074  0.00  0.00    +0.202 C 
ATOM     12  C   UNL     1       5.069   1.067   1.546  0.00  0.00    +0.047 C 
ATOM     13  C   UNL     1       6.361   0.254   1.648  0.00  0.00    +0.004 C 
ATOM     14  C   UNL     1       7.511   1.044   1.022  0.00  0.00    +0.003 C 
ATOM     15  C   UNL     1       7.198   1.321  -0.450  0.00  0.00    +0.035 C 
ATOM     16  C   UNL     1       5.906   2.134  -0.552  0.00  0.00    +0.155 C 
BRANCH  16  17
ATOM     17  O   UNL     1       5.613   2.393  -1.927  0.00  0.00    -0.388 OA
ATOM     18  H   UNL     1       6.301   2.891  -2.389  0.00  0.00    +0.210 HD
ENDBRANCH  16  17
ENDBRANCH  10  11
ENDBRANCH   3  10
TORSDOF 4
