REMARK  Name = ZINC12076413
REMARK  14 active torsions:
REMARK  status: ('A' for Active; 'I' for Inactive)
REMARK    1  A    between atoms: C_1  and  N_64
REMARK    2  A    between atoms: C_2  and  C_3
REMARK    3  A    between atoms: C_2  and  N_64
REMARK    4  A    between atoms: C_9  and  C_10
REMARK    5  A    between atoms: C_9  and  N_64
REMARK    6  A    between atoms: C_10  and  C_12
REMARK    7  A    between atoms: C_10  and  O_29
REMARK    8  A    between atoms: C_12  and  O_13
REMARK    9  A    between atoms: O_13  and  C_14
REMARK   10  A    between atoms: C_17  and  C_20
REMARK   11  A    between atoms: C_20  and  N_66
REMARK   12  A    between atoms: C_21  and  C_22
REMARK   13  A    between atoms: C_21  and  N_66
REMARK   14  A    between atoms: C_22  and  O_28
REMARK                            x       y       z     vdW  Elec       q    Type
REMARK                         _______ _______ _______ _____ _____    ______ ____
ROOT
ATOM      1  C   UNL     1       1.213  -0.680  -0.013  0.00  0.00    +0.121 A 
ATOM      2  C   UNL     1       0.002  -0.004   0.002  0.00  0.00    +0.046 A 
ATOM      3  C   UNL     1      -0.017   1.377   0.010  0.00  0.00    +0.005 A 
ATOM      4  C   UNL     1       1.171   2.086   0.002  0.00  0.00    -0.064 A 
ATOM      5  C   UNL     1       2.379   1.415  -0.013  0.00  0.00    +0.005 A 
ATOM      6  C   UNL     1       2.403   0.033  -0.021  0.00  0.00    +0.046 A 
ENDROOT
BRANCH   1   7
ATOM      7  O   UNL     1       1.234  -2.039  -0.020  0.00  0.00    -0.489 OA
BRANCH   7   8
ATOM      8  C   UNL     1       2.518  -2.668  -0.036  0.00  0.00    +0.258 C 
BRANCH   8   9
ATOM      9  C   UNL     1       2.341  -4.188  -0.042  0.00  0.00    +0.135 C 
BRANCH   9  10
ATOM     10  O   UNL     1       1.708  -4.589  -1.259  0.00  0.00    -0.390 OA
ATOM     11  H   UNL     1       2.205  -4.356  -2.055  0.00  0.00    +0.210 HD
ENDBRANCH   9  10
BRANCH   9  12
ATOM     12  C   UNL     1       3.710  -4.861   0.067  0.00  0.00    -0.044 C 
BRANCH  12  14
ATOM     13  C   UNL     1       2.832  -6.772   1.266  0.00  0.00    -0.096 C 
ATOM     14  N   UNL     1       3.524  -6.327   0.039  0.00  0.00    +0.382 N 
ATOM     15  H   UNL     1       2.951  -6.574  -0.776  0.00  0.00    -0.082 HD
BRANCH  14  16
ATOM     16  C   UNL     1       4.835  -7.000  -0.074  0.00  0.00    -0.043 C 
BRANCH  16  17
ATOM     17  C   UNL     1       4.608  -8.469  -0.322  0.00  0.00    -0.064 A 
ATOM     18  C   UNL     1       4.526  -9.346   0.743  0.00  0.00    +0.002 A 
ATOM     19  C   UNL     1       4.312 -10.692   0.516  0.00  0.00    +0.000 A 
ATOM     20  C   UNL     1       4.190 -11.164  -0.778  0.00  0.00    +0.000 A 
ATOM     21  C   UNL     1       4.277 -10.288  -1.844  0.00  0.00    +0.000 A 
ATOM     22  C   UNL     1       4.486  -8.941  -1.616  0.00  0.00    +0.002 A 
ENDBRANCH  16  17
ENDBRANCH  14  16
ENDBRANCH  12  14
ENDBRANCH   9  12
ENDBRANCH   8   9
ENDBRANCH   7   8
ENDBRANCH   1   7
BRANCH   4  23
ATOM     23  C   UNL     1       1.147   3.593   0.011  0.00  0.00    -0.047 C 
BRANCH  23  24
ATOM     24  N   UNL     1       1.153   4.069   1.407  0.00  0.00    +0.384 N 
ATOM     25  H   UNL     1       2.001   3.730   1.876  0.00  0.00    -0.085 HD
ATOM     26  H   UNL     1       0.325   3.704   1.892  0.00  0.00    -0.085 HD
BRANCH  24  27
ATOM     27  C   UNL     1       1.130   5.543   1.445  0.00  0.00    -0.047 C 
BRANCH  27  28
ATOM     28  C   UNL     1       1.137   6.006   2.904  0.00  0.00    +0.051 C 
ATOM     29  C   UNL     1      -0.028   5.354   3.651  0.00  0.00    +0.033 C 
ATOM     30  C   UNL     1      -0.021   5.817   5.109  0.00  0.00    +0.003 C 
ATOM     31  C   UNL     1      -0.170   7.339   5.162  0.00  0.00    +0.000 C 
ATOM     32  C   UNL     1       0.995   7.992   4.414  0.00  0.00    +0.003 C 
ATOM     33  C   UNL     1       0.988   7.528   2.956  0.00  0.00    +0.033 C 
BRANCH  28  34
ATOM     34  O   UNL     1       2.370   5.627   3.518  0.00  0.00    -0.390 OA
ATOM     35  H   UNL     1       2.531   4.673   3.521  0.00  0.00    +0.210 HD
ENDBRANCH  28  34
ENDBRANCH  27  28
ENDBRANCH  24  27
ENDBRANCH  23  24
ENDBRANCH   4  23
TORSDOF 13
