REMARK  Name = ZINC19826499
REMARK  9 active torsions:
REMARK  status: ('A' for Active; 'I' for Inactive)
REMARK    1  A    between atoms: C_1  and  C_2
REMARK    2  A    between atoms: C_7  and  C_15
REMARK    3  A    between atoms: C_13  and  C_14
REMARK    4  A    between atoms: C_15  and  C_17
REMARK    5  A    between atoms: C_15  and  N_28
REMARK    6  A    between atoms: N_21  and  C_22
REMARK    7  A    between atoms: N_31  and  C_34
REMARK    8  A    between atoms: C_39  and  O_40
REMARK    9  A    between atoms: O_40  and  C_41
REMARK                            x       y       z     vdW  Elec       q    Type
REMARK                         _______ _______ _______ _____ _____    ______ ____
ROOT
ATOM      1  C   UNL     1       1.838   3.307   0.125  0.00  0.00    +0.162 C 
ENDROOT
BRANCH   1   8
ATOM      2  C   UNL     1       3.308   7.063   7.007  0.00  0.00    +0.044 C 
ATOM      3  C   UNL     1       2.836   6.482   5.699  0.00  0.00    -0.046 A 
ATOM      4  C   UNL     1       1.645   6.928   5.139  0.00  0.00    +0.004 A 
ATOM      5  C   UNL     1       1.200   6.415   3.954  0.00  0.00    +0.010 A 
ATOM      6  C   UNL     1       1.949   5.433   3.298  0.00  0.00    -0.001 A 
ATOM      7  C   UNL     1       1.504   4.866   2.023  0.00  0.00    +0.021 A 
ATOM      8  C   UNL     1       2.269   3.914   1.435  0.00  0.00    +0.042 A 
ATOM      9  C   UNL     1       3.472   3.493   2.043  0.00  0.00    +0.254 A 
ATOM     10  O   UNL     1       4.147   2.639   1.495  0.00  0.00    -0.268 OA
ATOM     11  N   UNL     1       3.891   4.011   3.211  0.00  0.00    -0.322 N 
ATOM     12  H   UNL     1       4.833   3.663   3.660  0.00  0.00    +0.169 HD
ATOM     13  C   UNL     1       3.156   4.979   3.862  0.00  0.00    +0.052 A 
ATOM     14  C   UNL     1       3.589   5.515   5.070  0.00  0.00    -0.024 A 
ATOM     15  C   UNL     1       4.879   5.041   5.689  0.00  0.00    +0.046 C 
ENDBRANCH   1   8
BRANCH   1  16
ATOM     16  N   UNL     1       2.913   3.461  -0.864  0.00  0.00    -0.286 NA
ATOM     17  C   UNL     1       3.291   4.873  -1.016  0.00  0.00    +0.104 C 
ATOM     18  C   UNL     1       4.464   4.982  -1.993  0.00  0.00    +0.120 C 
ATOM     19  N   UNL     1       4.078   4.400  -3.286  0.00  0.00    -0.325 N 
ATOM     20  C   UNL     1       3.701   2.988  -3.133  0.00  0.00    +0.120 C 
ATOM     21  C   UNL     1       2.527   2.879  -2.156  0.00  0.00    +0.104 C 
BRANCH  19  22
ATOM     22  C   UNL     1       5.102   4.546  -4.228  0.00  0.00    +0.072 A 
ATOM     23  C   UNL     1       6.357   4.984  -3.829  0.00  0.00    +0.027 A 
ATOM     24  C   UNL     1       7.369   5.123  -4.760  0.00  0.00    +0.002 A 
ATOM     25  C   UNL     1       7.131   4.837  -6.092  0.00  0.00    +0.004 A 
ATOM     26  C   UNL     1       5.881   4.406  -6.498  0.00  0.00    +0.047 A 
ATOM     27  C   UNL     1       4.864   4.259  -5.570  0.00  0.00    +0.141 A 
BRANCH  27  28
ATOM     28  O   UNL     1       3.634   3.836  -5.968  0.00  0.00    -0.493 OA
ATOM     29  C   UNL     1       3.462   3.560  -7.360  0.00  0.00    +0.277 C 
ENDBRANCH  27  28
ENDBRANCH  19  22
ENDBRANCH   1  16
BRANCH   1  30
ATOM     30  C   UNL     1       1.543   1.842   0.323  0.00  0.00    +0.173 A 
ATOM     31  N   UNL     1       2.421   0.881   0.474  0.00  0.00    -0.111 NA
ATOM     32  N   UNL     1       1.778  -0.227   0.615  0.00  0.00    -0.023 NA
ATOM     33  N   UNL     1       0.512   0.004   0.558  0.00  0.00    -0.044 NA
ATOM     34  N   UNL     1       0.327   1.268   0.379  0.00  0.00    -0.224 N 
BRANCH  34  35
ATOM     35  C   UNL     1      -0.964   1.949   0.253  0.00  0.00    +0.111 C 
ATOM     36  C   UNL     1      -1.784   1.727   1.525  0.00  0.00    +0.027 C 
ATOM     37  C   UNL     1      -3.132   2.438   1.394  0.00  0.00    +0.002 C 
ATOM     38  C   UNL     1      -3.892   1.873   0.192  0.00  0.00    +0.000 C 
ATOM     39  C   UNL     1      -3.072   2.095  -1.080  0.00  0.00    +0.002 C 
ATOM     40  C   UNL     1      -1.724   1.384  -0.949  0.00  0.00    +0.027 C 
ENDBRANCH  34  35
ENDBRANCH   1  30
TORSDOF 6
