REMARK  Name = ZINC06194753
REMARK  11 active torsions:
REMARK  status: ('A' for Active; 'I' for Inactive)
REMARK    1  A    between atoms: C_1  and  C_2
REMARK    2  A    between atoms: C_2  and  O_3
REMARK    3  A    between atoms: O_3  and  C_4
REMARK    4  A    between atoms: C_4  and  C_6
REMARK    5  A    between atoms: C_11  and  C_13
REMARK    6  A    between atoms: C_11  and  C_27
REMARK    7  A    between atoms: C_11  and  N_70
REMARK    8  A    between atoms: C_17  and  C_26
REMARK    9  A    between atoms: C_19  and  C_25
REMARK   10  A    between atoms: N_31  and  C_32
REMARK   11  A    between atoms: C_32  and  C_33
REMARK                            x       y       z     vdW  Elec       q    Type
REMARK                         _______ _______ _______ _____ _____    ______ ____
ROOT
ATOM      1  C   UNL     1      -4.985   1.048   0.052  0.00  0.00    +0.039 C 
ENDROOT
BRANCH   1   2
ATOM      2  C   UNL     1      -3.752   1.907  -0.061  0.00  0.00    +0.011 A 
ATOM      3  C   UNL     1      -3.572   2.692  -1.152  0.00  0.00    +0.017 A 
ATOM      4  C   UNL     1      -2.366   3.517  -1.230  0.00  0.00    -0.001 A 
ATOM      5  C   UNL     1      -2.124   4.344  -2.332  0.00  0.00    +0.013 A 
ATOM      6  C   UNL     1      -0.986   5.099  -2.375  0.00  0.00    -0.050 A 
ATOM      7  C   UNL     1      -0.065   5.049  -1.338  0.00  0.00    +0.008 A 
ATOM      8  C   UNL     1      -0.280   4.238  -0.244  0.00  0.00    -0.026 A 
ATOM      9  C   UNL     1      -1.432   3.461  -0.178  0.00  0.00    +0.052 A 
ATOM     10  N   UNL     1      -1.673   2.641   0.904  0.00  0.00    -0.322 N 
ATOM     11  H   UNL     1      -1.010   2.605   1.652  0.00  0.00    +0.169 HD
ATOM     12  C   UNL     1      -2.787   1.890   0.969  0.00  0.00    +0.251 A 
ATOM     13  O   UNL     1      -2.967   1.177   1.941  0.00  0.00    -0.268 OA
ATOM     14  C   UNL     1       0.728   4.194   0.875  0.00  0.00    +0.046 C 
ATOM     15  C   UNL     1      -0.728   5.993  -3.561  0.00  0.00    +0.044 C 
ENDBRANCH   1   2
BRANCH   1  21
ATOM     16  C   UNL     1      -7.950   2.466   2.787  0.00  0.00    +0.094 C 
ATOM     17  C   UNL     1      -7.661   0.965   2.699  0.00  0.00    -0.004 C 
ATOM     18  C   UNL     1      -6.983   0.658   1.362  0.00  0.00    -0.077 C 
ATOM     19  C   UNL     1      -5.989   2.867   1.294  0.00  0.00    -0.077 C 
ATOM     20  C   UNL     1      -6.638   3.240   2.629  0.00  0.00    -0.004 C 
ATOM     21  N   UNL     1      -5.715   1.415   1.283  0.00  0.00    +0.389 N 
ATOM     22  H   UNL     1      -5.135   1.179   2.097  0.00  0.00    -0.080 HD
BRANCH  16  23
ATOM     23  C   UNL     1      -8.564   2.784   4.126  0.00  0.00    +0.310 C 
ATOM     24  O   UNL     1      -8.752   1.901   4.929  0.00  0.00    -0.251 OA
BRANCH  23  25
ATOM     25  O   UNL     1      -8.902   4.048   4.427  0.00  0.00    -0.465 OA
BRANCH  25  27
ATOM     26  C   UNL     1      -9.805   5.768   5.895  0.00  0.00    +0.048 C 
ATOM     27  C   UNL     1      -9.488   4.280   5.734  0.00  0.00    +0.229 C 
ENDBRANCH  25  27
ENDBRANCH  23  25
ENDBRANCH  16  23
ENDBRANCH   1  21
BRANCH   1  28
ATOM     28  C   UNL     1      -5.855   1.256  -1.162  0.00  0.00    +0.143 A 
ATOM     29  N   UNL     1      -6.613   2.296  -1.412  0.00  0.00    -0.115 NA
ATOM     30  N   UNL     1      -7.195   2.100  -2.545  0.00  0.00    -0.023 NA
ATOM     31  N   UNL     1      -6.834   0.959  -3.019  0.00  0.00    -0.044 NA
ATOM     32  N   UNL     1      -6.008   0.408  -2.195  0.00  0.00    -0.228 N 
BRANCH  32  33
ATOM     33  C   UNL     1      -5.359  -0.895  -2.355  0.00  0.00    +0.178 C 
BRANCH  33  34
ATOM     34  C   UNL     1      -6.235  -1.982  -1.728  0.00  0.00    +0.140 C 
ATOM     35  C   UNL     1      -5.592  -3.377  -1.934  0.00  0.00    +0.035 C 
ATOM     36  C   UNL     1      -6.214  -4.166  -0.750  0.00  0.00    +0.031 C 
ATOM     37  C   UNL     1      -6.320  -3.083   0.346  0.00  0.00    +0.160 C 
ATOM     38  O   UNL     1      -6.303  -1.807  -0.304  0.00  0.00    -0.375 OA
ENDBRANCH  33  34
ENDBRANCH  32  33
ENDBRANCH   1  28
TORSDOF 8
