REMARK  Name = ZINC06647664
REMARK  7 active torsions:
REMARK  status: ('A' for Active; 'I' for Inactive)
REMARK    1  A    between atoms: C_1  and  C_2
REMARK    2  A    between atoms: C_3  and  C_31
REMARK    3  A    between atoms: N_4  and  C_25
REMARK    4  A    between atoms: C_5  and  S_7
REMARK    5  A    between atoms: S_7  and  C_8
REMARK    6  A    between atoms: C_8  and  C_9
REMARK    7  A    between atoms: C_22  and  C_24
REMARK                            x       y       z     vdW  Elec       q    Type
REMARK                         _______ _______ _______ _____ _____    ______ ____
ROOT
ATOM      1  C   UNL     1      -0.029  -0.941  -2.254  0.00  0.00    +0.230 C 
ATOM      2  O   UNL     1      -1.240  -0.974  -2.201  0.00  0.00    -0.274 OA
ATOM      3  N   UNL     1       0.680  -0.475  -1.207  0.00  0.00    -0.266 N 
ATOM      4  C   UNL     1       2.080  -0.432  -1.254  0.00  0.00    +0.058 A 
ATOM      5  C   UNL     1       2.731   0.510  -2.034  0.00  0.00    +0.025 A 
ATOM      6  C   UNL     1       4.113   0.565  -2.037  0.00  0.00    +0.002 A 
ATOM      7  C   UNL     1       4.847  -0.317  -1.264  0.00  0.00    +0.002 A 
ATOM      8  C   UNL     1       4.205  -1.267  -0.491  0.00  0.00    +0.025 A 
ATOM      9  C   UNL     1       2.822  -1.334  -0.491  0.00  0.00    +0.055 A 
ATOM     10  N   UNL     1       2.149  -2.304   0.261  0.00  0.00    -0.284 N 
ATOM     11  C   UNL     1       1.120  -1.956   1.066  0.00  0.00    +0.219 C 
ATOM     12  O   UNL     1       0.497  -2.817   1.652  0.00  0.00    -0.275 OA
ATOM     13  C   UNL     1       0.742  -0.509   1.242  0.00  0.00    +0.118 C 
ATOM     14  C   UNL     1       0.002  -0.004   0.002  0.00  0.00    +0.087 C 
ATOM     15  C   UNL     1      -0.019   1.526   0.010  0.00  0.00    +0.029 C 
ATOM     16  H   UNL     1       2.423  -3.232   0.205  0.00  0.00    +0.155 HD
ENDROOT
BRANCH   1  17
ATOM     17  C   UNL     1       0.684  -1.422  -3.492  0.00  0.00    +0.173 C 
BRANCH  17  18
ATOM     18  S   UNL     1      -0.532  -1.982  -4.710  0.00  0.00    -0.078 S 
BRANCH  18  23
ATOM     19  C   UNL     1       3.800  -2.957  -7.533  0.00  0.00    +0.067 C 
ATOM     20  C   UNL     1       2.343  -2.868  -7.159  0.00  0.00    +0.060 A 
ATOM     21  C   UNL     1       1.308  -3.235  -7.933  0.00  0.00    +0.039 A 
ATOM     22  N   UNL     1       0.160  -2.989  -7.214  0.00  0.00    -0.320 N 
ATOM     23  C   UNL     1       0.545  -2.474  -6.014  0.00  0.00    +0.170 A 
ATOM     24  N   UNL     1       1.856  -2.401  -5.996  0.00  0.00    -0.227 NA
ATOM     25  C   UNL     1       1.388  -3.809  -9.325  0.00  0.00    +0.065 C 
BRANCH  22  26
ATOM     26  C   UNL     1      -1.215  -3.234  -7.656  0.00  0.00    +0.089 C 
ATOM     27  C   UNL     1      -1.992  -1.916  -7.657  0.00  0.00    +0.025 C 
ATOM     28  C   UNL     1      -3.429  -2.171  -8.119  0.00  0.00    +0.002 C 
ATOM     29  C   UNL     1      -4.103  -3.160  -7.165  0.00  0.00    +0.000 C 
ATOM     30  C   UNL     1      -3.325  -4.478  -7.163  0.00  0.00    +0.002 C 
ATOM     31  C   UNL     1      -1.889  -4.222  -6.702  0.00  0.00    +0.025 C 
ENDBRANCH  22  26
ENDBRANCH  18  23
ENDBRANCH  17  18
ENDBRANCH   1  17
TORSDOF 4
