REMARK  Name = ZINC39710770
REMARK  13 active torsions:
REMARK  status: ('A' for Active; 'I' for Inactive)
REMARK    1  A    between atoms: C_1  and  C_2
REMARK    2  A    between atoms: C_7  and  C_15
REMARK    3  A    between atoms: C_13  and  C_14
REMARK    4  A    between atoms: C_15  and  C_17
REMARK    5  A    between atoms: C_15  and  N_27
REMARK    6  A    between atoms: N_22  and  C_23
REMARK    7  A    between atoms: C_23  and  C_24
REMARK    8  A    between atoms: C_23  and  C_25
REMARK    9  A    between atoms: C_23  and  C_26
REMARK   10  A    between atoms: N_27  and  C_28
REMARK   11  A    between atoms: N_27  and  C_36
REMARK   12  A    between atoms: C_28  and  C_29
REMARK   13  A    between atoms: C_36  and  C_37
REMARK                            x       y       z     vdW  Elec       q    Type
REMARK                         _______ _______ _______ _____ _____    ______ ____
ROOT
ATOM      1  C   UNL     1      -1.028  -5.975   1.009  0.00  0.00    -0.008 C 
ENDROOT
BRANCH   1   8
ATOM      2  C   UNL     1       4.949  -8.764  -2.557  0.00  0.00    +0.044 C 
ATOM      3  C   UNL     1       3.982  -8.185  -1.556  0.00  0.00    -0.046 A 
ATOM      4  C   UNL     1       3.979  -8.694  -0.257  0.00  0.00    +0.004 A 
ATOM      5  C   UNL     1       3.131  -8.213   0.689  0.00  0.00    +0.010 A 
ATOM      6  C   UNL     1       2.205  -7.139   0.326  0.00  0.00    -0.007 A 
ATOM      7  C   UNL     1       1.336  -6.626   1.242  0.00  0.00    -0.006 C 
ATOM      8  C   UNL     1       0.413  -5.515   0.779  0.00  0.00    +0.088 C 
ATOM      9  C   UNL     1       0.532  -5.068  -0.661  0.00  0.00    +0.223 C 
ATOM     10  O   UNL     1      -0.183  -4.180  -1.086  0.00  0.00    -0.275 OA
ATOM     11  N   UNL     1       1.417  -5.645  -1.456  0.00  0.00    -0.284 N 
ATOM     12  C   UNL     1       2.230  -6.622  -1.053  0.00  0.00    +0.043 A 
ATOM     13  C   UNL     1       3.152  -7.186  -1.954  0.00  0.00    -0.026 A 
ATOM     14  C   UNL     1       3.214  -6.683  -3.373  0.00  0.00    +0.046 C 
ATOM     15  H   UNL     1       1.478  -5.344  -2.376  0.00  0.00    +0.155 HD
ENDBRANCH   1   8
BRANCH   1  16
ATOM     16  C   UNL     1      -1.987  -4.830   0.678  0.00  0.00    +0.205 C 
ATOM     17  N   UNL     1      -1.739  -3.682   1.559  0.00  0.00    -0.152 NA
ATOM     18  N   UNL     1      -2.757  -3.456   2.217  0.00  0.00    -0.070 NA
ATOM     19  N   UNL     1      -3.797  -4.337   1.926  0.00  0.00    -0.179 N 
ATOM     20  N   UNL     1      -3.382  -5.227   0.966  0.00  0.00    -0.183 NA
ATOM     21  H   UNL     1      -4.676  -4.324   2.337  0.00  0.00    +0.191 HD
BRANCH  20  22
ATOM     22  C   UNL     1      -4.216  -5.131  -0.240  0.00  0.00    +0.035 C 
ATOM     23  C   UNL     1      -3.608  -5.990  -1.350  0.00  0.00    +0.029 C 
ATOM     24  C   UNL     1      -5.627  -5.631   0.076  0.00  0.00    +0.029 C 
ATOM     25  C   UNL     1      -4.282  -3.674  -0.700  0.00  0.00    +0.029 C 
ENDBRANCH  20  22
ENDBRANCH   1  16
BRANCH   1  26
ATOM     26  N   UNL     1      -1.198  -6.366   2.415  0.00  0.00    +0.392 N 
ATOM     27  H   UNL     1      -0.477  -7.023   2.671  0.00  0.00    -0.080 HD
BRANCH  26  28
ATOM     28  C   UNL     1      -1.102  -5.175   3.269  0.00  0.00    -0.042 C 
BRANCH  28  29
ATOM     29  C   UNL     1      -0.766  -5.592   4.678  0.00  0.00    -0.064 A 
ATOM     30  C   UNL     1      -1.779  -5.877   5.574  0.00  0.00    +0.003 A 
ATOM     31  C   UNL     1      -1.472  -6.260   6.866  0.00  0.00    +0.020 A 
ATOM     32  C   UNL     1      -0.149  -6.359   7.262  0.00  0.00    +0.041 A 
ATOM     33  C   UNL     1       0.864  -6.074   6.364  0.00  0.00    +0.020 A 
ATOM     34  C   UNL     1       0.555  -5.697   5.071  0.00  0.00    +0.003 A 
ATOM     35 CL   UNL     1       0.238  -6.840   8.884  0.00  0.00    -0.084 Cl
ENDBRANCH  28  29
ENDBRANCH  26  28
BRANCH  26  36
ATOM     36  C   UNL     1      -2.515  -6.991   2.593  0.00  0.00    -0.002 C 
BRANCH  36  37
ATOM     37  C   UNL     1      -2.596  -8.240   1.754  0.00  0.00    +0.089 A 
ATOM     38  C   UNL     1      -2.332  -9.490   2.176  0.00  0.00    +0.042 A 
ATOM     39  C   UNL     1      -2.532 -10.347   1.069  0.00  0.00    +0.041 A 
ATOM     40  C   UNL     1      -2.906  -9.570   0.037  0.00  0.00    +0.195 A 
ATOM     41  O   UNL     1      -2.949  -8.296   0.459  0.00  0.00    -0.470 OA
ENDBRANCH  36  37
ENDBRANCH  26  36
ENDBRANCH   1  26
TORSDOF 8
