REMARK  Name = ZINC39864184
REMARK  4 active torsions:
REMARK  status: ('A' for Active; 'I' for Inactive)
REMARK    1  A    between atoms: C_1  and  N_2
REMARK    2  A    between atoms: C_6  and  C_7
REMARK    3  A    between atoms: C_10  and  O_13
REMARK    4  A    between atoms: N_16  and  C_17
REMARK                            x       y       z     vdW  Elec       q    Type
REMARK                         _______ _______ _______ _____ _____    ______ ____
ROOT
ATOM      1  C   UNL     1      -1.605   1.071  -0.524  0.00  0.00    +0.140 C 
ATOM      2  N   UNL     1      -1.539  -0.391  -0.443  0.00  0.00    -0.249 N 
ATOM      3  C   UNL     1      -1.529  -1.108  -1.554  0.00  0.00    +0.259 C 
ATOM      4  O   UNL     1      -1.574  -0.583  -2.651  0.00  0.00    -0.269 OA
ATOM      5  C   UNL     1      -1.460  -2.574  -1.403  0.00  0.00    +0.078 C 
ATOM      6  C   UNL     1      -1.436  -3.538  -2.358  0.00  0.00    +0.028 C 
ATOM      7  S   UNL     1      -1.418  -2.739   0.376  0.00  0.00    -0.049 S 
ATOM      8  C   UNL     1      -1.481  -1.003   0.789  0.00  0.00    +0.168 C 
ATOM      9  N   UNL     1      -1.476  -0.444   1.981  0.00  0.00    -0.224 NA
ENDROOT
BRANCH   9  10
ATOM     10  C   UNL     1      -1.351  -1.220   3.097  0.00  0.00    +0.088 A 
ATOM     11  C   UNL     1      -0.302  -2.143   3.221  0.00  0.00    +0.049 A 
ATOM     12  C   UNL     1      -0.215  -2.904   4.365  0.00  0.00    +0.113 A 
ATOM     13  N   UNL     1      -1.101  -2.775   5.336  0.00  0.00    -0.262 NA
ATOM     14  C   UNL     1      -2.104  -1.919   5.262  0.00  0.00    +0.132 A 
ATOM     15  C   UNL     1      -2.265  -1.112   4.156  0.00  0.00    +0.084 A 
ATOM     16 CL   UNL     1      -3.583   0.015   4.072  0.00  0.00    -0.080 Cl
ENDBRANCH   9  10
BRANCH   6  17
ATOM     17  C   UNL     1      -1.548  -4.952  -1.977  0.00  0.00    -0.024 A 
ATOM     18  C   UNL     1      -1.198  -5.955  -2.889  0.00  0.00    +0.011 A 
ATOM     19  C   UNL     1      -1.304  -7.279  -2.526  0.00  0.00    +0.046 A 
ATOM     20  C   UNL     1      -1.757  -7.621  -1.258  0.00  0.00    +0.117 A 
ATOM     21  C   UNL     1      -2.106  -6.629  -0.348  0.00  0.00    +0.046 A 
ATOM     22  C   UNL     1      -1.998  -5.302  -0.698  0.00  0.00    +0.011 A 
BRANCH  20  23
ATOM     23  O   UNL     1      -1.860  -8.928  -0.905  0.00  0.00    -0.507 OA
ATOM     24  H   UNL     1      -1.060  -9.291  -0.502  0.00  0.00    +0.292 HD
ENDBRANCH  20  23
ENDBRANCH   6  17
TORSDOF 3
