REMARK  Name = ZINC12761435
REMARK  11 active torsions:
REMARK  status: ('A' for Active; 'I' for Inactive)
REMARK    1  A    between atoms: C_1  and  C_2
REMARK    2  A    between atoms: C_4  and  C_32
REMARK    3  A    between atoms: C_5  and  N_9
REMARK    4  A    between atoms: C_6  and  C_8
REMARK    5  A    between atoms: C_10  and  C_12
REMARK    6  A    between atoms: C_12  and  N_13
REMARK    7  A    between atoms: N_13  and  C_14
REMARK    8  A    between atoms: C_15  and  C_17
REMARK    9  A    between atoms: C_17  and  C_18
REMARK   10  A    between atoms: C_18  and  N_19
REMARK   11  A    between atoms: C_27  and  C_31
REMARK                            x       y       z     vdW  Elec       q    Type
REMARK                         _______ _______ _______ _____ _____    ______ ____
ROOT
ATOM      1  N   UNL     1       7.100  -0.196   0.480  0.00  0.00    -0.296 N 
ATOM      2  C   UNL     1       7.786  -0.003  -0.800  0.00  0.00    +0.132 C 
ATOM      3  C   UNL     1       7.548   0.431   1.586  0.00  0.00    +0.217 C 
ATOM      4  O   UNL     1       6.979   0.272   2.645  0.00  0.00    -0.276 OA
ENDROOT
BRANCH   1   5
ATOM      5  C   UNL     1       5.926  -1.069   0.558  0.00  0.00    +0.203 C 
BRANCH   5   7
ATOM      6  N   UNL     1       3.473  -0.861   0.320  0.00  0.00    -0.284 N 
ATOM      7  C   UNL     1       4.681  -0.262   0.299  0.00  0.00    +0.235 C 
ATOM      8  O   UNL     1       4.765   0.926   0.071  0.00  0.00    -0.274 OA
ATOM      9  H   UNL     1       3.410  -1.821   0.438  0.00  0.00    +0.155 HD
BRANCH   6  14
ATOM     10  C   UNL     1      -1.237   2.243  -0.281  0.00  0.00    +0.044 C 
ATOM     11  C   UNL     1       0.012   1.415  -0.124  0.00  0.00    -0.050 A 
ATOM     12  C   UNL     1       0.190   0.644   1.010  0.00  0.00    +0.008 A 
ATOM     13  C   UNL     1       1.337  -0.112   1.160  0.00  0.00    -0.029 A 
ATOM     14  C   UNL     1       2.311  -0.096   0.171  0.00  0.00    +0.039 A 
ATOM     15  C   UNL     1       2.129   0.679  -0.967  0.00  0.00    -0.029 A 
ATOM     16  C   UNL     1       0.980   1.432  -1.111  0.00  0.00    +0.008 A 
ATOM     17  C   UNL     1       3.183   0.699  -2.043  0.00  0.00    +0.045 C 
ATOM     18  C   UNL     1       1.530  -0.952   2.396  0.00  0.00    +0.045 C 
ENDBRANCH   6  14
ENDBRANCH   5   7
ENDBRANCH   1   5
BRANCH   3  19
ATOM     19  C   UNL     1       8.755   1.330   1.506  0.00  0.00    +0.115 C 
BRANCH  19  20
ATOM     20  C   UNL     1       9.050   1.913   2.889  0.00  0.00    +0.123 C 
BRANCH  20  21
ATOM     21  N   UNL     1      10.223   2.787   2.811  0.00  0.00    -0.265 N 
ATOM     22  C   UNL     1      11.509   2.271   3.023  0.00  0.00    +0.078 A 
ATOM     23  C   UNL     1      11.739   0.905   2.992  0.00  0.00    +0.027 A 
ATOM     24  C   UNL     1      13.015   0.418   3.204  0.00  0.00    +0.002 A 
ATOM     25  C   UNL     1      14.062   1.289   3.446  0.00  0.00    +0.004 A 
ATOM     26  C   UNL     1      13.841   2.651   3.467  0.00  0.00    +0.047 A 
ATOM     27  C   UNL     1      12.566   3.147   3.261  0.00  0.00    +0.143 A 
ATOM     28  O   UNL     1      12.329   4.486   3.293  0.00  0.00    -0.478 OA
ATOM     29  C   UNL     1      11.303   4.978   2.427  0.00  0.00    +0.256 C 
ATOM     30  C   UNL     1      10.081   4.102   2.541  0.00  0.00    +0.260 C 
ATOM     31  O   UNL     1       8.975   4.577   2.389  0.00  0.00    -0.271 OA
ATOM     32  C   UNL     1      11.806   4.966   0.983  0.00  0.00    +0.062 C 
ENDBRANCH  20  21
ENDBRANCH  19  20
ENDBRANCH   3  19
TORSDOF 6
