REMARK  Name = ZINC39674715
REMARK  10 active torsions:
REMARK  status: ('A' for Active; 'I' for Inactive)
REMARK    1  A    between atoms: C_1  and  C_2
REMARK    2  A    between atoms: C_4  and  C_14
REMARK    3  A    between atoms: C_7  and  C_12
REMARK    4  A    between atoms: C_14  and  C_15
REMARK    5  A    between atoms: C_15  and  N_16
REMARK    6  A    between atoms: C_17  and  C_19
REMARK    7  A    between atoms: C_30  and  C_32
REMARK    8  A    between atoms: C_32  and  C_34
REMARK    9  A    between atoms: C_32  and  O_35
REMARK   10  A    between atoms: O_35  and  C_36
REMARK                            x       y       z     vdW  Elec       q    Type
REMARK                         _______ _______ _______ _____ _____    ______ ____
ROOT
ATOM      1  C   UNL     1       1.344  -0.985  -7.396  0.00  0.00    +0.100 C 
ATOM      2  C   UNL     1       1.310   0.533  -7.686  0.00  0.00    +0.121 C 
ATOM      3  N   UNL     1       2.649   0.838  -8.242  0.00  0.00    -0.297 N 
ATOM      4  C   UNL     1       2.960  -0.322  -9.112  0.00  0.00    +0.115 C 
ATOM      5  C   UNL     1       2.426  -1.542  -8.336  0.00  0.00    -0.004 C 
ATOM      6  C   UNL     1       1.817  -2.555  -9.301  0.00  0.00    -0.010 C 
ATOM      7  C   UNL     1       2.922  -3.139 -10.186  0.00  0.00    -0.082 C 
ATOM      8  N   UNL     1       3.937  -3.783  -9.344  0.00  0.00    +0.379 N 
ATOM      9  C   UNL     1       4.583  -2.784  -8.485  0.00  0.00    -0.082 C 
ATOM     10  C   UNL     1       3.549  -2.185  -7.528  0.00  0.00    -0.010 C 
ATOM     11  C   UNL     1       3.412   1.925  -8.010  0.00  0.00    +0.256 C 
ATOM     12  O   UNL     1       3.059   2.750  -7.194  0.00  0.00    -0.272 OA
ATOM     13  H   UNL     1       3.498  -4.486  -8.769  0.00  0.00    -0.086 HD
ATOM     14  H   UNL     1       4.632  -4.220  -9.932  0.00  0.00    -0.086 HD
ENDROOT
BRANCH   1  16
ATOM     15  N   UNL     1       1.251  -2.327  -5.321  0.00  0.00    -0.315 N 
ATOM     16  C   UNL     1       1.719  -1.235  -5.958  0.00  0.00    +0.218 C 
ATOM     17  O   UNL     1       2.441  -0.455  -5.375  0.00  0.00    -0.275 OA
ATOM     18  H   UNL     1       0.674  -2.951  -5.787  0.00  0.00    +0.149 HD
BRANCH  15  19
ATOM     19  C   UNL     1       1.615  -2.571  -3.923  0.00  0.00    +0.108 C 
BRANCH  19  20
ATOM     20  C   UNL     1       0.957  -3.866  -3.443  0.00  0.00    +0.052 C 
BRANCH  20  23
ATOM     21  C   UNL     1      -0.623  -5.298  -1.002  0.00  0.00    +0.035 C 
ATOM     22  C   UNL     1       0.901  -5.282  -1.143  0.00  0.00    +0.103 C 
ATOM     23  C   UNL     1       1.332  -4.117  -2.005  0.00  0.00    -0.037 C 
ATOM     24  C   UNL     1       2.125  -3.342  -1.221  0.00  0.00    +0.000 A 
ATOM     25  C   UNL     1       2.814  -2.128  -1.477  0.00  0.00    +0.028 A 
ATOM     26  C   UNL     1       3.565  -1.539  -0.487  0.00  0.00    +0.052 A 
ATOM     27  C   UNL     1       3.673  -2.136   0.840  0.00  0.00    +0.021 A 
ATOM     28  C   UNL     1       3.039  -3.289   1.141  0.00  0.00    +0.027 A 
ATOM     29  C   UNL     1       2.226  -3.959   0.120  0.00  0.00    +0.043 A 
ATOM     30  N   UNL     1       1.527  -5.069   0.166  0.00  0.00    -0.378 N 
ATOM     31  H   UNL     1       1.438  -5.652   0.937  0.00  0.00    +0.160 HD
BRANCH  26  32
ATOM     32  C   UNL     1       4.254  -0.314  -0.763  0.00  0.00    +0.099 C 
ATOM     33  N   UNL     1       4.800   0.657  -0.982  0.00  0.00    -0.191 NA
ENDBRANCH  26  32
ENDBRANCH  20  23
ENDBRANCH  19  20
ENDBRANCH  15  19
ENDBRANCH   1  16
BRANCH  11  34
ATOM     34  C   UNL     1       4.703   2.114  -8.764  0.00  0.00    +0.256 C 
ATOM     35  C   UNL     1       4.396   2.397 -10.236  0.00  0.00    +0.062 C 
BRANCH  34  36
ATOM     36  O   UNL     1       5.422   3.216  -8.207  0.00  0.00    -0.480 OA
BRANCH  36  37
ATOM     37  C   UNL     1       6.770   3.223  -8.378  0.00  0.00    +0.122 A 
ATOM     38  C   UNL     1       7.545   4.194  -7.760  0.00  0.00    +0.045 A 
ATOM     39  C   UNL     1       8.915   4.198  -7.935  0.00  0.00    +0.004 A 
ATOM     40  C   UNL     1       9.515   3.235  -8.726  0.00  0.00    +0.000 A 
ATOM     41  C   UNL     1       8.745   2.266  -9.343  0.00  0.00    +0.004 A 
ATOM     42  C   UNL     1       7.375   2.255  -9.166  0.00  0.00    +0.045 A 
ENDBRANCH  36  37
ENDBRANCH  34  36
ENDBRANCH  11  34
TORSDOF 8
