REMARK  Name = ZINC57753821
REMARK  5 active torsions:
REMARK  status: ('A' for Active; 'I' for Inactive)
REMARK    1  A    between atoms: C_1  and  C_2
REMARK    2  A    between atoms: C_2  and  C_3
REMARK    3  A    between atoms: C_10  and  C_15
REMARK    4  A    between atoms: C_15  and  N_16
REMARK    5  A    between atoms: C_25  and  C_27
REMARK                            x       y       z     vdW  Elec       q    Type
REMARK                         _______ _______ _______ _____ _____    ______ ____
ROOT
ATOM      1  C   UNL     1       1.763  -1.607  -6.183  0.00  0.00    +0.121 C 
ENDROOT
BRANCH   1   9
ATOM      2  C   UNL     1       0.939  -0.198  -1.260  0.00  0.00    -0.026 A 
ATOM      3  C   UNL     1       2.293  -0.445  -1.349  0.00  0.00    +0.052 A 
ATOM      4  C   UNL     1       2.847  -0.848  -2.557  0.00  0.00    +0.140 A 
ATOM      5  C   UNL     1       2.017  -1.002  -3.681  0.00  0.00    +0.023 A 
ATOM      6  C   UNL     1       0.646  -0.748  -3.578  0.00  0.00    +0.032 A 
ATOM      7  C   UNL     1       0.117  -0.355  -2.368  0.00  0.00    +0.045 A 
ATOM      8 CL   UNL     1      -1.586  -0.046  -2.231  0.00  0.00    -0.083 Cl
ATOM      9  C   UNL     1       2.613  -1.428  -4.951  0.00  0.00    -0.016 A 
ATOM     10  C   UNL     1       3.950  -1.658  -4.987  0.00  0.00    +0.097 A 
ATOM     11  C   UNL     1       4.723  -1.484  -3.819  0.00  0.00    +0.338 A 
ATOM     12  O   UNL     1       5.922  -1.693  -3.865  0.00  0.00    -0.245 OA
ATOM     13  O   UNL     1       4.171  -1.093  -2.660  0.00  0.00    -0.422 OA
BRANCH   2  15
ATOM     14  C   UNL     1       0.135   1.755   0.039  0.00  0.00    +0.009 C 
ATOM     15  C   UNL     1       0.345   0.239   0.054  0.00  0.00    +0.033 C 
ENDBRANCH   2  15
ENDBRANCH   1   9
BRANCH   1  16
ATOM     16  N   UNL     1       1.172  -2.952  -6.180  0.00  0.00    -0.283 NA
ATOM     17  C   UNL     1       0.102  -3.053  -5.182  0.00  0.00    +0.121 C 
ATOM     18  C   UNL     1      -0.560  -4.403  -5.255  0.00  0.00    -0.030 A 
ATOM     19  C   UNL     1      -1.323  -4.824  -4.175  0.00  0.00    +0.005 A 
ATOM     20  C   UNL     1      -1.952  -6.052  -4.201  0.00  0.00    +0.000 A 
ATOM     21  C   UNL     1      -1.822  -6.869  -5.308  0.00  0.00    +0.000 A 
ATOM     22  C   UNL     1      -1.062  -6.453  -6.383  0.00  0.00    +0.004 A 
ATOM     23  C   UNL     1      -0.428  -5.220  -6.357  0.00  0.00    -0.041 A 
ATOM     24  C   UNL     1       0.401  -4.813  -7.549  0.00  0.00    +0.063 C 
ATOM     25  C   UNL     1       0.660  -3.306  -7.513  0.00  0.00    +0.148 C 
BRANCH  25  26
ATOM     26  C   UNL     1       1.682  -2.944  -8.560  0.00  0.00    +0.228 C 
ATOM     27  O   UNL     1       2.865  -3.044  -8.314  0.00  0.00    -0.274 OA
ATOM     28  N   UNL     1       1.280  -2.508  -9.771  0.00  0.00    -0.328 N 
ATOM     29  H   UNL     1       0.334  -2.428  -9.968  0.00  0.00    +0.145 HD
ATOM     30  H   UNL     1       1.937  -2.275 -10.445  0.00  0.00    +0.145 HD
ENDBRANCH  25  26
ENDBRANCH   1  16
TORSDOF 4
