REMARK  Name = ZINC33326917
REMARK  7 active torsions:
REMARK  status: ('A' for Active; 'I' for Inactive)
REMARK    1  A    between atoms: C_1  and  C_2
REMARK    2  A    between atoms: C_6  and  N_8
REMARK    3  A    between atoms: N_8  and  C_9
REMARK    4  A    between atoms: N_15  and  C_16
REMARK    5  A    between atoms: C_19  and  N_22
REMARK    6  A    between atoms: N_22  and  S_23
REMARK    7  A    between atoms: S_23  and  C_26
REMARK                            x       y       z     vdW  Elec       q    Type
REMARK                         _______ _______ _______ _____ _____    ______ ____
ROOT
ATOM      1  C   UNL     1      -2.466   9.312   2.730  0.00  0.00    +0.086 C 
ATOM      2  C   UNL     1      -2.154   7.918   2.251  0.00  0.00    +0.107 A 
ATOM      3  N   UNL     1      -3.044   6.964   2.434  0.00  0.00    -0.332 N 
ATOM      4  C   UNL     1      -2.803   5.718   2.030  0.00  0.00    +0.105 A 
ATOM      5  C   UNL     1      -1.596   5.435   1.398  0.00  0.00    +0.085 A 
ATOM      6  C   UNL     1      -0.686   6.472   1.219  0.00  0.00    +0.124 A 
ATOM      7  N   UNL     1      -1.000   7.690   1.657  0.00  0.00    -0.220 NA
ATOM      8  N   UNL     1      -3.743   4.719   2.232  0.00  0.00    -0.301 N 
ATOM      9  H   UNL     1      -4.633   4.918   2.847  0.00  0.00    +0.154 HD
ATOM     10  H   UNL     1      -4.001   7.192   2.926  0.00  0.00    +0.168 HD
ENDROOT
BRANCH   8  11
ATOM     11  C   UNL     1      -3.560   3.457   1.652  0.00  0.00    +0.032 A 
ATOM     12  C   UNL     1      -3.874   2.311   2.370  0.00  0.00    +0.025 A 
ATOM     13  C   UNL     1      -3.693   1.067   1.799  0.00  0.00    +0.026 A 
ATOM     14  C   UNL     1      -3.197   0.963   0.506  0.00  0.00    +0.048 A 
ATOM     15  C   UNL     1      -2.878   2.109  -0.210  0.00  0.00    +0.026 A 
ATOM     16  C   UNL     1      -3.064   3.353   0.359  0.00  0.00    +0.025 A 
BRANCH  14  17
ATOM     17  N   UNL     1      -3.013  -0.298  -0.073  0.00  0.00    -0.216 N 
ATOM     18  H   UNL     1      -1.998  -0.703  -0.199  0.00  0.00    +0.174 HD
BRANCH  17  19
ATOM     19  S   UNL     1      -4.324  -1.180  -0.570  0.00  0.00    +0.075 S 
ATOM     20  O   UNL     1      -5.209  -1.252   0.539  0.00  0.00    -0.150 OA
ATOM     21  O   UNL     1      -3.813  -2.340  -1.213  0.00  0.00    -0.150 OA
BRANCH  19  22
ATOM     22  C   UNL     1      -5.146  -0.238  -1.811  0.00  0.00    +0.143 A 
ATOM     23  C   UNL     1      -5.199  -0.703  -3.111  0.00  0.00    +0.032 A 
ATOM     24  C   UNL     1      -5.844   0.035  -4.085  0.00  0.00    +0.002 A 
ATOM     25  C   UNL     1      -6.439   1.241  -3.759  0.00  0.00    +0.003 A 
ATOM     26  C   UNL     1      -6.387   1.708  -2.460  0.00  0.00    +0.040 A 
ATOM     27  C   UNL     1      -5.741   0.969  -1.484  0.00  0.00    +0.150 A 
ATOM     28  F   UNL     1      -5.695   1.422  -0.212  0.00  0.00    -0.203 F 
ENDBRANCH  19  22
ENDBRANCH  17  19
ENDBRANCH  14  17
ENDBRANCH   8  11
BRANCH   6  29
ATOM     29  N   UNL     1       0.530   6.241   0.595  0.00  0.00    -0.326 N 
ATOM     30  H   UNL     1       1.273   7.049   0.522  0.00  0.00    +0.148 HD
BRANCH  29  31
ATOM     31  C   UNL     1       0.826   4.921   0.032  0.00  0.00    +0.072 C 
ATOM     32  C   UNL     1       1.405   4.019   1.124  0.00  0.00    +0.022 C 
ATOM     33  C   UNL     1       1.713   2.641   0.536  0.00  0.00    +0.002 C 
ATOM     34  C   UNL     1       2.730   2.786  -0.598  0.00  0.00    +0.000 C 
ATOM     35  C   UNL     1       2.151   3.688  -1.689  0.00  0.00    +0.002 C 
ATOM     36  C   UNL     1       1.843   5.066  -1.102  0.00  0.00    +0.022 C 
ENDBRANCH  29  31
ENDBRANCH   6  29
TORSDOF 6
