REMARK  Name = ZINC18326105
REMARK  9 active torsions:
REMARK  status: ('A' for Active; 'I' for Inactive)
REMARK    1  A    between atoms: C_1  and  C_2
REMARK    2  A    between atoms: C_2  and  O_3
REMARK    3  A    between atoms: O_3  and  C_4
REMARK    4  A    between atoms: C_4  and  C_6
REMARK    5  A    between atoms: C_7  and  C_13
REMARK    6  A    between atoms: C_13  and  O_14
REMARK    7  A    between atoms: O_14  and  C_15
REMARK    8  A    between atoms: C_15  and  C_17
REMARK    9  A    between atoms: C_23  and  C_25
REMARK                            x       y       z     vdW  Elec       q    Type
REMARK                         _______ _______ _______ _____ _____    ______ ____
ROOT
ATOM      1  C   UNL     1       1.152  -4.604   1.067  0.00  0.00    +0.328 C 
ATOM      2  O   UNL     1       2.058  -4.512   0.273  0.00  0.00    -0.249 OA
ENDROOT
BRANCH   1   3
ATOM      3  C   UNL     1       1.194  -5.664   2.138  0.00  0.00    +0.185 C 
ATOM      4  C   UNL     1      -0.000  -6.627   1.970  0.00  0.00    +0.035 C 
ATOM      5  C   UNL     1       0.621  -8.010   2.313  0.00  0.00    +0.021 C 
ATOM      6  C   UNL     1       2.052  -7.862   1.738  0.00  0.00    +0.109 C 
ATOM      7  N   UNL     1       2.423  -6.460   2.006  0.00  0.00    -0.288 N 
ATOM      8  C   UNL     1       3.680  -5.987   2.113  0.00  0.00    +0.222 C 
ATOM      9  O   UNL     1       3.869  -4.828   2.416  0.00  0.00    -0.275 OA
BRANCH   8  10
ATOM     10  C   UNL     1       4.853  -6.899   1.855  0.00  0.00    +0.048 C 
ATOM     11  C   UNL     1       4.958  -7.926   2.985  0.00  0.00    +0.019 C 
ATOM     12  C   UNL     1       6.148  -8.851   2.723  0.00  0.00    -0.009 C 
ATOM     13  C   UNL     1       7.434  -8.024   2.664  0.00  0.00    +0.007 C 
ATOM     14  C   UNL     1       7.328  -6.997   1.535  0.00  0.00    -0.009 C 
ATOM     15  C   UNL     1       6.138  -6.072   1.796  0.00  0.00    +0.019 C 
ATOM     16  C   UNL     1       7.127  -7.723   0.203  0.00  0.00    +0.007 C 
ATOM     17  C   UNL     1       5.841  -8.550   0.262  0.00  0.00    -0.009 C 
ATOM     18  C   UNL     1       5.947  -9.577   1.392  0.00  0.00    +0.007 C 
ATOM     19  C   UNL     1       4.651  -7.625   0.524  0.00  0.00    +0.019 C 
ENDBRANCH   8  10
ENDBRANCH   1   3
BRANCH   1  20
ATOM     20  O   UNL     1       0.109  -3.763   0.997  0.00  0.00    -0.457 OA
BRANCH  20  21
ATOM     21  C   UNL     1       0.136  -2.767  -0.060  0.00  0.00    +0.283 C 
BRANCH  21  23
ATOM     22  C   UNL     1      -1.338  -0.990  -0.935  0.00  0.00    +0.074 C 
ATOM     23  C   UNL     1      -1.108  -1.919   0.017  0.00  0.00    +0.061 C 
ATOM     24  N   UNL     1      -1.981  -2.099   1.052  0.00  0.00    -0.269 N 
ATOM     25  C   UNL     1      -3.112  -1.398   1.200  0.00  0.00    +0.304 C 
ATOM     26  O   UNL     1      -3.829  -1.633   2.153  0.00  0.00    -0.253 OA
ATOM     27  N   UNL     1      -3.481  -0.440   0.327  0.00  0.00    -0.295 N 
ATOM     28  C   UNL     1      -2.604  -0.164  -0.823  0.00  0.00    +0.150 C 
ATOM     29  H   UNL     1      -1.772  -2.776   1.715  0.00  0.00    +0.156 HD
ATOM     30  H   UNL     1      -4.305   0.057   0.454  0.00  0.00    +0.151 HD
BRANCH  22  31
ATOM     31  C   UNL     1      -0.432  -0.799  -2.005  0.00  0.00    +0.338 C 
ATOM     32  O   UNL     1       0.622  -1.405  -2.024  0.00  0.00    -0.245 OA
BRANCH  31  33
ATOM     33  O   UNL     1      -0.738   0.056  -3.003  0.00  0.00    -0.462 OA
BRANCH  33  35
ATOM     34  C   UNL     1      -0.295   1.203  -5.084  0.00  0.00    +0.048 C 
ATOM     35  C   UNL     1       0.223   0.201  -4.051  0.00  0.00    +0.229 C 
ENDBRANCH  33  35
ENDBRANCH  31  33
ENDBRANCH  22  31
ENDBRANCH  21  23
ENDBRANCH  20  21
ENDBRANCH   1  20
TORSDOF 8
