REMARK  Name = ZINC20995359
REMARK  7 active torsions:
REMARK  status: ('A' for Active; 'I' for Inactive)
REMARK    1  A    between atoms: C_1  and  C_2
REMARK    2  A    between atoms: C_3  and  S_14
REMARK    3  A    between atoms: C_4  and  C_7
REMARK    4  A    between atoms: C_8  and  C_9
REMARK    5  A    between atoms: S_14  and  N_17
REMARK    6  A    between atoms: C_21  and  C_24
REMARK    7  A    between atoms: N_26  and  C_27
REMARK                            x       y       z     vdW  Elec       q    Type
REMARK                         _______ _______ _______ _____ _____    ______ ____
ROOT
ATOM      1  S   UNL     1      -2.550   4.687   0.052  0.00  0.00    +0.066 S 
ATOM      2  O   UNL     1      -2.486   5.363   1.300  0.00  0.00    -0.153 OA
ATOM      3  O   UNL     1      -2.510   5.376  -1.190  0.00  0.00    -0.153 OA
ENDROOT
BRANCH   1   6
ATOM      4  C   UNL     1      -4.420   3.488   2.625  0.00  0.00    +0.071 C 
ATOM      5  C   UNL     1      -4.770   3.285   1.173  0.00  0.00    +0.107 A 
ATOM      6  C   UNL     1      -4.044   3.752   0.062  0.00  0.00    +0.174 A 
ATOM      7  C   UNL     1      -4.783   3.308  -1.023  0.00  0.00    +0.187 A 
ATOM      8  O   UNL     1      -5.831   2.639  -0.504  0.00  0.00    -0.353 OA
ATOM      9  N   UNL     1      -5.803   2.644   0.704  0.00  0.00    -0.081 NA
BRANCH   7  10
ATOM     10  C   UNL     1      -4.485   3.520  -2.440  0.00  0.00    +0.052 C 
ATOM     11  C   UNL     1      -5.311   3.019  -3.386  0.00  0.00    +0.019 C 
BRANCH  11  12
ATOM     12  C   UNL     1      -5.013   3.231  -4.803  0.00  0.00    +0.012 A 
ATOM     13  C   UNL     1      -5.720   2.808  -5.918  0.00  0.00    +0.015 A 
ATOM     14  C   UNL     1      -5.235   3.134  -7.161  0.00  0.00    +0.008 A 
ATOM     15  C   UNL     1      -4.086   3.856  -7.259  0.00  0.00    +0.046 A 
ATOM     16  S   UNL     1      -3.648   4.109  -5.547  0.00  0.00    -0.097 S 
ENDBRANCH  11  12
ENDBRANCH   7  10
ENDBRANCH   1   6
BRANCH   1  17
ATOM     17  N   UNL     1      -1.296   3.606   0.034  0.00  0.00    -0.176 NA
ATOM     18  C   UNL     1      -0.717   3.111   1.290  0.00  0.00    +0.109 C 
ATOM     19  C   UNL     1      -0.729   1.579   1.268  0.00  0.00    +0.018 C 
ATOM     20  C   UNL     1      -0.013   1.086   0.008  0.00  0.00    +0.015 C 
ATOM     21  C   UNL     1      -0.752   1.593  -1.232  0.00  0.00    +0.091 C 
ATOM     22  C   UNL     1      -0.741   3.124  -1.238  0.00  0.00    +0.122 C 
BRANCH  21  23
ATOM     23  C   UNL     1      -0.066   1.079  -2.472  0.00  0.00    +0.218 C 
ATOM     24  O   UNL     1       0.385   1.860  -3.283  0.00  0.00    -0.275 OA
ATOM     25  N   UNL     1       0.045  -0.248  -2.679  0.00  0.00    -0.312 N 
ATOM     26  H   UNL     1      -0.364  -0.956  -1.944  0.00  0.00    +0.149 HD
BRANCH  25  27
ATOM     27  C   UNL     1       0.713  -0.747  -3.884  0.00  0.00    +0.073 C 
ATOM     28  C   UNL     1       0.051  -1.910  -4.628  0.00  0.00    +0.024 C 
ATOM     29  C   UNL     1       1.330  -2.146  -3.822  0.00  0.00    +0.024 C 
ENDBRANCH  25  27
ENDBRANCH  21  23
ENDBRANCH   1  17
TORSDOF 6
