REMARK  Name = ZINC04736582
REMARK  6 active torsions:
REMARK  status: ('A' for Active; 'I' for Inactive)
REMARK    1  A    between atoms: C_4  and  N_17
REMARK    2  A    between atoms: C_5  and  C_7
REMARK    3  A    between atoms: N_9  and  C_10
REMARK    4  A    between atoms: C_10  and  C_11
REMARK    5  A    between atoms: N_17  and  S_18
REMARK    6  A    between atoms: S_18  and  C_21
REMARK                            x       y       z     vdW  Elec       q    Type
REMARK                         _______ _______ _______ _____ _____    ______ ____
ROOT
ATOM      1  C   UNL     1      -0.017   1.373   0.010  0.00  0.00    +0.001 A 
ATOM      2  C   UNL     1       1.170   2.090   0.002  0.00  0.00    +0.002 A 
ATOM      3  C   UNL     1       2.383   1.433  -0.013  0.00  0.00    +0.027 A 
ATOM      4  C   UNL     1       2.422   0.044  -0.022  0.00  0.00    +0.086 A 
ATOM      5  C   UNL     1       1.222  -0.685  -0.014  0.00  0.00    +0.061 A 
ATOM      6  C   UNL     1       0.002  -0.004   0.002  0.00  0.00    +0.015 A 
ENDROOT
BRANCH   5   7
ATOM      7  C   UNL     1       1.250  -2.159  -0.023  0.00  0.00    +0.246 C 
ATOM      8  O   UNL     1       2.314  -2.747  -0.037  0.00  0.00    -0.270 OA
ATOM      9  N   UNL     1       0.095  -2.854  -0.015  0.00  0.00    -0.309 N 
ATOM     10  H   UNL     1      -0.754  -2.385  -0.003  0.00  0.00    +0.149 HD
BRANCH   9  11
ATOM     11  C   UNL     1       0.122  -4.319  -0.024  0.00  0.00    +0.136 C 
BRANCH  11  12
ATOM     12  C   UNL     1      -1.311  -4.855  -0.013  0.00  0.00    +0.135 C 
ATOM     13  C   UNL     1      -1.292  -6.395   0.100  0.00  0.00    +0.035 C 
ATOM     14  C   UNL     1      -2.447  -6.809  -0.853  0.00  0.00    +0.031 C 
ATOM     15  C   UNL     1      -2.333  -5.716  -1.945  0.00  0.00    +0.160 C 
ATOM     16  O   UNL     1      -1.966  -4.517  -1.240  0.00  0.00    -0.375 OA
ENDBRANCH  11  12
ENDBRANCH   9  11
ENDBRANCH   5   7
BRANCH   4  17
ATOM     17  N   UNL     1       3.642  -0.620  -0.038  0.00  0.00    -0.097 NA
BRANCH  17  18
ATOM     18  S   UNL     1       5.054   0.244  -0.048  0.00  0.00    +0.098 S 
ATOM     19  O   UNL     1       5.101   0.933  -1.290  0.00  0.00    -0.148 OA
ATOM     20  O   UNL     1       5.127   0.919   1.200  0.00  0.00    -0.148 OA
BRANCH  18  21
ATOM     21  C   UNL     1       6.377  -0.920  -0.069  0.00  0.00    +0.148 A 
ATOM     22  C   UNL     1       7.010  -1.474  -1.131  0.00  0.00    +0.037 A 
ATOM     23  C   UNL     1       8.034  -2.375  -0.907  0.00  0.00    +0.010 A 
ATOM     24  C   UNL     1       8.374  -2.679   0.370  0.00  0.00    +0.047 A 
ATOM     25  S   UNL     1       7.236  -1.671   1.305  0.00  0.00    -0.077 S 
ENDBRANCH  18  21
ENDBRANCH  17  18
ENDBRANCH   4  17
TORSDOF 6
