REMARK  Name = ZINC02482141
REMARK  3 active torsions:
REMARK  status: ('A' for Active; 'I' for Inactive)
REMARK    1  A    between atoms: C_1  and  O_2
REMARK    2  A    between atoms: O_2  and  C_3
REMARK    3  A    between atoms: C_8  and  C_9
REMARK                            x       y       z     vdW  Elec       q    Type
REMARK                         _______ _______ _______ _____ _____    ______ ____
ROOT
ATOM      1  C   UNL     1       0.052  -2.828   0.005  0.00  0.00    +0.134 C 
ATOM      2  C   UNL     1       1.021  -2.943  -1.140  0.00  0.00    -0.023 C 
ATOM      3  C   UNL     1       1.472  -4.126  -1.548  0.00  0.00    +0.041 C 
ATOM      4  C   UNL     1       2.453  -4.199  -2.657  0.00  0.00    -0.001 A 
ATOM      5  C   UNL     1       2.682  -5.400  -3.325  0.00  0.00    +0.010 A 
ATOM      6  C   UNL     1       3.592  -5.441  -4.362  0.00  0.00    +0.001 A 
ATOM      7  C   UNL     1       4.272  -4.296  -4.737  0.00  0.00    +0.000 A 
ATOM      8  C   UNL     1       4.051  -3.102  -4.072  0.00  0.00    +0.004 A 
ATOM      9  C   UNL     1       3.149  -3.052  -3.031  0.00  0.00    -0.038 A 
ATOM     10  C   UNL     1       2.917  -1.771  -2.273  0.00  0.00    +0.040 C 
ATOM     11  C   UNL     1       1.454  -1.681  -1.848  0.00  0.00    +0.039 C 
ATOM     12  N   UNL     1       1.036  -5.309  -0.947  0.00  0.00    -0.296 N 
ATOM     13  C   UNL     1       0.163  -5.281   0.072  0.00  0.00    +0.135 C 
ATOM     14  S   UNL     1      -0.347  -6.754   0.778  0.00  0.00    -0.019 S 
ATOM     15  N   UNL     1      -0.315  -4.126   0.547  0.00  0.00    -0.316 N 
ATOM     16  H   UNL     1       1.369  -6.161  -1.270  0.00  0.00    +0.154 HD
ATOM     17  H   UNL     1      -0.938  -4.157   1.290  0.00  0.00    +0.149 HD
ENDROOT
BRANCH   1  23
ATOM     18  C   UNL     1       0.626  -0.618   1.042  0.00  0.00    +0.125 A 
ATOM     19  C   UNL     1       1.202   0.139   2.051  0.00  0.00    +0.046 A 
ATOM     20  C   UNL     1       1.835  -0.488   3.107  0.00  0.00    +0.004 A 
ATOM     21  C   UNL     1       1.895  -1.869   3.158  0.00  0.00    +0.001 A 
ATOM     22  C   UNL     1       1.321  -2.625   2.153  0.00  0.00    +0.009 A 
ATOM     23  C   UNL     1       0.682  -2.003   1.097  0.00  0.00    +0.019 A 
BRANCH  18  25
ATOM     24  C   UNL     1      -0.017   1.425   0.010  0.00  0.00    +0.277 C 
ATOM     25  O   UNL     1       0.002  -0.004   0.002  0.00  0.00    -0.495 OA
ENDBRANCH  18  25
ENDBRANCH   1  23
TORSDOF 2
