REMARK  Name = ZINC63761181
REMARK  9 active torsions:
REMARK  status: ('A' for Active; 'I' for Inactive)
REMARK    1  A    between atoms: C_1  and  C_2
REMARK    2  A    between atoms: C_2  and  N_3
REMARK    3  A    between atoms: C_5  and  C_9
REMARK    4  A    between atoms: C_14  and  N_17
REMARK    5  A    between atoms: C_18  and  O_20
REMARK    6  A    between atoms: O_20  and  C_21
REMARK    7  A    between atoms: C_21  and  C_22
REMARK    8  A    between atoms: C_21  and  C_23
REMARK    9  A    between atoms: C_21  and  C_24
REMARK                            x       y       z     vdW  Elec       q    Type
REMARK                         _______ _______ _______ _____ _____    ______ ____
ROOT
ATOM      1  C   UNL     1       3.567  -1.839   3.013  0.00  0.00    +0.221 C 
ATOM      2  O   UNL     1       4.026  -2.485   2.094  0.00  0.00    -0.275 OA
ATOM      3  N   UNL     1       4.009  -2.047   4.269  0.00  0.00    -0.301 N 
ATOM      4  C   UNL     1       3.459  -1.277   5.393  0.00  0.00    +0.109 C 
ATOM      5  C   UNL     1       4.616  -0.626   6.158  0.00  0.00    +0.041 C 
ATOM      6  C   UNL     1       5.622  -1.704   6.567  0.00  0.00    +0.079 C 
ATOM      7  C   UNL     1       6.189  -2.377   5.316  0.00  0.00    +0.041 C 
ATOM      8  C   UNL     1       5.046  -3.052   4.542  0.00  0.00    +0.109 C 
ENDROOT
BRANCH   1  11
ATOM      9  N   UNL     1       0.711  -0.489   1.189  0.00  0.00    -0.301 N 
ATOM     10  C   UNL     1       2.155  -0.741   1.246  0.00  0.00    +0.121 C 
ATOM     11  C   UNL     1       2.504  -0.805   2.749  0.00  0.00    +0.101 C 
ATOM     12  C   UNL     1       1.152  -1.231   3.368  0.00  0.00    +0.110 C 
ATOM     13  C   UNL     1       0.122  -0.756   2.367  0.00  0.00    +0.216 C 
ATOM     14  O   UNL     1      -1.063  -0.636   2.595  0.00  0.00    -0.276 OA
BRANCH   9  16
ATOM     15  C   UNL     1      -0.019   1.526   0.010  0.00  0.00    +0.024 C 
ATOM     16  C   UNL     1       0.002  -0.004   0.002  0.00  0.00    +0.104 C 
ENDBRANCH   9  16
ENDBRANCH   1  11
BRANCH   6  17
ATOM     17  N   UNL     1       6.713  -1.090   7.328  0.00  0.00    -0.278 N 
ATOM     18  C   UNL     1       7.424  -1.829   8.203  0.00  0.00    +0.401 C 
ATOM     19  O   UNL     1       7.160  -3.004   8.361  0.00  0.00    -0.226 OA
ATOM     20  H   UNL     1       6.924  -0.151   7.202  0.00  0.00    +0.152 HD
BRANCH  18  21
ATOM     21  O   UNL     1       8.427  -1.264   8.902  0.00  0.00    -0.445 OA
BRANCH  21  22
ATOM     22  C   UNL     1       9.138  -2.106   9.811  0.00  0.00    +0.107 C 
ATOM     23  C   UNL     1       9.775  -3.265   9.042  0.00  0.00    +0.055 C 
ATOM     24  C   UNL     1      10.232  -1.295  10.508  0.00  0.00    +0.055 C 
ATOM     25  C   UNL     1       8.169  -2.660  10.857  0.00  0.00    +0.055 C 
ENDBRANCH  21  22
ENDBRANCH  18  21
ENDBRANCH   6  17
TORSDOF 5
