REMARK  Name = ZINC08664720
REMARK  8 active torsions:
REMARK  status: ('A' for Active; 'I' for Inactive)
REMARK    1  A    between atoms: C_1  and  C_2
REMARK    2  A    between atoms: C_5  and  C_9
REMARK    3  A    between atoms: C_9  and  C_12
REMARK    4  A    between atoms: N_10  and  O_11
REMARK    5  A    between atoms: C_12  and  C_13
REMARK    6  A    between atoms: C_20  and  O_21
REMARK    7  A    between atoms: O_21  and  C_22
REMARK    8  A    between atoms: C_28  and  N_55
REMARK                            x       y       z     vdW  Elec       q    Type
REMARK                         _______ _______ _______ _____ _____    ______ ____
ROOT
ATOM      1  C   UNL     1       1.407   3.311  -0.670  0.00  0.00    -0.028 C 
ATOM      2  C   UNL     1       0.893   1.907  -0.856  0.00  0.00    -0.012 A 
ATOM      3  C   UNL     1      -0.444   1.598  -0.716  0.00  0.00    -0.040 A 
ATOM      4  C   UNL     1      -0.873   0.290  -0.883  0.00  0.00    +0.053 A 
ATOM      5  C   UNL     1       0.030  -0.713  -1.193  0.00  0.00    +0.170 A 
ATOM      6  C   UNL     1       1.378  -0.404  -1.339  0.00  0.00    +0.208 A 
ATOM      7  C   UNL     1       1.805   0.905  -1.171  0.00  0.00    +0.167 A 
ATOM      8  O   UNL     1       2.058  -1.550  -1.643  0.00  0.00    -0.449 OA
ATOM      9  C   UNL     1       1.176  -2.628  -1.277  0.00  0.00    +0.467 C 
ATOM     10  O   UNL     1      -0.137  -2.051  -1.403  0.00  0.00    -0.452 OA
ATOM     11  C   UNL     1      -1.469   2.653  -0.389  0.00  0.00    +0.017 C 
ATOM     12  C   UNL     1      -0.776   3.900   0.164  0.00  0.00    -0.074 C 
ATOM     13  C   UNL     1       0.781   5.640  -0.482  0.00  0.00    -0.095 C 
ATOM     14  N   UNL     1       0.298   4.273  -0.779  0.00  0.00    +0.383 N 
ATOM     15  H   UNL     1      -0.073   4.250  -1.736  0.00  0.00    -0.081 HD
ENDROOT
BRANCH   7  16
ATOM     16  O   UNL     1       3.123   1.211  -1.314  0.00  0.00    -0.491 OA
ATOM     17  C   UNL     1       3.961   1.018  -0.172  0.00  0.00    +0.277 C 
ENDBRANCH   7  16
BRANCH   1  18
ATOM     18  C   UNL     1       2.437   3.619  -1.759  0.00  0.00    +0.044 C 
BRANCH  18  19
ATOM     19  C   UNL     1       1.842   3.325  -3.112  0.00  0.00    +0.060 C 
ATOM     20  N   UNL     1       2.350   2.413  -3.850  0.00  0.00    -0.096 NA
BRANCH  19  25
ATOM     21  C   UNL     1      -2.012   6.610  -5.861  0.00  0.00    +0.039 C 
ATOM     22  C   UNL     1      -0.993   5.735  -5.178  0.00  0.00    -0.076 C 
ATOM     23  C   UNL     1      -0.059   6.313  -4.493  0.00  0.00    -0.027 C 
ATOM     24  C   UNL     1       1.028   5.579  -3.762  0.00  0.00    +0.036 C 
ATOM     25  C   UNL     1       0.647   4.106  -3.595  0.00  0.00    +0.041 C 
ATOM     26  C   UNL     1       0.189   3.561  -4.954  0.00  0.00    +0.014 C 
ATOM     27  C   UNL     1      -1.124   4.248  -5.334  0.00  0.00    +0.031 C 
ENDBRANCH  19  25
BRANCH  20  28
ATOM     28  O   UNL     1       3.548   1.768  -3.455  0.00  0.00    -0.409 OA
ATOM     29  H   UNL     1       3.896   1.149  -4.112  0.00  0.00    +0.328 HD
ENDBRANCH  20  28
ENDBRANCH  18  19
ENDBRANCH   1  18
TORSDOF 5
