REMARK  Name = ZINC39457840
REMARK  7 active torsions:
REMARK  status: ('A' for Active; 'I' for Inactive)
REMARK    1  A    between atoms: C_1  and  C_2
REMARK    2  A    between atoms: N_6  and  S_7
REMARK    3  A    between atoms: S_7  and  C_10
REMARK    4  A    between atoms: C_10  and  C_11
REMARK    5  A    between atoms: C_10  and  C_12
REMARK    6  A    between atoms: C_15  and  C_19
REMARK    7  A    between atoms: C_19  and  C_20
REMARK                            x       y       z     vdW  Elec       q    Type
REMARK                         _______ _______ _______ _____ _____    ______ ____
ROOT
ATOM      1  C   UNL     1      -0.006   1.511   0.040  0.00  0.00    +0.066 C 
ATOM      2  C   UNL     1       0.015   0.004   0.022  0.00  0.00    +0.054 A 
ATOM      3  C   UNL     1       0.034  -0.774  -1.089  0.00  0.00    +0.044 A 
ATOM      4  C   UNL     1       0.053  -2.106  -0.673  0.00  0.00    -0.004 A 
ATOM      5  C   UNL     1       0.054  -2.101   0.699  0.00  0.00    +0.095 A 
ATOM      6  N   UNL     1       0.024  -0.804   1.120  0.00  0.00    -0.217 N 
ATOM      7  C   UNL     1       0.111  -3.340   1.495  0.00  0.00    +0.100 A 
ATOM      8  C   UNL     1       1.049  -4.320   1.084  0.00  0.00    +0.048 A 
ATOM      9  C   UNL     1       1.110  -5.530   1.777  0.00  0.00    -0.029 A 
ATOM     10  C   UNL     1       0.259  -5.701   2.857  0.00  0.00    +0.024 A 
ATOM     11  C   UNL     1      -0.614  -4.686   3.215  0.00  0.00    +0.112 A 
ATOM     12  N   UNL     1      -0.668  -3.553   2.541  0.00  0.00    -0.253 NA
ATOM     13  C   UNL     1       1.935  -4.015  -0.037  0.00  0.00    +0.166 C 
ATOM     14  O   UNL     1       3.098  -3.744   0.181  0.00  0.00    -0.292 OA
ATOM     15  C   UNL     1       1.434  -4.031  -1.463  0.00  0.00    +0.084 C 
ATOM     16  C   UNL     1       0.060  -3.348  -1.520  0.00  0.00    +0.046 C 
ATOM     17 BR   UNL     1       0.034  -0.163  -2.878  0.00  0.00    -0.048 Br
ENDROOT
BRANCH   6  18
ATOM     18  S   UNL     1      -0.002  -0.298   2.696  0.00  0.00    +0.058 S 
ATOM     19  O   UNL     1       0.620  -1.348   3.425  0.00  0.00    -0.153 OA
ATOM     20  O   UNL     1       0.571   1.002   2.669  0.00  0.00    -0.153 OA
BRANCH  18  21
ATOM     21  C   UNL     1      -1.762  -0.197   3.125  0.00  0.00    +0.148 C 
ATOM     22  C   UNL     1      -1.911   0.384   4.532  0.00  0.00    +0.033 C 
ATOM     23  C   UNL     1      -2.480   0.707   2.121  0.00  0.00    +0.033 C 
ENDBRANCH  18  21
ENDBRANCH   6  18
BRANCH   9  24
ATOM     24  C   UNL     1       2.070  -6.615   1.364  0.00  0.00    +0.071 C 
BRANCH  24  25
ATOM     25  C   UNL     1       2.016  -7.741   2.364  0.00  0.00    -0.043 A 
ATOM     26  C   UNL     1       2.783  -7.683   3.513  0.00  0.00    +0.004 A 
ATOM     27  C   UNL     1       2.734  -8.716   4.430  0.00  0.00    +0.000 A 
ATOM     28  C   UNL     1       1.916  -9.807   4.199  0.00  0.00    +0.000 A 
ATOM     29  C   UNL     1       1.148  -9.864   3.051  0.00  0.00    +0.000 A 
ATOM     30  C   UNL     1       1.195  -8.829   2.136  0.00  0.00    +0.004 A 
ENDBRANCH  24  25
ENDBRANCH   9  24
TORSDOF 4
