REMARK  Name = ZINC49750239
REMARK  5 active torsions:
REMARK  status: ('A' for Active; 'I' for Inactive)
REMARK    1  A    between atoms: C_1  and  C_2
REMARK    2  A    between atoms: C_2  and  S_3
REMARK    3  A    between atoms: S_3  and  C_6
REMARK    4  A    between atoms: C_9  and  O_25
REMARK    5  A    between atoms: C_10  and  N_12
REMARK                            x       y       z     vdW  Elec       q    Type
REMARK                         _______ _______ _______ _____ _____    ______ ____
ROOT
ATOM      1  N   UNL     1      -1.265  -5.166   2.398  0.00  0.00    -0.296 N 
ATOM      2  C   UNL     1      -1.219  -4.479   3.598  0.00  0.00    +0.135 A 
ATOM      3  C   UNL     1      -1.035  -5.177   4.823  0.00  0.00    +0.051 A 
ATOM      4  C   UNL     1      -0.872  -6.624   5.036  0.00  0.00    -0.025 A 
ATOM      5  C   UNL     1      -0.713  -7.037   6.304  0.00  0.00    -0.004 A 
ATOM      6  S   UNL     1      -0.764  -5.554   7.284  0.00  0.00    -0.073 S 
ATOM      7  C   UNL     1      -1.003  -4.378   5.980  0.00  0.00    +0.114 A 
ATOM      8  N   UNL     1      -1.138  -3.066   5.917  0.00  0.00    -0.228 NA
ATOM      9  C   UNL     1      -1.306  -2.472   4.751  0.00  0.00    +0.224 A 
ATOM     10  N   UNL     1      -1.340  -3.160   3.623  0.00  0.00    -0.220 NA
ATOM     11  C   UNL     1      -0.562  -8.532   6.401  0.00  0.00    +0.043 C 
ATOM     12  C   UNL     1      -1.080  -9.062   5.045  0.00  0.00    +0.010 C 
ATOM     13  C   UNL     1      -0.834  -7.852   4.122  0.00  0.00    +0.037 C 
ATOM     14  H   UNL     1      -1.077  -6.117   2.376  0.00  0.00    +0.154 HD
ENDROOT
BRANCH   1  19
ATOM     15  C   UNL     1      -2.678  -2.676   0.088  0.00  0.00    +0.090 A 
ATOM     16  C   UNL     1      -2.211  -3.146  -1.125  0.00  0.00    +0.030 A 
ATOM     17  C   UNL     1      -1.430  -4.286  -1.176  0.00  0.00    +0.049 A 
ATOM     18  C   UNL     1      -1.113  -4.960  -0.009  0.00  0.00    +0.138 A 
ATOM     19  C   UNL     1      -1.582  -4.487   1.215  0.00  0.00    +0.076 A 
ATOM     20  C   UNL     1      -2.361  -3.340   1.258  0.00  0.00    +0.054 A 
BRANCH  15  21
ATOM     21  S   UNL     1      -3.672  -1.223   0.145  0.00  0.00    -0.003 S 
ATOM     22  O   UNL     1      -4.448  -1.360   1.327  0.00  0.00    -0.169 OA
ATOM     23  O   UNL     1      -4.299  -1.163  -1.129  0.00  0.00    -0.169 OA
BRANCH  21  25
ATOM     24  C   UNL     1      -3.253   1.470   0.386  0.00  0.00    +0.028 C 
ATOM     25  C   UNL     1      -2.493   0.143   0.326  0.00  0.00    +0.168 C 
ENDBRANCH  21  25
ENDBRANCH  15  21
BRANCH  18  26
ATOM     26  O   UNL     1      -0.345  -6.082  -0.057  0.00  0.00    -0.505 OA
ATOM     27  H   UNL     1       0.604  -5.913   0.017  0.00  0.00    +0.292 HD
ENDBRANCH  18  26
ENDBRANCH   1  19
TORSDOF 4
