REMARK  Name = ZINC40701380
REMARK  5 active torsions:
REMARK  status: ('A' for Active; 'I' for Inactive)
REMARK    1  A    between atoms: C_1  and  C_2
REMARK    2  A    between atoms: C_10  and  N_27
REMARK    3  A    between atoms: C_11  and  N_15
REMARK    4  A    between atoms: C_21  and  O_25
REMARK    5  A    between atoms: O_25  and  C_26
REMARK                            x       y       z     vdW  Elec       q    Type
REMARK                         _______ _______ _______ _____ _____    ______ ____
ROOT
ATOM      1  C   UNL     1       0.042  -2.718  -2.595  0.00  0.00    +0.044 C 
ATOM      2  C   UNL     1       0.029  -2.035  -1.251  0.00  0.00    -0.046 A 
ATOM      3  C   UNL     1      -0.001  -0.650  -1.160  0.00  0.00    +0.023 A 
ATOM      4  C   UNL     1      -0.013  -0.055   0.086  0.00  0.00    +0.113 A 
ATOM      5  N   UNL     1       0.004  -0.785   1.185  0.00  0.00    -0.240 NA
ATOM      6  C   UNL     1       0.033  -2.108   1.139  0.00  0.00    +0.124 A 
ATOM      7  C   UNL     1       0.041  -2.774  -0.082  0.00  0.00    +0.047 A 
ATOM      8  N   UNL     1       0.051  -2.838   2.323  0.00  0.00    -0.283 N 
ATOM      9  C   UNL     1       0.153  -2.181   3.545  0.00  0.00    +0.150 A 
ATOM     10  C   UNL     1       0.279  -2.905   4.732  0.00  0.00    +0.106 A 
ATOM     11  C   UNL     1       0.378  -2.196   5.930  0.00  0.00    +0.150 A 
ATOM     12  N   UNL     1       0.347  -0.866   5.895  0.00  0.00    -0.219 NA
ATOM     13  C   UNL     1       0.227  -0.220   4.753  0.00  0.00    +0.225 A 
ATOM     14  N   UNL     1       0.137  -0.851   3.600  0.00  0.00    -0.219 NA
ATOM     15  H   UNL     1      -0.007  -3.806   2.297  0.00  0.00    +0.155 HD
ENDROOT
BRANCH  11  16
ATOM     16  N   UNL     1       0.505  -2.868   7.141  0.00  0.00    -0.277 N 
ATOM     17  C   UNL     1       0.601  -2.155   8.321  0.00  0.00    +0.165 A 
ATOM     18  N   UNL     1       0.586  -0.854   8.501  0.00  0.00    -0.225 NA
ATOM     19  C   UNL     1       0.691  -0.289   9.725  0.00  0.00    +0.081 A 
ATOM     20  C   UNL     1       0.689   1.087  10.053  0.00  0.00    +0.032 A 
ATOM     21  C   UNL     1       0.805   1.498  11.354  0.00  0.00    +0.048 A 
ATOM     22  C   UNL     1       0.928   0.584  12.396  0.00  0.00    +0.121 A 
ATOM     23  C   UNL     1       0.933  -0.773  12.109  0.00  0.00    +0.063 A 
ATOM     24  C   UNL     1       0.817  -1.190  10.806  0.00  0.00    +0.044 A 
ATOM     25  S   UNL     1       0.770  -2.768   9.992  0.00  0.00    -0.052 S 
ATOM     26  H   UNL     1       0.526  -3.838   7.158  0.00  0.00    +0.156 HD
BRANCH  22  27
ATOM     27  O   UNL     1       1.043   1.015  13.681  0.00  0.00    -0.495 OA
ATOM     28  C   UNL     1       1.030   2.428  13.894  0.00  0.00    +0.277 C 
ENDBRANCH  22  27
ENDBRANCH  11  16
BRANCH  10  29
ATOM     29  N   UNL     1       0.306  -4.308   4.721  0.00  0.00    -0.353 N 
ATOM     30  H   UNL     1       0.237  -4.788   3.881  0.00  0.00    +0.143 HD
ATOM     31  H   UNL     1       0.395  -4.798   5.553  0.00  0.00    +0.143 HD
ENDBRANCH  10  29
TORSDOF 3
