REMARK  Name = ZINC13779282
REMARK  7 active torsions:
REMARK  status: ('A' for Active; 'I' for Inactive)
REMARK    1  A    between atoms: C_1  and  O_2
REMARK    2  A    between atoms: O_2  and  C_3
REMARK    3  A    between atoms: C_6  and  C_9
REMARK    4  A    between atoms: N_26  and  C_29
REMARK    5  A    between atoms: C_29  and  C_30
REMARK    6  A    between atoms: C_30  and  C_31
REMARK    7  A    between atoms: C_31  and  N_32
REMARK                            x       y       z     vdW  Elec       q    Type
REMARK                         _______ _______ _______ _____ _____    ______ ____
ROOT
ATOM      1  C   UNL     1       2.884   2.020   4.687  0.00  0.00    +0.092 C 
ATOM      2  C   UNL     1       3.658   1.123   5.615  0.00  0.00    +0.015 A 
ATOM      3  C   UNL     1       4.969   1.473   5.982  0.00  0.00    -0.010 A 
ATOM      4  C   UNL     1       5.572   2.645   5.492  0.00  0.00    +0.009 A 
ATOM      5  C   UNL     1       6.841   2.958   5.870  0.00  0.00    +0.001 A 
ATOM      6  C   UNL     1       7.556   2.133   6.737  0.00  0.00    +0.001 A 
ATOM      7  C   UNL     1       7.005   0.990   7.230  0.00  0.00    +0.008 A 
ATOM      8  C   UNL     1       5.698   0.633   6.860  0.00  0.00    -0.017 A 
ATOM      9  C   UNL     1       5.097  -0.542   7.344  0.00  0.00    +0.012 A 
ATOM     10  C   UNL     1       3.829  -0.853   6.969  0.00  0.00    +0.047 A 
ATOM     11  C   UNL     1       3.101  -0.023   6.104  0.00  0.00    +0.135 A 
ATOM     12  O   UNL     1       1.836  -0.380   5.770  0.00  0.00    -0.437 OA
ATOM     13  C   UNL     1       1.249   0.135   4.669  0.00  0.00    +0.229 A 
ATOM     14  C   UNL     1       1.708   1.287   4.106  0.00  0.00    +0.066 A 
ATOM     15  C   UNL     1       1.063   1.791   2.953  0.00  0.00    +0.115 A 
ATOM     16  N   UNL     1       1.480   2.898   2.374  0.00  0.00    -0.384 N 
ATOM     17  N   UNL     1      -0.020   1.094   2.454  0.00  0.00    -0.318 N 
ATOM     18  C   UNL     1      -0.418  -0.048   3.070  0.00  0.00    +0.204 A 
ATOM     19  N   UNL     1       0.194  -0.500   4.126  0.00  0.00    -0.202 NA
ATOM     20  H   UNL     1       0.967   3.277   1.478  0.00  0.00    +0.157 HD
ATOM     21  H   UNL     1       2.341   3.444   2.786  0.00  0.00    +0.157 HD
ENDROOT
BRANCH   1  25
ATOM     22  C   UNL     1       1.492   5.423   6.864  0.00  0.00    +0.120 A 
ATOM     23  C   UNL     1       2.350   5.591   5.787  0.00  0.00    +0.046 A 
ATOM     24  C   UNL     1       2.799   4.489   5.085  0.00  0.00    +0.008 A 
ATOM     25  C   UNL     1       2.393   3.220   5.455  0.00  0.00    -0.035 A 
ATOM     26  C   UNL     1       1.534   3.051   6.524  0.00  0.00    +0.008 A 
ATOM     27  C   UNL     1       1.087   4.149   7.233  0.00  0.00    +0.046 A 
BRANCH  22  29
ATOM     28  C   UNL     1       0.168   6.258   8.653  0.00  0.00    +0.277 C 
ATOM     29  O   UNL     1       1.049   6.506   7.556  0.00  0.00    -0.495 OA
ENDBRANCH  22  29
ENDBRANCH   1  25
BRANCH  17  30
ATOM     30  C   UNL     1      -0.729   1.579   1.267  0.00  0.00    +0.126 C 
BRANCH  30  31
ATOM     31  C   UNL     1      -0.013   1.086   0.008  0.00  0.00    +0.037 C 
BRANCH  31  32
ATOM     32  C   UNL     1      -0.753   1.593  -1.232  0.00  0.00    +0.086 C 
BRANCH  32  33
ATOM     33  N   UNL     1      -0.065   1.119  -2.440  0.00  0.00    -0.298 NA
ATOM     34  C   UNL     1       1.267   1.729  -2.562  0.00  0.00    +0.112 C 
ATOM     35  C   UNL     1       1.970   1.164  -3.799  0.00  0.00    +0.175 C 
ATOM     36  O   UNL     1       1.158   1.401  -4.952  0.00  0.00    -0.377 OA
ATOM     37  C   UNL     1      -0.146   0.820  -4.868  0.00  0.00    +0.175 C 
ATOM     38  C   UNL     1      -0.871   1.382  -3.642  0.00  0.00    +0.112 C 
ENDBRANCH  32  33
ENDBRANCH  31  32
ENDBRANCH  30  31
ENDBRANCH  17  30
TORSDOF 6
