REMARK  Name = ZINC09549120
REMARK  8 active torsions:
REMARK  status: ('A' for Active; 'I' for Inactive)
REMARK    1  A    between atoms: C_1  and  C_2
REMARK    2  A    between atoms: C_2  and  O_3
REMARK    3  A    between atoms: O_3  and  C_4
REMARK    4  A    between atoms: C_9  and  C_10
REMARK    5  A    between atoms: C_10  and  N_11
REMARK    6  A    between atoms: C_12  and  C_14
REMARK    7  A    between atoms: C_14  and  N_15
REMARK    8  A    between atoms: C_32  and  C_35
REMARK                            x       y       z     vdW  Elec       q    Type
REMARK                         _______ _______ _______ _____ _____    ______ ____
ROOT
ATOM      1  N   UNL     1       3.850   5.574  -0.593  0.00  0.00    -0.310 N 
ATOM      2  C   UNL     1       4.318   6.835  -0.504  0.00  0.00    +0.231 C 
ATOM      3  O   UNL     1       4.556   7.318   0.583  0.00  0.00    -0.274 OA
ATOM      4  H   UNL     1       3.659   5.188  -1.462  0.00  0.00    +0.149 HD
ENDROOT
BRANCH   1   5
ATOM      5  C   UNL     1       3.628   4.787   0.623  0.00  0.00    +0.143 C 
BRANCH   5  11
ATOM      6  C   UNL     1       3.985   2.443  -0.184  0.00  0.00    +0.126 A 
ATOM      7  C   UNL     1       3.499   1.187  -0.523  0.00  0.00    +0.053 A 
ATOM      8  C   UNL     1       2.151   0.922  -0.427  0.00  0.00    +0.001 A 
ATOM      9  C   UNL     1       1.262   1.901   0.000  0.00  0.00    +0.125 A 
ATOM     10  C   UNL     1       1.755   3.157   0.343  0.00  0.00    +0.054 A 
ATOM     11  C   UNL     1       3.106   3.424   0.250  0.00  0.00    +0.015 A 
ATOM     12  O   UNL     1      -0.017   1.433   0.010  0.00  0.00    -0.488 OA
ATOM     13  C   UNL     1       0.002  -0.004   0.002  0.00  0.00    +0.175 C 
ATOM     14  C   UNL     1       1.337  -0.325  -0.711  0.00  0.00    +0.083 C 
ATOM     15  C   UNL     1       0.004  -0.554   1.430  0.00  0.00    +0.052 C 
BRANCH   6  16
ATOM     16  O   UNL     1       5.314   2.710  -0.278  0.00  0.00    -0.492 OA
BRANCH  16  18
ATOM     17  C   UNL     1       7.609   2.135  -0.773  0.00  0.00    +0.048 C 
ATOM     18  C   UNL     1       6.158   1.651  -0.733  0.00  0.00    +0.225 C 
ENDBRANCH  16  18
ENDBRANCH   6  16
ENDBRANCH   5  11
ENDBRANCH   1   5
BRANCH   2  19
ATOM     19  C   UNL     1       4.546   7.644  -1.754  0.00  0.00    +0.213 C 
BRANCH  19  20
ATOM     20  N   UNL     1       5.054   8.970  -1.392  0.00  0.00    -0.215 N 
ATOM     21  C   UNL     1       6.363   9.271  -1.263  0.00  0.00    +0.252 C 
ATOM     22  O   UNL     1       7.306   8.526  -1.419  0.00  0.00    -0.272 OA
ATOM     23  C   UNL     1       6.404  10.734  -0.884  0.00  0.00    +0.144 C 
ATOM     24  C   UNL     1       7.151  11.536  -1.945  0.00  0.00    +0.081 C 
ATOM     25  C   UNL     1       8.654  11.270  -1.782  0.00  0.00    +0.232 C 
ATOM     26  O   UNL     1       9.064  11.762  -0.505  0.00  0.00    -0.492 OA
ATOM     27  C   UNL     1       8.334  11.405   0.583  0.00  0.00    +0.126 A 
ATOM     28  C   UNL     1       7.046  10.907   0.463  0.00  0.00    +0.027 A 
ATOM     29  C   UNL     1       6.334  10.562   1.599  0.00  0.00    +0.010 A 
ATOM     30  C   UNL     1       6.902  10.707   2.850  0.00  0.00    +0.001 A 
ATOM     31  C   UNL     1       8.189  11.198   2.972  0.00  0.00    +0.004 A 
ATOM     32  C   UNL     1       8.903  11.546   1.844  0.00  0.00    +0.046 A 
ATOM     33  N   UNL     1       4.992  11.131  -0.837  0.00  0.00    -0.281 N 
ATOM     34  C   UNL     1       4.277  10.034  -1.154  0.00  0.00    +0.310 C 
ATOM     35  O   UNL     1       3.063  10.011  -1.214  0.00  0.00    -0.252 OA
ATOM     36  H   UNL     1       4.642  12.010  -0.625  0.00  0.00    +0.152 HD
ENDBRANCH  19  20
ENDBRANCH   2  19
TORSDOF 6
