REMARK  Name = ZINC17523835
REMARK  9 active torsions:
REMARK  status: ('A' for Active; 'I' for Inactive)
REMARK    1  A    between atoms: C_1  and  C_2
REMARK    2  A    between atoms: C_3  and  S_8
REMARK    3  A    between atoms: C_4  and  C_7
REMARK    4  A    between atoms: S_8  and  N_11
REMARK    5  A    between atoms: C_17  and  C_19
REMARK    6  A    between atoms: C_17  and  C_20
REMARK    7  A    between atoms: C_17  and  N_62
REMARK    8  A    between atoms: N_22  and  C_23
REMARK    9  A    between atoms: C_24  and  C_31
REMARK                            x       y       z     vdW  Elec       q    Type
REMARK                         _______ _______ _______ _____ _____    ______ ____
ROOT
ATOM      1  C   UNL     1       2.342   5.773   0.013  0.00  0.00    +0.016 C 
ATOM      2  C   UNL     1       3.301   6.111  -1.130  0.00  0.00    -0.004 C 
ENDROOT
BRANCH   1   9
ATOM      3  N   UNL     1      -0.273   9.174  -0.701  0.00  0.00    -0.178 NA
ATOM      4  C   UNL     1      -1.467   8.306  -0.721  0.00  0.00    +0.107 C 
ATOM      5  C   UNL     1      -1.122   6.870  -0.290  0.00  0.00    -0.001 C 
ATOM      6  C   UNL     1       0.209   6.467  -0.885  0.00  0.00    -0.076 C 
ATOM      7  C   UNL     1       1.806   8.088   0.010  0.00  0.00    -0.060 C 
ATOM      8  C   UNL     1       0.709   9.121   0.363  0.00  0.00    +0.091 C 
ATOM      9  N   UNL     1       1.260   6.758   0.132  0.00  0.00    +0.388 N 
ATOM     10  H   UNL     1       0.836   6.673   1.063  0.00  0.00    -0.081 HD
BRANCH   3  11
ATOM     11  S   UNL     1      -0.048  10.247  -1.941  0.00  0.00    +0.066 S 
ATOM     12  O   UNL     1      -1.331  10.501  -2.498  0.00  0.00    -0.153 OA
ATOM     13  O   UNL     1       0.781  11.284  -1.435  0.00  0.00    -0.153 OA
BRANCH  11  16
ATOM     14  C   UNL     1      -1.040   8.385  -4.615  0.00  0.00    +0.071 C 
ATOM     15  C   UNL     1       0.402   8.658  -4.274  0.00  0.00    +0.107 A 
ATOM     16  C   UNL     1       0.885   9.418  -3.185  0.00  0.00    +0.170 A 
ATOM     17  C   UNL     1       2.232   9.366  -3.322  0.00  0.00    +0.161 A 
ATOM     18  O   UNL     1       2.475   8.621  -4.409  0.00  0.00    -0.358 OA
ATOM     19  N   UNL     1       1.449   8.240  -4.925  0.00  0.00    -0.081 NA
ATOM     20  C   UNL     1       3.256  10.017  -2.427  0.00  0.00    +0.091 C 
ENDBRANCH  11  16
ENDBRANCH   3  11
ENDBRANCH   1   9
BRANCH   1  21
ATOM     21  C   UNL     1       3.096   5.768   1.317  0.00  0.00    +0.204 C 
ATOM     22  O   UNL     1       2.945   6.674   2.109  0.00  0.00    -0.277 OA
ATOM     23  N   UNL     1       3.940   4.756   1.604  0.00  0.00    -0.281 N 
ATOM     24  H   UNL     1       4.062   4.032   0.971  0.00  0.00    +0.155 HD
BRANCH  23  25
ATOM     25  C   UNL     1       4.634   4.752   2.804  0.00  0.00    +0.084 A 
ATOM     26  C   UNL     1       5.536   3.812   3.273  0.00  0.00    +0.068 A 
ATOM     27  C   UNL     1       6.136   4.045   4.586  0.00  0.00    -0.023 A 
ATOM     28  C   UNL     1       5.737   5.171   5.205  0.00  0.00    -0.004 A 
ATOM     29  S   UNL     1       4.584   5.920   4.080  0.00  0.00    -0.077 S 
ATOM     30  C   UNL     1       6.398   5.342   6.546  0.00  0.00    +0.043 C 
ATOM     31  C   UNL     1       7.607   4.382   6.509  0.00  0.00    +0.010 C 
ATOM     32  C   UNL     1       7.137   3.325   5.490  0.00  0.00    +0.037 C 
BRANCH  26  33
ATOM     33  C   UNL     1       5.878   2.626   2.481  0.00  0.00    +0.244 C 
ATOM     34  O   UNL     1       5.230   1.603   2.607  0.00  0.00    -0.270 OA
ATOM     35  N   UNL     1       6.909   2.668   1.614  0.00  0.00    -0.325 N 
ATOM     36  H   UNL     1       7.425   3.484   1.514  0.00  0.00    +0.145 HD
ATOM     37  H   UNL     1       7.135   1.884   1.091  0.00  0.00    +0.145 HD
ENDBRANCH  26  33
ENDBRANCH  23  25
ENDBRANCH   1  21
TORSDOF 6
