REMARK  Name = ZINC04151459
REMARK  3 active torsions:
REMARK  status: ('A' for Active; 'I' for Inactive)
REMARK    1  A    between atoms: C_1  and  C_2
REMARK    2  A    between atoms: C_5  and  N_25
REMARK    3  A    between atoms: C_9  and  C_18
REMARK                            x       y       z     vdW  Elec       q    Type
REMARK                         _______ _______ _______ _____ _____    ______ ____
ROOT
ATOM      1  C   UNL     1      -1.843   6.816  -2.017  0.00  0.00    +0.045 C 
ATOM      2  C   UNL     1      -2.086   5.426  -1.487  0.00  0.00    -0.029 A 
ATOM      3  C   UNL     1      -3.328   4.849  -1.632  0.00  0.00    +0.007 A 
ATOM      4  C   UNL     1      -3.566   3.575  -1.150  0.00  0.00    +0.033 A 
ATOM      5  C   UNL     1      -2.551   2.885  -0.515  0.00  0.00    +0.132 A 
ATOM      6  C   UNL     1      -1.306   3.457  -0.360  0.00  0.00    +0.011 A 
ATOM      7  C   UNL     1      -1.048   4.738  -0.855  0.00  0.00    +0.037 A 
ATOM      8  N   UNL     1       0.191   5.370  -0.779  0.00  0.00    -0.336 N 
ATOM      9  C   UNL     1       1.250   4.664  -0.041  0.00  0.00    +0.105 C 
ATOM     10  C   UNL     1       1.118   3.192  -0.370  0.00  0.00    +0.029 C 
ATOM     11  C   UNL     1      -0.205   2.749   0.329  0.00  0.00    +0.051 C 
ATOM     12  C   UNL     1      -0.094   1.269   0.344  0.00  0.00    -0.023 C 
ATOM     13  C   UNL     1       1.193   0.942   0.378  0.00  0.00    -0.030 C 
ATOM     14  C   UNL     1       2.054   2.208   0.341  0.00  0.00    +0.033 C 
ATOM     15  H   UNL     1       0.094   6.319  -0.453  0.00  0.00    +0.147 HD
ENDROOT
BRANCH   9  16
ATOM     16  C   UNL     1       1.073   4.876   1.441  0.00  0.00    -0.027 A 
ATOM     17  C   UNL     1      -0.172   5.202   1.948  0.00  0.00    +0.007 A 
ATOM     18  C   UNL     1      -0.336   5.391   3.307  0.00  0.00    +0.020 A 
ATOM     19  C   UNL     1       0.747   5.266   4.159  0.00  0.00    +0.041 A 
ATOM     20  C   UNL     1       1.993   4.946   3.650  0.00  0.00    +0.020 A 
ATOM     21  C   UNL     1       2.155   4.751   2.292  0.00  0.00    +0.007 A 
ATOM     22 CL   UNL     1       0.542   5.511   5.865  0.00  0.00    -0.084 Cl
ENDBRANCH   9  16
BRANCH   5  23
ATOM     23  N   UNL     1      -2.802   1.521   0.003  0.00  0.00    +0.057 N 
ATOM     24  O   UNL     1      -3.296   0.676  -0.722  0.00  0.00    -0.126 OA
ATOM     25  O   UNL     1      -2.516   1.245   1.154  0.00  0.00    -0.126 OA
ENDBRANCH   5  23
TORSDOF 2
