REMARK  Name = ZINC11565511
REMARK  16 active torsions:
REMARK  status: ('A' for Active; 'I' for Inactive)
REMARK    1  A    between atoms: C_1  and  C_2
REMARK    2  A    between atoms: C_6  and  C_9
REMARK    3  A    between atoms: C_10  and  C_11
REMARK    4  A    between atoms: C_10  and  N_71
REMARK    5  A    between atoms: C_11  and  C_13
REMARK    6  A    between atoms: C_11  and  O_36
REMARK    7  A    between atoms: C_13  and  O_14
REMARK    8  A    between atoms: O_14  and  C_15
REMARK    9  A    between atoms: C_18  and  O_21
REMARK   10  A    between atoms: O_21  and  C_22
REMARK   11  A    between atoms: C_22  and  C_23
REMARK   12  A    between atoms: C_23  and  C_25
REMARK   13  A    between atoms: C_23  and  O_35
REMARK   14  A    between atoms: C_25  and  N_73
REMARK   15  A    between atoms: C_27  and  C_34
REMARK   16  A    between atoms: C_30  and  C_33
REMARK                            x       y       z     vdW  Elec       q    Type
REMARK                         _______ _______ _______ _____ _____    ______ ____
ROOT
ATOM      1  C   UNL     1       0.089   0.884  -7.388  0.00  0.00    +0.121 A 
ATOM      2  C   UNL     1      -1.079   1.597  -7.163  0.00  0.00    +0.049 A 
ATOM      3  C   UNL     1      -1.474   1.885  -5.871  0.00  0.00    +0.049 A 
ATOM      4  C   UNL     1      -0.703   1.462  -4.799  0.00  0.00    +0.121 A 
ATOM      5  C   UNL     1       0.468   0.753  -5.024  0.00  0.00    +0.049 A 
ATOM      6  C   UNL     1       0.860   0.460  -6.316  0.00  0.00    +0.049 A 
ENDROOT
BRANCH   1   7
ATOM      7  O   UNL     1       0.478   0.600  -8.659  0.00  0.00    -0.489 OA
BRANCH   7   8
ATOM      8  C   UNL     1       1.691  -0.138  -8.817  0.00  0.00    +0.258 C 
BRANCH   8   9
ATOM      9  C   UNL     1       1.964  -0.360 -10.306  0.00  0.00    +0.135 C 
BRANCH   9  10
ATOM     10  O   UNL     1       2.202   0.899 -10.939  0.00  0.00    -0.390 OA
ATOM     11  H   UNL     1       2.958   1.383 -10.580  0.00  0.00    +0.210 HD
ENDBRANCH   9  10
BRANCH   9  12
ATOM     12  C   UNL     1       3.193  -1.255 -10.472  0.00  0.00    -0.044 C 
BRANCH  12  20
ATOM     13  C   UNL     1       6.330  -3.018 -13.831  0.00  0.00    +0.036 C 
ATOM     14  C   UNL     1       5.014  -2.268 -13.610  0.00  0.00    +0.099 C 
ATOM     15  C   UNL     1       4.756  -2.120 -12.108  0.00  0.00    -0.047 C 
ATOM     16  C   UNL     1       2.376  -2.248 -12.525  0.00  0.00    -0.047 C 
ATOM     17  C   UNL     1       2.658  -2.394 -14.022  0.00  0.00    +0.099 C 
ATOM     18  O   UNL     1       3.940  -3.002 -14.204  0.00  0.00    -0.378 OA
ATOM     19  C   UNL     1       1.581  -3.273 -14.662  0.00  0.00    +0.036 C 
ATOM     20  N   UNL     1       3.456  -1.444 -11.915  0.00  0.00    +0.385 N 
ATOM     21  H   UNL     1       3.487  -0.525 -12.372  0.00  0.00    -0.081 HD
ENDBRANCH  12  20
ENDBRANCH   9  12
ENDBRANCH   8   9
ENDBRANCH   7   8
ENDBRANCH   1   7
BRANCH   4  22
ATOM     22  O   UNL     1      -1.092   1.746  -3.527  0.00  0.00    -0.489 OA
BRANCH  22  23
ATOM     23  C   UNL     1      -0.250   1.279  -2.472  0.00  0.00    +0.258 C 
BRANCH  23  24
ATOM     24  C   UNL     1      -0.845   1.691  -1.124  0.00  0.00    +0.135 C 
BRANCH  24  25
ATOM     25  O   UNL     1      -0.834   3.116  -1.014  0.00  0.00    -0.390 OA
ATOM     26  H   UNL     1       0.048   3.508  -1.068  0.00  0.00    +0.210 HD
ENDBRANCH  24  25
BRANCH  24  27
ATOM     27  C   UNL     1      -0.013   1.086   0.008  0.00  0.00    -0.044 C 
BRANCH  27  35
ATOM     28  C   UNL     1       0.391   1.320   2.385  0.00  0.00    -0.047 C 
ATOM     29  C   UNL     1      -0.234   1.788   3.702  0.00  0.00    +0.099 C 
ATOM     30  O   UNL     1      -1.429   1.042   3.948  0.00  0.00    -0.378 OA
ATOM     31  C   UNL     1      -2.409   1.166   2.913  0.00  0.00    +0.099 C 
ATOM     32  C   UNL     1      -1.806   0.693   1.588  0.00  0.00    -0.047 C 
ATOM     33  C   UNL     1      -3.627   0.307   3.257  0.00  0.00    +0.036 C 
ATOM     34  C   UNL     1      -0.571   3.277   3.608  0.00  0.00    +0.036 C 
ATOM     35  N   UNL     1      -0.599   1.497   1.302  0.00  0.00    +0.385 N 
ATOM     36  H   UNL     1      -0.863   2.488   1.249  0.00  0.00    -0.081 HD
ENDBRANCH  27  35
ENDBRANCH  24  27
ENDBRANCH  23  24
ENDBRANCH  22  23
ENDBRANCH   4  22
TORSDOF 12
