REMARK  Name = ZINC08789576
REMARK  10 active torsions:
REMARK  status: ('A' for Active; 'I' for Inactive)
REMARK    1  A    between atoms: C_1  and  C_2
REMARK    2  A    between atoms: C_13  and  C_34
REMARK    3  A    between atoms: N_20  and  C_23
REMARK    4  A    between atoms: C_23  and  C_24
REMARK    5  A    between atoms: C_27  and  O_32
REMARK    6  A    between atoms: C_28  and  O_30
REMARK    7  A    between atoms: O_30  and  C_31
REMARK    8  A    between atoms: O_32  and  C_33
REMARK    9  A    between atoms: C_39  and  O_40
REMARK   10  A    between atoms: O_40  and  C_41
REMARK                            x       y       z     vdW  Elec       q    Type
REMARK                         _______ _______ _______ _____ _____    ______ ____
ROOT
ATOM      1  C   UNL     1      -6.199   2.526   0.494  0.00  0.00    +0.048 C 
ATOM      2  C   UNL     1      -4.870   1.900   0.067  0.00  0.00    +0.151 C 
ATOM      3  C   UNL     1      -4.390   2.614  -1.174  0.00  0.00    +0.054 A 
ATOM      4  C   UNL     1      -3.360   3.489  -1.172  0.00  0.00    -0.008 A 
ATOM      5  C   UNL     1      -3.204   3.962  -2.532  0.00  0.00    +0.004 A 
ATOM      6  C   UNL     1      -2.317   4.866  -3.126  0.00  0.00    +0.010 A 
ATOM      7  C   UNL     1      -2.462   5.082  -4.474  0.00  0.00    +0.001 A 
ATOM      8  C   UNL     1      -3.436   4.442  -5.222  0.00  0.00    +0.002 A 
ATOM      9  C   UNL     1      -4.326   3.542  -4.661  0.00  0.00    +0.026 A 
ATOM     10  C   UNL     1      -4.203   3.303  -3.293  0.00  0.00    +0.047 A 
ATOM     11  N   UNL     1      -4.898   2.495  -2.439  0.00  0.00    -0.356 N 
ATOM     12  H   UNL     1      -5.641   1.924  -2.691  0.00  0.00    +0.166 HD
ATOM     13  C   UNL     1      -2.557   3.865   0.048  0.00  0.00    +0.072 C 
ATOM     14  C   UNL     1      -3.345   3.477   1.305  0.00  0.00    +0.122 C 
ATOM     15  N   UNL     1      -3.884   2.116   1.127  0.00  0.00    -0.280 N 
ATOM     16  C   UNL     1      -3.463   1.135   1.929  0.00  0.00    +0.234 C 
ATOM     17  O   UNL     1      -2.758   1.434   2.869  0.00  0.00    -0.274 OA
ATOM     18  C   UNL     1      -3.805  -0.308   1.742  0.00  0.00    +0.204 C 
ATOM     19  N   UNL     1      -4.605  -0.532   0.550  0.00  0.00    -0.286 N 
ATOM     20  C   UNL     1      -5.086   0.450  -0.212  0.00  0.00    +0.246 C 
ATOM     21  O   UNL     1      -5.738   0.148  -1.189  0.00  0.00    -0.273 OA
ENDROOT
BRANCH  13  22
ATOM     22  C   UNL     1      -1.241   3.131   0.031  0.00  0.00    +0.003 A 
ATOM     23  C   UNL     1      -1.220   1.750   0.017  0.00  0.00    +0.008 A 
ATOM     24  C   UNL     1      -0.013   1.076   0.008  0.00  0.00    +0.001 A 
ATOM     25  C   UNL     1       1.176   1.782   0.000  0.00  0.00    +0.004 A 
ATOM     26  C   UNL     1       1.160   3.163   0.007  0.00  0.00    +0.046 A 
ATOM     27  C   UNL     1      -0.050   3.842   0.023  0.00  0.00    +0.124 A 
BRANCH  27  28
ATOM     28  O   UNL     1      -0.069   5.201   0.030  0.00  0.00    -0.495 OA
ATOM     29  C   UNL     1       1.196   5.867   0.022  0.00  0.00    +0.277 C 
ENDBRANCH  27  28
ENDBRANCH  13  22
BRANCH  19  30
ATOM     30  C   UNL     1      -4.899  -1.915   0.164  0.00  0.00    +0.143 C 
BRANCH  30  31
ATOM     31  C   UNL     1      -6.182  -2.357   0.819  0.00  0.00    -0.026 A 
ATOM     32  C   UNL     1      -7.389  -2.164   0.173  0.00  0.00    +0.009 A 
ATOM     33  C   UNL     1      -8.569  -2.568   0.770  0.00  0.00    +0.050 A 
ATOM     34  C   UNL     1      -8.543  -3.169   2.019  0.00  0.00    +0.162 A 
ATOM     35  C   UNL     1      -7.328  -3.364   2.669  0.00  0.00    +0.162 A 
ATOM     36  C   UNL     1      -6.149  -2.961   2.063  0.00  0.00    +0.054 A 
BRANCH  35  37
ATOM     37  O   UNL     1      -7.298  -3.953   3.894  0.00  0.00    -0.491 OA
ATOM     38  C   UNL     1      -6.015  -4.121   4.502  0.00  0.00    +0.277 C 
ENDBRANCH  35  37
BRANCH  34  39
ATOM     39  O   UNL     1      -9.703  -3.566   2.607  0.00  0.00    -0.491 OA
ATOM     40  C   UNL     1     -10.912  -3.334   1.882  0.00  0.00    +0.277 C 
ENDBRANCH  34  39
ENDBRANCH  30  31
ENDBRANCH  19  30
TORSDOF 6
