REMARK  Name = ZINC40404949
REMARK  14 active torsions:
REMARK  status: ('A' for Active; 'I' for Inactive)
REMARK    1  A    between atoms: C_1  and  O_2
REMARK    2  A    between atoms: O_2  and  C_3
REMARK    3  A    between atoms: C_6  and  C_11
REMARK    4  A    between atoms: C_8  and  O_9
REMARK    5  A    between atoms: O_9  and  C_10
REMARK    6  A    between atoms: C_20  and  C_22
REMARK    7  A    between atoms: C_22  and  N_23
REMARK    8  A    between atoms: N_23  and  C_24
REMARK    9  A    between atoms: N_23  and  C_32
REMARK   10  A    between atoms: C_24  and  C_25
REMARK   11  A    between atoms: C_25  and  C_27
REMARK   12  A    between atoms: C_25  and  O_31
REMARK   13  A    between atoms: C_27  and  C_28
REMARK   14  A    between atoms: C_28  and  C_29
REMARK                            x       y       z     vdW  Elec       q    Type
REMARK                         _______ _______ _______ _____ _____    ______ ____
ROOT
ATOM      1  C   UNL     1      -5.980  -2.488  -1.299  0.00  0.00    +0.004 A 
ATOM      2  C   UNL     1      -6.548  -3.336  -2.189  0.00  0.00    +0.056 A 
ATOM      3  S   UNL     1      -8.111  -3.742  -1.434  0.00  0.00    -0.076 S 
ATOM      4  C   UNL     1      -7.966  -2.773   0.045  0.00  0.00    +0.116 A 
ATOM      5  C   UNL     1      -6.708  -2.162  -0.078  0.00  0.00    +0.080 A 
ATOM      6  C   UNL     1      -6.324  -1.307   1.004  0.00  0.00    +0.260 A 
ATOM      7  O   UNL     1      -5.252  -0.728   0.985  0.00  0.00    -0.267 OA
ATOM      8  N   UNL     1      -7.167  -1.152   2.042  0.00  0.00    -0.312 N 
ATOM      9  H   UNL     1      -6.912  -0.574   2.778  0.00  0.00    +0.170 HD
ATOM     10  C   UNL     1      -8.366  -1.788   2.079  0.00  0.00    +0.094 A 
ATOM     11  N   UNL     1      -8.747  -2.567   1.103  0.00  0.00    -0.229 NA
ENDROOT
BRANCH   1  15
ATOM     12  C   UNL     1      -2.137  -0.815  -2.039  0.00  0.00    +0.162 A 
ATOM     13  C   UNL     1      -3.192   0.007  -1.673  0.00  0.00    +0.050 A 
ATOM     14  C   UNL     1      -4.439  -0.533  -1.432  0.00  0.00    +0.012 A 
ATOM     15  C   UNL     1      -4.641  -1.907  -1.558  0.00  0.00    -0.013 A 
ATOM     16  C   UNL     1      -3.580  -2.734  -1.926  0.00  0.00    +0.058 A 
ATOM     17  C   UNL     1      -2.333  -2.187  -2.171  0.00  0.00    +0.162 A 
BRANCH  12  19
ATOM     18  C   UNL     1      -0.779   1.136  -2.122  0.00  0.00    +0.277 C 
ATOM     19  O   UNL     1      -0.910  -0.279  -2.276  0.00  0.00    -0.491 OA
ENDBRANCH  12  19
BRANCH  17  20
ATOM     20  O   UNL     1      -1.298  -2.990  -2.536  0.00  0.00    -0.491 OA
ATOM     21  C   UNL     1      -1.571  -4.388  -2.652  0.00  0.00    +0.277 C 
ENDBRANCH  17  20
ENDBRANCH   1  15
BRANCH  10  22
ATOM     22  C   UNL     1      -9.276  -1.583   3.262  0.00  0.00    -0.003 C 
BRANCH  22  23
ATOM     23  N   UNL     1     -10.429  -2.487   3.155  0.00  0.00    +0.388 N 
ATOM     24  H   UNL     1     -10.701  -2.572   2.187  0.00  0.00    -0.081 HD
BRANCH  23  25
ATOM     25  C   UNL     1     -10.065  -3.810   3.679  0.00  0.00    -0.068 C 
ATOM     26  C   UNL     1      -8.845  -4.340   2.924  0.00  0.00    -0.015 C 
ATOM     27  C   UNL     1      -8.465  -5.718   3.470  0.00  0.00    -0.002 C 
ATOM     28  C   UNL     1      -8.133  -5.602   4.960  0.00  0.00    -0.000 C 
ATOM     29  C   UNL     1      -9.354  -5.072   5.715  0.00  0.00    -0.002 C 
ATOM     30  C   UNL     1      -9.733  -3.694   5.168  0.00  0.00    -0.015 C 
ENDBRANCH  23  25
BRANCH  23  31
ATOM     31  C   UNL     1     -11.551  -1.944   3.932  0.00  0.00    -0.046 C 
BRANCH  31  32
ATOM     32  C   UNL     1     -12.803  -2.786   3.678  0.00  0.00    +0.098 C 
BRANCH  32  33
ATOM     33  O   UNL     1     -12.621  -4.090   4.232  0.00  0.00    -0.394 OA
ATOM     34  H   UNL     1     -12.543  -4.101   5.195  0.00  0.00    +0.210 HD
ENDBRANCH  32  33
BRANCH  32  35
ATOM     35  C   UNL     1     -14.011  -2.116   4.336  0.00  0.00    +0.033 C 
BRANCH  35  36
ATOM     36  C   UNL     1     -15.281  -2.890   3.978  0.00  0.00    +0.029 C 
BRANCH  36  37
ATOM     37  C   UNL     1     -16.471  -2.230   4.627  0.00  0.00    -0.034 C 
ATOM     38  C   UNL     1     -17.493  -1.858   3.897  0.00  0.00    +0.004 C 
ENDBRANCH  36  37
ENDBRANCH  35  36
ENDBRANCH  32  35
ENDBRANCH  31  32
ENDBRANCH  23  31
ENDBRANCH  22  23
ENDBRANCH  10  22
TORSDOF 12
