REMARK  Name = ZINC17138306
REMARK  5 active torsions:
REMARK  status: ('A' for Active; 'I' for Inactive)
REMARK    1  A    between atoms: C_1  and  C_2
REMARK    2  A    between atoms: C_7  and  C_8
REMARK    3  A    between atoms: N_12  and  N_13
REMARK    4  A    between atoms: C_14  and  C_15
REMARK    5  A    between atoms: C_16  and  C_17
REMARK                            x       y       z     vdW  Elec       q    Type
REMARK                         _______ _______ _______ _____ _____    ______ ____
ROOT
ATOM      1  C   UNL     1       1.250  -2.160  -0.022  0.00  0.00    +0.186 A 
ATOM      2  N   UNL     1       2.321  -2.921  -0.036  0.00  0.00    -0.126 NA
ATOM      3  N   UNL     1       1.980  -4.160  -0.040  0.00  0.00    -0.119 NA
ATOM      4  C   UNL     1       0.670  -4.269  -0.028  0.00  0.00    +0.223 A 
ATOM      5  N   UNL     1       0.158  -3.000  -0.011  0.00  0.00    -0.186 N 
ATOM      6  S   UNL     1      -0.254  -5.770  -0.027  0.00  0.00    -0.007 SA
ENDROOT
BRANCH   1  13
ATOM      7  C   UNL     1       3.738  -0.683  -0.037  0.00  0.00    +0.044 C 
ATOM      8  C   UNL     1       2.416   0.041  -0.021  0.00  0.00    -0.040 A 
ATOM      9  C   UNL     1       2.383   1.420  -0.013  0.00  0.00    +0.004 A 
ATOM     10  C   UNL     1       1.170   2.086   0.002  0.00  0.00    +0.000 A 
ATOM     11  C   UNL     1      -0.017   1.375   0.010  0.00  0.00    +0.001 A 
ATOM     12  C   UNL     1       0.002  -0.004   0.002  0.00  0.00    +0.012 A 
ATOM     13  C   UNL     1       1.222  -0.682  -0.013  0.00  0.00    +0.024 A 
ENDBRANCH   1  13
BRANCH   5  14
ATOM     14  N   UNL     1      -1.194  -2.632   0.011  0.00  0.00    -0.171 NA
ATOM     15  C   UNL     1      -1.838  -2.455  -1.107  0.00  0.00    +0.133 C 
BRANCH  15  16
ATOM     16  C   UNL     1      -3.206  -2.082  -1.085  0.00  0.00    +0.022 C 
ATOM     17  C   UNL     1      -3.874  -1.898  -2.243  0.00  0.00    +0.009 C 
BRANCH  17  18
ATOM     18  C   UNL     1      -5.294  -1.512  -2.220  0.00  0.00    -0.025 A 
ATOM     19  C   UNL     1      -5.956  -1.339  -1.001  0.00  0.00    +0.008 A 
ATOM     20  C   UNL     1      -7.285  -0.972  -0.988  0.00  0.00    +0.001 A 
ATOM     21  C   UNL     1      -7.966  -0.784  -2.178  0.00  0.00    +0.000 A 
ATOM     22  C   UNL     1      -7.319  -0.958  -3.389  0.00  0.00    +0.001 A 
ATOM     23  C   UNL     1      -5.989  -1.320  -3.418  0.00  0.00    +0.008 A 
ENDBRANCH  17  18
ENDBRANCH  15  16
ENDBRANCH   5  14
TORSDOF 4
