REMARK  Name = ZINC09726065
REMARK  7 active torsions:
REMARK  status: ('A' for Active; 'I' for Inactive)
REMARK    1  A    between atoms: C_2  and  C_3
REMARK    2  A    between atoms: C_3  and  N_4
REMARK    3  A    between atoms: C_8  and  S_29
REMARK    4  A    between atoms: N_13  and  C_14
REMARK    5  A    between atoms: C_14  and  C_16
REMARK    6  A    between atoms: C_20  and  N_22
REMARK    7  A    between atoms: S_29  and  N_32
REMARK                            x       y       z     vdW  Elec       q    Type
REMARK                         _______ _______ _______ _____ _____    ______ ____
ROOT
ATOM      1  N   UNL     1       1.407   1.833  -0.003  0.00  0.00    -0.310 N 
ATOM      2  C   UNL     1       2.081   2.022   1.188  0.00  0.00    +0.059 A 
ATOM      3  C   UNL     1       1.614   1.814   2.496  0.00  0.00    +0.029 A 
ATOM      4  C   UNL     1       2.427   2.049   3.579  0.00  0.00    +0.030 A 
ATOM      5  C   UNL     1       3.730   2.489   3.416  0.00  0.00    +0.106 A 
ATOM      6  C   UNL     1       4.219   2.696   2.138  0.00  0.00    +0.045 A 
ATOM      7  C   UNL     1       3.405   2.462   1.054  0.00  0.00    +0.041 A 
ATOM      8  S   UNL     1       3.615   2.593  -0.704  0.00  0.00    -0.052 S 
ATOM      9  C   UNL     1       2.030   2.082  -1.187  0.00  0.00    +0.168 A 
ATOM     10  N   UNL     1       1.542   1.961  -2.417  0.00  0.00    -0.152 NA
ENDROOT
BRANCH   5  11
ATOM     11  S   UNL     1       4.754   2.782   4.819  0.00  0.00    +0.056 S 
ATOM     12  O   UNL     1       4.231   1.990   5.876  0.00  0.00    -0.153 OA
ATOM     13  O   UNL     1       6.098   2.665   4.373  0.00  0.00    -0.153 OA
BRANCH  11  14
ATOM     14  N   UNL     1       4.538   4.363   5.261  0.00  0.00    -0.204 NA
ATOM     15  H   UNL     1       4.631   4.624   6.191  0.00  0.00    +0.144 HD
ATOM     16  H   UNL     1       4.318   5.029   4.591  0.00  0.00    +0.144 HD
ENDBRANCH  11  14
ENDBRANCH   5  11
BRANCH  10  17
ATOM     17  C   UNL     1       2.309   2.254  -3.471  0.00  0.00    +0.269 C 
ATOM     18  O   UNL     1       3.456   2.631  -3.305  0.00  0.00    -0.268 OA
BRANCH  17  19
ATOM     19  C   UNL     1       1.765   2.119  -4.843  0.00  0.00    +0.041 A 
ATOM     20  C   UNL     1       0.454   1.682  -5.036  0.00  0.00    +0.013 A 
ATOM     21  C   UNL     1      -0.052   1.563  -6.314  0.00  0.00    +0.003 A 
ATOM     22  C   UNL     1       0.739   1.865  -7.407  0.00  0.00    +0.024 A 
ATOM     23  C   UNL     1       2.047   2.295  -7.224  0.00  0.00    +0.045 A 
ATOM     24  C   UNL     1       2.562   2.424  -5.944  0.00  0.00    +0.037 A 
BRANCH  23  25
ATOM     25  N   UNL     1       2.846   2.600  -8.336  0.00  0.00    -0.210 N 
ATOM     26  C   UNL     1       3.255   3.844  -8.615  0.00  0.00    +0.227 C 
ATOM     27  O   UNL     1       2.994   4.832  -7.962  0.00  0.00    -0.275 OA
ATOM     28  C   UNL     1       4.098   3.821  -9.871  0.00  0.00    +0.106 C 
ATOM     29  C   UNL     1       4.096   2.334 -10.280  0.00  0.00    +0.106 C 
ATOM     30  C   UNL     1       3.257   1.672  -9.208  0.00  0.00    +0.227 C 
ATOM     31  O   UNL     1       2.999   0.489  -9.149  0.00  0.00    -0.275 OA
ENDBRANCH  23  25
ENDBRANCH  17  19
ENDBRANCH  10  17
BRANCH   1  32
ATOM     32  C   UNL     1       0.017   1.369   0.008  0.00  0.00    +0.212 C 
BRANCH  32  34
ATOM     33  C   UNL     1      -0.031  -1.276  -0.066  0.00  0.00    +0.005 C 
ATOM     34  C   UNL     1      -0.010  -0.103  -0.033  0.00  0.00    -0.084 C 
ENDBRANCH  32  34
ENDBRANCH   1  32
TORSDOF 7
