REMARK  Name = ZINC19962473
REMARK  6 active torsions:
REMARK  status: ('A' for Active; 'I' for Inactive)
REMARK    1  A    between atoms: C_1  and  C_2
REMARK    2  A    between atoms: C_5  and  C_15
REMARK    3  A    between atoms: CA_8  and  C_12
REMARK    4  A    between atoms: C_18  and  O_21
REMARK    5  A    between atoms: O_21  and  C_22
REMARK    6  A    between atoms: C_22  and  C_23
REMARK                            x       y       z     vdW  Elec       q    Type
REMARK                         _______ _______ _______ _____ _____    ______ ____
ROOT
ATOM      1  C   UNL     1      -0.018   1.503   0.010  0.00  0.00    +0.085 C 
ATOM      2  C   UNL     1       0.002  -0.004   0.002  0.00  0.00    +0.117 C 
ATOM      3  N   UNL     1       0.008  -0.747  -1.058  0.00  0.00    -0.166 NA
ATOM      4  N   UNL     1       0.028  -2.085  -0.659  0.00  0.00    -0.182 N 
ATOM      5  C   UNL     1       0.041  -3.357  -1.393  0.00  0.00    +0.156 C 
ATOM      6  C   UNL     1       0.062  -4.621  -0.554  0.00  0.00    +0.037 C 
ATOM      7  CA  UNL     1       0.065  -4.474   0.788  0.00  0.00    +0.153 C 
ATOM      8  N   UNL     1       0.051  -3.244   1.370  0.00  0.00    -0.210 NA
ATOM      9  C   UNL     1       0.034  -2.112   0.706  0.00  0.00    +0.209 C 
ATOM     10  N   UNL     1       0.024  -0.805   1.118  0.00  0.00    -0.273 N 
ATOM     11  H   UNL     1       0.028  -0.498   2.039  0.00  0.00    +0.156 HD
ENDROOT
BRANCH   5  12
ATOM     12  C   UNL     1      -1.181  -3.401  -2.274  0.00  0.00    -0.021 A 
ATOM     13  C   UNL     1      -2.389  -2.922  -1.802  0.00  0.00    +0.009 A 
ATOM     14  C   UNL     1      -3.511  -2.962  -2.608  0.00  0.00    +0.046 A 
ATOM     15  C   UNL     1      -3.424  -3.483  -3.890  0.00  0.00    +0.121 A 
ATOM     16  C   UNL     1      -2.211  -3.963  -4.361  0.00  0.00    +0.046 A 
ATOM     17  C   UNL     1      -1.091  -3.916  -3.554  0.00  0.00    +0.009 A 
BRANCH  15  18
ATOM     18  O   UNL     1      -4.526  -3.524  -4.684  0.00  0.00    -0.487 OA
BRANCH  18  19
ATOM     19  C   UNL     1      -4.363  -4.074  -5.993  0.00  0.00    +0.264 C 
BRANCH  19  20
ATOM     20  C   UNL     1      -5.682  -4.037  -6.722  0.00  0.00    -0.010 A 
ATOM     21  C   UNL     1      -6.554  -5.105  -6.627  0.00  0.00    +0.007 A 
ATOM     22  C   UNL     1      -7.764  -5.071  -7.295  0.00  0.00    +0.000 A 
ATOM     23  C   UNL     1      -8.101  -3.968  -8.058  0.00  0.00    +0.000 A 
ATOM     24  C   UNL     1      -7.229  -2.900  -8.152  0.00  0.00    +0.000 A 
ATOM     25  C   UNL     1      -6.021  -2.932  -7.480  0.00  0.00    +0.007 A 
ENDBRANCH  19  20
ENDBRANCH  18  19
ENDBRANCH  15  18
ENDBRANCH   5  12
BRANCH   7  26
ATOM     26  C   UNL     1       0.084  -5.676   1.645  0.00  0.00    +0.404 C 
ATOM     27  O   UNL     1       0.097  -6.789   1.137  0.00  0.00    -0.239 OA
ATOM     28  OXT UNL     1       0.088  -5.560   2.862  0.00  0.00    -0.239 OA
ENDBRANCH   7  26
TORSDOF 5
