REMARK  Name = ZINC62190301
REMARK  3 active torsions:
REMARK  status: ('A' for Active; 'I' for Inactive)
REMARK    1  A    between atoms: C_1  and  C_2
REMARK    2  A    between atoms: C_2  and  C_27
REMARK    3  A    between atoms: N_14  and  C_15
REMARK                            x       y       z     vdW  Elec       q    Type
REMARK                         _______ _______ _______ _____ _____    ______ ____
ROOT
ATOM      1  C   UNL     1       0.046   2.766  -1.763  0.00  0.00    +0.017 C 
ATOM      2  C   UNL     1      -0.385   1.322  -1.496  0.00  0.00    +0.006 C 
ATOM      3  C   UNL     1       0.494   0.377  -2.314  0.00  0.00    +0.119 C 
ATOM      4  N   UNL     1       1.830   0.347  -1.679  0.00  0.00    -0.291 N 
ATOM      5  C   UNL     1       1.901  -0.208  -0.339  0.00  0.00    +0.124 C 
ATOM      6  C   UNL     1       3.242  -0.046   0.346  0.00  0.00    +0.137 C 
ATOM      7  N   UNL     1       4.006   1.054  -0.253  0.00  0.00    -0.274 N 
ATOM      8  C   UNL     1       4.225   1.002  -1.710  0.00  0.00    +0.205 C 
ATOM      9  C   UNL     1       2.875   0.833  -2.362  0.00  0.00    +0.234 C 
ATOM     10  O   UNL     1       2.726   1.164  -3.519  0.00  0.00    -0.274 OA
ATOM     11  C   UNL     1       4.487   2.067   0.496  0.00  0.00    +0.307 C 
ATOM     12  O   UNL     1       4.209   2.134   1.678  0.00  0.00    -0.252 OA
ATOM     13  N   UNL     1       5.275   3.005  -0.066  0.00  0.00    -0.269 N 
ATOM     14  C   UNL     1       0.791   0.337   0.518  0.00  0.00    -0.022 A 
ATOM     15  C   UNL     1      -0.268   1.036  -0.023  0.00  0.00    -0.035 A 
ATOM     16  C   UNL     1      -1.274   1.505   0.811  0.00  0.00    +0.004 A 
ATOM     17  C   UNL     1      -1.219   1.282   2.172  0.00  0.00    +0.000 A 
ATOM     18  C   UNL     1      -0.153   0.588   2.713  0.00  0.00    +0.000 A 
ATOM     19  C   UNL     1       0.847   0.117   1.887  0.00  0.00    +0.006 A 
ATOM     20  C   UNL     1      -1.843   1.147  -1.927  0.00  0.00    +0.017 C 
ATOM     21  H   UNL     1       5.413   3.011  -1.026  0.00  0.00    +0.156 HD
ENDROOT
BRANCH  13  22
ATOM     22  C   UNL     1       5.893   3.971   0.736  0.00  0.00    +0.035 A 
ATOM     23  C   UNL     1       6.309   3.647   2.021  0.00  0.00    +0.023 A 
ATOM     24  C   UNL     1       6.919   4.602   2.810  0.00  0.00    +0.002 A 
ATOM     25  C   UNL     1       7.116   5.881   2.322  0.00  0.00    +0.000 A 
ATOM     26  C   UNL     1       6.703   6.207   1.043  0.00  0.00    +0.002 A 
ATOM     27  C   UNL     1       6.097   5.255   0.247  0.00  0.00    +0.023 A 
ENDBRANCH  13  22
TORSDOF 1
