REMARK  Name = ZINC05739799
REMARK  4 active torsions:
REMARK  status: ('A' for Active; 'I' for Inactive)
REMARK    1  A    between atoms: C_1  and  C_2
REMARK    2  A    between atoms: C_4  and  N_26
REMARK    3  A    between atoms: C_7  and  C_8
REMARK    4  A    between atoms: C_16  and  C_19
REMARK                            x       y       z     vdW  Elec       q    Type
REMARK                         _______ _______ _______ _____ _____    ______ ____
ROOT
ATOM      1  C   UNL     1      -1.192   7.382   0.050  0.00  0.00    +0.044 C 
ATOM      2  C   UNL     1      -1.088   5.902  -0.213  0.00  0.00    -0.045 A 
ATOM      3  C   UNL     1      -1.216   5.417  -1.502  0.00  0.00    +0.038 A 
ATOM      4  C   UNL     1      -1.120   4.062  -1.737  0.00  0.00    +0.147 A 
ATOM      5  C   UNL     1      -0.895   3.178  -0.683  0.00  0.00    +0.062 A 
ATOM      6  C   UNL     1      -0.764   3.664   0.607  0.00  0.00    -0.014 A 
ATOM      7  C   UNL     1      -0.864   5.030   0.833  0.00  0.00    -0.042 A 
ATOM      8  C   UNL     1      -0.726   5.566   2.235  0.00  0.00    +0.044 C 
ATOM      9  C   UNL     1      -0.513   2.772   1.786  0.00  0.00    +0.049 C 
ATOM     10  C   UNL     1       0.907   2.926   2.279  0.00  0.00    -0.023 C 
ATOM     11  C   UNL     1       1.398   1.765   2.634  0.00  0.00    -0.030 C 
ATOM     12  C   UNL     1       0.369   0.670   2.436  0.00  0.00    +0.033 C 
ATOM     13  C   UNL     1      -0.618   1.280   1.400  0.00  0.00    +0.029 C 
ATOM     14  C   UNL     1      -0.013   1.086   0.008  0.00  0.00    +0.105 C 
ATOM     15  N   UNL     1      -0.810   1.817  -0.977  0.00  0.00    -0.335 N 
ATOM     16  H   UNL     1      -1.728   1.411  -1.073  0.00  0.00    +0.147 HD
ENDROOT
BRANCH  14  17
ATOM     17  C   UNL     1       1.401   1.607  -0.003  0.00  0.00    -0.026 A 
ATOM     18  C   UNL     1       1.670   2.865  -0.510  0.00  0.00    +0.005 A 
ATOM     19  C   UNL     1       2.966   3.346  -0.516  0.00  0.00    +0.002 A 
ATOM     20  C   UNL     1       3.995   2.566  -0.024  0.00  0.00    +0.020 A 
ATOM     21  C   UNL     1       3.728   1.305   0.479  0.00  0.00    +0.041 A 
ATOM     22  C   UNL     1       2.429   0.826   0.489  0.00  0.00    +0.025 A 
ATOM     23 CL   UNL     1       5.020   0.324   1.096  0.00  0.00    -0.084 Cl
ENDBRANCH  14  17
BRANCH   4  24
ATOM     24  N   UNL     1      -1.257   3.544  -3.116  0.00  0.00    +0.058 N 
ATOM     25  O   UNL     1      -1.453   4.313  -4.040  0.00  0.00    -0.126 OA
ATOM     26  O   UNL     1      -1.173   2.347  -3.328  0.00  0.00    -0.126 OA
ENDBRANCH   4  24
TORSDOF 2
