REMARK  Name = ZINC39654616
REMARK  9 active torsions:
REMARK  status: ('A' for Active; 'I' for Inactive)
REMARK    1  A    between atoms: C_1  and  C_2
REMARK    2  A    between atoms: C_2  and  C_3
REMARK    3  A    between atoms: C_6  and  C_9
REMARK    4  A    between atoms: C_9  and  C_10
REMARK    5  A    between atoms: C_10  and  N_11
REMARK    6  A    between atoms: C_12  and  C_14
REMARK    7  A    between atoms: C_25  and  C_27
REMARK    8  A    between atoms: C_28  and  C_33
REMARK    9  A    between atoms: C_31  and  C_32
REMARK                            x       y       z     vdW  Elec       q    Type
REMARK                         _______ _______ _______ _____ _____    ______ ____
ROOT
ATOM      1  C   UNL     1       5.056  -0.741  -8.911  0.00  0.00    +0.100 C 
ATOM      2  C   UNL     1       4.120  -1.649  -9.741  0.00  0.00    +0.121 C 
ATOM      3  N   UNL     1       3.513  -0.743 -10.744  0.00  0.00    -0.296 N 
ATOM      4  C   UNL     1       4.621   0.156 -11.147  0.00  0.00    +0.115 C 
ATOM      5  C   UNL     1       5.385   0.440  -9.839  0.00  0.00    -0.004 C 
ATOM      6  C   UNL     1       4.901   1.748  -9.220  0.00  0.00    -0.010 C 
ATOM      7  C   UNL     1       5.290   2.914 -10.134  0.00  0.00    -0.082 C 
ATOM      8  N   UNL     1       6.748   2.939 -10.304  0.00  0.00    +0.379 N 
ATOM      9  C   UNL     1       7.194   1.717 -10.984  0.00  0.00    -0.082 C 
ATOM     10  C   UNL     1       6.886   0.501 -10.106  0.00  0.00    -0.010 C 
ATOM     11  C   UNL     1       2.241  -0.738 -11.190  0.00  0.00    +0.252 C 
ATOM     12  O   UNL     1       1.893   0.076 -12.024  0.00  0.00    -0.270 OA
ATOM     13  H   UNL     1       7.007   3.743 -10.857  0.00  0.00    -0.086 HD
ATOM     14  H   UNL     1       7.190   3.000  -9.399  0.00  0.00    -0.086 HD
ENDROOT
BRANCH  11  15
ATOM     15  C   UNL     1       1.273  -1.718 -10.666  0.00  0.00    +0.101 A 
ATOM     16  C   UNL     1       0.399  -1.546  -9.505  0.00  0.00    +0.093 A 
ATOM     17  N   UNL     1      -0.296  -2.639  -9.384  0.00  0.00    -0.083 NA
ATOM     18  O   UNL     1       0.078  -3.531 -10.414  0.00  0.00    -0.359 OA
ATOM     19  C   UNL     1       1.014  -2.959 -11.175  0.00  0.00    +0.147 A 
ATOM     20  C   UNL     1       1.674  -3.575 -12.382  0.00  0.00    +0.090 C 
ATOM     21  C   UNL     1       0.319  -0.332  -8.617  0.00  0.00    +0.070 C 
ENDBRANCH  11  15
BRANCH   1  23
ATOM     22  N   UNL     1       5.065   0.104  -6.586  0.00  0.00    -0.315 N 
ATOM     23  C   UNL     1       4.351  -0.254  -7.671  0.00  0.00    +0.218 C 
ATOM     24  O   UNL     1       3.140  -0.185  -7.650  0.00  0.00    -0.275 OA
ATOM     25  H   UNL     1       6.034   0.048  -6.603  0.00  0.00    +0.149 HD
BRANCH  22  26
ATOM     26  C   UNL     1       4.380   0.577  -5.381  0.00  0.00    +0.109 C 
BRANCH  26  27
ATOM     27  C   UNL     1       5.414   0.915  -4.306  0.00  0.00    +0.054 C 
BRANCH  27  31
ATOM     28  C   UNL     1       3.417   2.296  -0.791  0.00  0.00    -0.048 A 
ATOM     29  C   UNL     1       3.682   0.949  -0.951  0.00  0.00    +0.004 A 
ATOM     30  C   UNL     1       4.328   0.502  -2.089  0.00  0.00    +0.004 A 
ATOM     31  C   UNL     1       4.709   1.402  -3.066  0.00  0.00    -0.046 A 
ATOM     32  C   UNL     1       4.443   2.749  -2.906  0.00  0.00    +0.004 A 
ATOM     33  C   UNL     1       3.793   3.196  -1.770  0.00  0.00    +0.004 A 
BRANCH  28  35
ATOM     34  C   UNL     1       1.201   2.769   0.216  0.00  0.00    +0.009 C 
ATOM     35  C   UNL     1       2.713   2.783   0.449  0.00  0.00    +0.032 C 
ENDBRANCH  28  35
ENDBRANCH  27  31
ENDBRANCH  26  27
ENDBRANCH  22  26
ENDBRANCH   1  23
TORSDOF 6
