REMARK  Name = ZINC38671206
REMARK  8 active torsions:
REMARK  status: ('A' for Active; 'I' for Inactive)
REMARK    1  A    between atoms: C_1  and  C_2
REMARK    2  A    between atoms: C_4  and  S_10
REMARK    3  A    between atoms: S_10  and  N_13
REMARK    4  A    between atoms: N_13  and  C_14
REMARK    5  A    between atoms: C_14  and  C_15
REMARK    6  A    between atoms: C_15  and  C_17
REMARK    7  A    between atoms: C_15  and  N_28
REMARK    8  A    between atoms: N_26  and  C_27
REMARK                            x       y       z     vdW  Elec       q    Type
REMARK                         _______ _______ _______ _____ _____    ______ ____
ROOT
ATOM      1  C   UNL     1       2.949  -5.563  -2.544  0.00  0.00    -0.022 C 
ENDROOT
BRANCH   1   2
ATOM      2  C   UNL     1       3.327  -6.662  -1.585  0.00  0.00    -0.059 A 
ATOM      3  C   UNL     1       4.125  -6.380  -0.492  0.00  0.00    +0.004 A 
ATOM      4  C   UNL     1       4.472  -7.387   0.385  0.00  0.00    +0.023 A 
ATOM      5  C   UNL     1       4.019  -8.684   0.170  0.00  0.00    +0.033 A 
ATOM      6  C   UNL     1       3.216  -8.966  -0.924  0.00  0.00    -0.026 A 
ATOM      7  C   UNL     1       2.870  -7.949  -1.797  0.00  0.00    +0.007 A 
ATOM      8  C   UNL     1       2.698 -10.356  -1.182  0.00  0.00    +0.038 C 
ATOM      9  C   UNL     1       3.553 -11.391  -0.451  0.00  0.00    +0.024 C 
ATOM     10  C   UNL     1       3.679 -10.979   1.022  0.00  0.00    +0.105 C 
ATOM     11  N   UNL     1       4.386  -9.692   1.069  0.00  0.00    -0.333 N 
ATOM     12  C   UNL     1       5.460  -9.468   2.041  0.00  0.00    +0.129 C 
ENDBRANCH   1   2
BRANCH   1  13
ATOM     13  N   UNL     1       4.107  -4.688  -2.767  0.00  0.00    +0.385 N 
ATOM     14  C   UNL     1       3.754  -3.649  -3.743  0.00  0.00    -0.078 C 
ATOM     15  C   UNL     1       4.931  -2.687  -3.917  0.00  0.00    -0.019 C 
ATOM     16  C   UNL     1       6.150  -3.466  -4.418  0.00  0.00    -0.004 C 
ATOM     17  C   UNL     1       6.465  -4.593  -3.430  0.00  0.00    -0.019 C 
ATOM     18  C   UNL     1       5.231  -5.485  -3.273  0.00  0.00    -0.078 C 
ATOM     19  H   UNL     1       4.371  -4.252  -1.896  0.00  0.00    -0.081 HD
ENDBRANCH   1  13
BRANCH   1  20
ATOM     20  C   UNL     1       1.798  -4.745  -1.955  0.00  0.00    +0.095 C 
BRANCH  20  21
ATOM     21  N   UNL     1       0.611  -5.595  -1.825  0.00  0.00    -0.191 NA
ATOM     22  H   UNL     1       0.569  -6.442  -2.294  0.00  0.00    +0.148 HD
BRANCH  21  23
ATOM     23  S   UNL     1      -0.656  -5.107  -0.878  0.00  0.00    +0.060 S 
ATOM     24  O   UNL     1      -0.102  -4.704   0.367  0.00  0.00    -0.153 OA
ATOM     25  O   UNL     1      -1.650  -6.118  -0.978  0.00  0.00    -0.153 OA
BRANCH  23  29
ATOM     26  C   UNL     1      -4.554  -2.570  -3.262  0.00  0.00    +0.045 C 
ATOM     27  C   UNL     1      -3.153  -2.546  -2.709  0.00  0.00    -0.030 A 
ATOM     28  C   UNL     1      -2.620  -3.681  -2.127  0.00  0.00    +0.034 A 
ATOM     29  C   UNL     1      -1.335  -3.660  -1.620  0.00  0.00    +0.124 A 
ATOM     30  C   UNL     1      -0.580  -2.502  -1.693  0.00  0.00    +0.069 A 
ATOM     31  C   UNL     1      -1.113  -1.366  -2.275  0.00  0.00    +0.042 A 
ATOM     32  C   UNL     1      -2.398  -1.389  -2.788  0.00  0.00    +0.045 A 
ATOM     33 CL   UNL     1      -3.065   0.035  -3.523  0.00  0.00    -0.083 Cl
ATOM     34 CL   UNL     1       1.034  -2.475  -1.055  0.00  0.00    -0.081 Cl
ENDBRANCH  23  29
ENDBRANCH  21  23
ENDBRANCH  20  21
ENDBRANCH   1  20
TORSDOF 6
