REMARK  Name = ZINC67373002
REMARK  7 active torsions:
REMARK  status: ('A' for Active; 'I' for Inactive)
REMARK    1  A    between atoms: C_6  and  C_11
REMARK    2  A    between atoms: C_11  and  C_13
REMARK    3  A    between atoms: C_11  and  O_27
REMARK    4  A    between atoms: C_13  and  N_14
REMARK    5  A    between atoms: N_14  and  C_15
REMARK    6  A    between atoms: C_18  and  C_24
REMARK    7  A    between atoms: C_20  and  N_21
REMARK                            x       y       z     vdW  Elec       q    Type
REMARK                         _______ _______ _______ _____ _____    ______ ____
ROOT
ATOM      1  N   UNL     1       6.638  -3.865   1.345  0.00  0.00    -0.339 N 
ATOM      2  H   UNL     1       7.082  -4.046   0.502  0.00  0.00    +0.146 HD
ENDROOT
BRANCH   1   3
ATOM      3  C   UNL     1       7.192  -4.322   2.535  0.00  0.00    +0.058 A 
ATOM      4  C   UNL     1       6.495  -4.170   3.731  0.00  0.00    +0.026 A 
ATOM      5  C   UNL     1       7.041  -4.621   4.910  0.00  0.00    +0.015 A 
ATOM      6  C   UNL     1       8.298  -5.233   4.907  0.00  0.00    +0.039 A 
ATOM      7  C   UNL     1       8.996  -5.384   3.706  0.00  0.00    +0.047 A 
ATOM      8  C   UNL     1       8.442  -4.935   2.529  0.00  0.00    +0.148 A 
BRANCH   6   9
ATOM      9  C   UNL     1       8.887  -5.718   6.170  0.00  0.00    +0.242 C 
ATOM     10  O   UNL     1       9.980  -6.250   6.166  0.00  0.00    -0.270 OA
ATOM     11  N   UNL     1       8.213  -5.571   7.328  0.00  0.00    -0.325 N 
ATOM     12  H   UNL     1       7.341  -5.146   7.331  0.00  0.00    +0.145 HD
ATOM     13  H   UNL     1       8.600  -5.890   8.158  0.00  0.00    +0.145 HD
ENDBRANCH   6   9
BRANCH   8  14
ATOM     14  N   UNL     1       9.178  -5.100   1.255  0.00  0.00    +0.058 N 
ATOM     15  O   UNL     1       9.825  -6.102   1.056  0.00  0.00    -0.126 OA
ATOM     16  O   UNL     1       9.131  -4.233   0.413  0.00  0.00    -0.126 OA
ENDBRANCH   8  14
ENDBRANCH   1   3
BRANCH   1  17
ATOM     17  C   UNL     1       5.382  -3.110   1.364  0.00  0.00    +0.137 C 
BRANCH  17  18
ATOM     18  C   UNL     1       4.994  -2.729  -0.066  0.00  0.00    +0.161 C 
BRANCH  18  24
ATOM     19  C   UNL     1       0.495   1.905  -0.078  0.00  0.00    +0.001 A 
ATOM     20  C   UNL     1       1.753   2.483  -0.232  0.00  0.00    +0.001 A 
ATOM     21  C   UNL     1       2.878   1.718  -0.262  0.00  0.00    +0.008 A 
ATOM     22  C   UNL     1       2.773   0.322  -0.136  0.00  0.00    -0.018 A 
ATOM     23  C   UNL     1       3.911  -0.501  -0.162  0.00  0.00    +0.014 A 
ATOM     24  C   UNL     1       3.771  -1.849  -0.037  0.00  0.00    -0.017 A 
ATOM     25  C   UNL     1       2.512  -2.428   0.118  0.00  0.00    +0.007 A 
ATOM     26  C   UNL     1       1.388  -1.662   0.148  0.00  0.00    +0.009 A 
ATOM     27  C   UNL     1       1.493  -0.267   0.021  0.00  0.00    -0.018 A 
ATOM     28  C   UNL     1       0.354   0.557   0.047  0.00  0.00    +0.008 A 
ENDBRANCH  18  24
BRANCH  18  29
ATOM     29  O   UNL     1       4.712  -3.913  -0.814  0.00  0.00    -0.386 OA
ATOM     30  H   UNL     1       3.988  -4.443  -0.454  0.00  0.00    +0.210 HD
ENDBRANCH  18  29
ENDBRANCH  17  18
ENDBRANCH   1  17
TORSDOF 7
