REMARK  Name = ZINC09257254
REMARK  8 active torsions:
REMARK  status: ('A' for Active; 'I' for Inactive)
REMARK    1  A    between atoms: C_1  and  C_2
REMARK    2  A    between atoms: C_2  and  C_3
REMARK    3  A    between atoms: C_3  and  C_27
REMARK    4  A    between atoms: N_6  and  C_10
REMARK    5  A    between atoms: C_10  and  N_63
REMARK    6  A    between atoms: N_14  and  S_17
REMARK    7  A    between atoms: S_17  and  C_20
REMARK    8  A    between atoms: C_23  and  C_26
REMARK                            x       y       z     vdW  Elec       q    Type
REMARK                         _______ _______ _______ _____ _____    ______ ____
ROOT
ATOM      1  C   UNL     1      -2.208   0.662  -4.146  0.00  0.00    -0.075 C 
ATOM      2  C   UNL     1      -1.443  -0.641  -4.207  0.00  0.00    -0.001 C 
ATOM      3  C   UNL     1      -1.763  -1.367  -5.524  0.00  0.00    +0.107 C 
ATOM      4  N   UNL     1      -3.194  -1.251  -5.866  0.00  0.00    -0.178 NA
ATOM      5  C   UNL     1      -4.245  -1.381  -4.876  0.00  0.00    +0.091 C 
ATOM      6  C   UNL     1      -4.560   0.007  -4.266  0.00  0.00    -0.059 C 
ATOM      7  N   UNL     1      -3.476   0.403  -3.401  0.00  0.00    +0.391 N 
ATOM      8  H   UNL     1      -3.307  -0.359  -2.734  0.00  0.00    -0.079 HD
ENDROOT
BRANCH   4   9
ATOM      9  S   UNL     1      -3.616  -0.961  -7.441  0.00  0.00    +0.061 S 
ATOM     10  O   UNL     1      -2.538  -1.425  -8.242  0.00  0.00    -0.153 OA
ATOM     11  O   UNL     1      -4.944  -1.440  -7.601  0.00  0.00    -0.153 OA
BRANCH   9  12
ATOM     12  C   UNL     1      -3.682   0.787  -7.649  0.00  0.00    +0.105 A 
ATOM     13  C   UNL     1      -4.866   1.465  -7.428  0.00  0.00    +0.029 A 
ATOM     14  C   UNL     1      -4.917   2.837  -7.587  0.00  0.00    +0.005 A 
ATOM     15  C   UNL     1      -3.786   3.530  -7.977  0.00  0.00    -0.050 A 
ATOM     16  C   UNL     1      -2.603   2.852  -8.203  0.00  0.00    +0.005 A 
ATOM     17  C   UNL     1      -2.551   1.480  -8.039  0.00  0.00    +0.029 A 
ATOM     18  C   UNL     1      -3.842   5.026  -8.155  0.00  0.00    +0.044 C 
ENDBRANCH   9  12
ENDBRANCH   4   9
BRANCH   7  19
ATOM     19  C   UNL     1      -3.858   1.607  -2.655  0.00  0.00    +0.043 C 
BRANCH  19  23
ATOM     20  C   UNL     1      -1.332   2.114   0.020  0.00  0.00    +0.138 C 
ATOM     21  C   UNL     1      -1.838   2.321  -1.394  0.00  0.00    +0.249 C 
ATOM     22  O   UNL     1      -1.296   2.943  -2.282  0.00  0.00    -0.272 OA
ATOM     23  N   UNL     1      -3.015   1.668  -1.458  0.00  0.00    -0.241 N 
ATOM     24  C   UNL     1      -3.320   1.083  -0.294  0.00  0.00    +0.308 C 
ATOM     25  O   UNL     1      -4.332   0.437  -0.107  0.00  0.00    -0.252 OA
ATOM     26  N   UNL     1      -2.380   1.293   0.650  0.00  0.00    -0.281 N 
ATOM     27  H   UNL     1      -2.390   0.967   1.564  0.00  0.00    +0.152 HD
BRANCH  20  28
ATOM     28  C   UNL     1      -0.017   1.378   0.010  0.00  0.00    -0.015 A 
ATOM     29  C   UNL     1       1.171   2.086   0.002  0.00  0.00    +0.006 A 
ATOM     30  C   UNL     1       2.377   1.411  -0.015  0.00  0.00    +0.000 A 
ATOM     31  C   UNL     1       2.396   0.029  -0.022  0.00  0.00    +0.000 A 
ATOM     32  C   UNL     1       1.208  -0.679  -0.013  0.00  0.00    +0.000 A 
ATOM     33  C   UNL     1       0.002  -0.004   0.002  0.00  0.00    +0.006 A 
ENDBRANCH  20  28
BRANCH  20  35
ATOM     34  C   UNL     1      -2.563   4.124   0.849  0.00  0.00    +0.007 C 
ATOM     35  C   UNL     1      -1.191   3.455   0.743  0.00  0.00    +0.037 C 
ENDBRANCH  20  35
ENDBRANCH  19  23
ENDBRANCH   7  19
TORSDOF 6
