REMARK  Name = ZINC09578645
REMARK  9 active torsions:
REMARK  status: ('A' for Active; 'I' for Inactive)
REMARK    1  A    between atoms: C_1  and  C_2
REMARK    2  A    between atoms: C_2  and  C_26
REMARK    3  A    between atoms: N_5  and  N_9
REMARK    4  A    between atoms: C_10  and  C_12
REMARK    5  A    between atoms: C_12  and  S_13
REMARK    6  A    between atoms: S_13  and  C_14
REMARK    7  A    between atoms: C_17  and  C_20
REMARK    8  A    between atoms: N_18  and  C_19
REMARK    9  A    between atoms: C_20  and  C_21
REMARK                            x       y       z     vdW  Elec       q    Type
REMARK                         _______ _______ _______ _____ _____    ______ ____
ROOT
ATOM      1  N   UNL     1       1.700   3.228   0.002  0.00  0.00    -0.223 N 
ATOM      2  C   UNL     1       2.204   3.773   1.127  0.00  0.00    +0.240 C 
ATOM      3  O   UNL     1       2.287   3.108   2.138  0.00  0.00    -0.273 OA
ATOM      4  H   UNL     1       1.633   3.760  -0.806  0.00  0.00    +0.174 HD
ENDROOT
BRANCH   1   9
ATOM      5  C   UNL     1      -0.666  -0.558   1.262  0.00  0.00    +0.047 C 
ATOM      6  C   UNL     1       0.002  -0.004   0.002  0.00  0.00    +0.137 C 
ATOM      7  C   UNL     1      -0.018   1.512   0.010  0.00  0.00    +0.267 C 
ATOM      8  O   UNL     1      -0.995   2.231   0.019  0.00  0.00    -0.271 OA
ATOM      9  N   UNL     1       1.274   1.894   0.000  0.00  0.00    -0.137 N 
ATOM     10  C   UNL     1       2.099   0.841  -0.013  0.00  0.00    +0.327 C 
ATOM     11  O   UNL     1       3.311   0.933  -0.025  0.00  0.00    -0.251 OA
ATOM     12  N   UNL     1       1.438  -0.331  -0.013  0.00  0.00    -0.280 N 
ATOM     13  H   UNL     1       1.831  -1.218  -0.022  0.00  0.00    +0.152 HD
BRANCH   6  14
ATOM     14  C   UNL     1      -0.676  -0.537  -1.234  0.00  0.00    -0.015 A 
ATOM     15  C   UNL     1      -1.704   0.177  -1.820  0.00  0.00    +0.006 A 
ATOM     16  C   UNL     1      -2.323  -0.309  -2.956  0.00  0.00    +0.000 A 
ATOM     17  C   UNL     1      -1.921  -1.514  -3.501  0.00  0.00    +0.000 A 
ATOM     18  C   UNL     1      -0.896  -2.231  -2.911  0.00  0.00    +0.000 A 
ATOM     19  C   UNL     1      -0.274  -1.742  -1.778  0.00  0.00    +0.006 A 
ENDBRANCH   6  14
ENDBRANCH   1   9
BRANCH   2  20
ATOM     20  C   UNL     1       2.662   5.208   1.130  0.00  0.00    +0.174 C 
BRANCH  20  21
ATOM     21  S   UNL     1       3.282   5.641   2.775  0.00  0.00    -0.077 S 
BRANCH  21  22
ATOM     22  C   UNL     1       3.736   7.321   2.498  0.00  0.00    +0.192 A 
ATOM     23  N   UNL     1       3.624   7.985   1.371  0.00  0.00    -0.122 NA
ATOM     24  N   UNL     1       4.049   9.187   1.528  0.00  0.00    -0.133 NA
ATOM     25  C   UNL     1       4.462   9.359   2.752  0.00  0.00    +0.139 A 
ATOM     26  N   UNL     1       4.278   8.177   3.414  0.00  0.00    -0.309 N 
ATOM     27  C   UNL     1       4.595   7.888   4.814  0.00  0.00    +0.152 C 
BRANCH  25  28
ATOM     28  C   UNL     1       5.036  10.627   3.331  0.00  0.00    +0.118 C 
BRANCH  28  29
ATOM     29  C   UNL     1       6.531  10.633   3.143  0.00  0.00    -0.003 A 
ATOM     30  C   UNL     1       7.259  11.115   2.106  0.00  0.00    +0.011 A 
ATOM     31  C   UNL     1       8.637  11.012   2.149  0.00  0.00    +0.008 A 
ATOM     32  C   UNL     1       9.219  10.431   3.226  0.00  0.00    +0.045 A 
ATOM     33  S   UNL     1       7.804  10.014   4.231  0.00  0.00    -0.101 S 
ENDBRANCH  28  29
ENDBRANCH  25  28
ENDBRANCH  21  22
ENDBRANCH  20  21
ENDBRANCH   2  20
TORSDOF 7
