REMARK  Name = ZINC13339570
REMARK  7 active torsions:
REMARK  status: ('A' for Active; 'I' for Inactive)
REMARK    1  A    between atoms: C_1  and  N_54
REMARK    2  A    between atoms: C_4  and  C_31
REMARK    3  A    between atoms: C_14  and  C_15
REMARK    4  A    between atoms: C_18  and  C_20
REMARK    5  A    between atoms: C_25  and  C_26
REMARK    6  A    between atoms: C_26  and  O_28
REMARK    7  A    between atoms: O_28  and  C_29
REMARK                            x       y       z     vdW  Elec       q    Type
REMARK                         _______ _______ _______ _____ _____    ______ ____
ROOT
ATOM      1  C   UNL     1       8.432   1.752   1.496  0.00  0.00    -0.095 C 
ATOM      2  C   UNL     1       6.171   2.079   0.704  0.00  0.00    -0.040 C 
ATOM      3  C   UNL     1       4.855   1.421   0.395  0.00  0.00    -0.024 A 
ATOM      4  C   UNL     1       3.700   2.189   0.360  0.00  0.00    +0.076 A 
ATOM      5  C   UNL     1       2.444   1.506   0.047  0.00  0.00    +0.015 A 
ATOM      6  C   UNL     1       1.231   2.199  -0.011  0.00  0.00    +0.011 A 
ATOM      7  C   UNL     1       0.082   1.525  -0.308  0.00  0.00    +0.001 A 
ATOM      8  C   UNL     1       0.102   0.154  -0.553  0.00  0.00    +0.002 A 
ATOM      9  C   UNL     1       1.266  -0.551  -0.504  0.00  0.00    +0.028 A 
ATOM     10  C   UNL     1       2.471   0.110  -0.201  0.00  0.00    +0.072 A 
ATOM     11  N   UNL     1       3.625  -0.554  -0.146  0.00  0.00    -0.247 NA
ATOM     12  C   UNL     1       4.772   0.039   0.135  0.00  0.00    +0.068 A 
ATOM     13  C   UNL     1       6.012  -0.764   0.184  0.00  0.00    -0.035 C 
ATOM     14  C   UNL     1       5.979  -2.114   0.172  0.00  0.00    +0.050 C 
ATOM     15  C   UNL     1       7.322  -0.006   0.248  0.00  0.00    -0.041 C 
ATOM     16  N   UNL     1       7.137   1.094   1.226  0.00  0.00    +0.383 N 
ATOM     17  H   UNL     1       6.772   0.702   2.102  0.00  0.00    -0.081 HD
ENDROOT
BRANCH  14  18
ATOM     18  C   UNL     1       7.220  -2.875   0.047  0.00  0.00    +0.129 A 
ATOM     19  C   UNL     1       7.345  -4.246   0.153  0.00  0.00    +0.050 A 
ATOM     20  C   UNL     1       8.698  -4.544  -0.033  0.00  0.00    +0.050 A 
ATOM     21  C   UNL     1       9.345  -3.359  -0.242  0.00  0.00    +0.136 A 
ATOM     22  O   UNL     1       8.442  -2.361  -0.196  0.00  0.00    -0.455 OA
BRANCH  21  23
ATOM     23  C   UNL     1      10.789  -3.200  -0.483  0.00  0.00    +0.031 A 
ATOM     24  C   UNL     1      11.716  -3.809   0.366  0.00  0.00    +0.012 A 
ATOM     25  C   UNL     1      13.066  -3.656   0.135  0.00  0.00    +0.001 A 
ATOM     26  C   UNL     1      13.516  -2.901  -0.937  0.00  0.00    +0.001 A 
ATOM     27  C   UNL     1      12.619  -2.291  -1.788  0.00  0.00    +0.016 A 
ATOM     28  C   UNL     1      11.247  -2.436  -1.577  0.00  0.00    +0.070 A 
BRANCH  28  29
ATOM     29  C   UNL     1      10.284  -1.792  -2.487  0.00  0.00    +0.340 C 
ATOM     30  O   UNL     1       9.091  -1.917  -2.297  0.00  0.00    -0.245 OA
BRANCH  29  31
ATOM     31  O   UNL     1      10.727  -1.063  -3.531  0.00  0.00    -0.464 OA
ATOM     32  C   UNL     1       9.722  -0.457  -4.386  0.00  0.00    +0.280 C 
ENDBRANCH  29  31
ENDBRANCH  28  29
ENDBRANCH  21  23
ENDBRANCH  14  18
BRANCH   4  33
ATOM     33  C   UNL     1       3.737   3.641   0.630  0.00  0.00    +0.387 C 
ATOM     34  O   UNL     1       3.906   4.424  -0.283  0.00  0.00    -0.241 OA
ATOM     35  O   UNL     1       3.583   4.097   1.888  0.00  0.00    -0.241 OA
ENDBRANCH   4  33
TORSDOF 5
