REMARK  Name = ZINC11859246
REMARK  8 active torsions:
REMARK  status: ('A' for Active; 'I' for Inactive)
REMARK    1  A    between atoms: C_1  and  N_2
REMARK    2  A    between atoms: N_2  and  C_3
REMARK    3  A    between atoms: N_2  and  C_4
REMARK    4  A    between atoms: C_7  and  C_10
REMARK    5  A    between atoms: C_12  and  C_24
REMARK    6  A    between atoms: C_14  and  C_19
REMARK    7  A    between atoms: C_14  and  O_23
REMARK    8  A    between atoms: C_24  and  C_26
REMARK                            x       y       z     vdW  Elec       q    Type
REMARK                         _______ _______ _______ _____ _____    ______ ____
ROOT
ATOM      1  C   UNL     1       0.002   0.822  -0.007  0.00  0.00    +0.120 C 
ATOM      2  C   UNL     1       1.420   1.392  -0.119  0.00  0.00    +0.144 C 
ATOM      3  C   UNL     1       2.095   1.294   1.253  0.00  0.00    +0.243 C 
ATOM      4  N   UNL     1       1.264   1.974   2.247  0.00  0.00    -0.264 N 
ATOM      5  C   UNL     1      -0.068   2.051   2.107  0.00  0.00    +0.302 C 
ATOM      6  O   UNL     1      -0.714   2.617   2.967  0.00  0.00    -0.253 OA
ATOM      7  N   UNL     1      -0.716   1.527   1.055  0.00  0.00    -0.292 N 
ATOM      8  H   UNL     1       1.684   2.376   3.023  0.00  0.00    +0.153 HD
ATOM      9  H   UNL     1      -1.680   1.618   0.998  0.00  0.00    +0.151 HD
ENDROOT
BRANCH   1  13
ATOM     10  C   UNL     1      -2.048   1.354  -3.719  0.00  0.00    +0.029 A 
ATOM     11  C   UNL     1      -1.402   0.154  -3.446  0.00  0.00    +0.023 A 
ATOM     12  C   UNL     1      -0.741  -0.014  -2.246  0.00  0.00    +0.007 A 
ATOM     13  C   UNL     1      -0.721   1.010  -1.316  0.00  0.00    -0.026 A 
ATOM     14  C   UNL     1      -1.368   2.202  -1.582  0.00  0.00    +0.007 A 
ATOM     15  C   UNL     1      -2.026   2.380  -2.783  0.00  0.00    +0.023 A 
BRANCH  10  17
ATOM     16  C   UNL     1      -2.742   0.444  -5.918  0.00  0.00    +0.129 C 
ATOM     17  N   UNL     1      -2.719   1.527  -4.932  0.00  0.00    -0.336 N 
ATOM     18  C   UNL     1      -3.400   2.792  -5.218  0.00  0.00    +0.129 C 
ENDBRANCH  10  17
ENDBRANCH   1  13
BRANCH   3  19
ATOM     19  C   UNL     1       3.471   1.961   1.195  0.00  0.00    +0.436 C 
ATOM     20  F   UNL     1       3.314   3.335   0.980  0.00  0.00    -0.166 F 
ATOM     21  F   UNL     1       4.142   1.752   2.404  0.00  0.00    -0.166 F 
ATOM     22  F   UNL     1       4.214   1.407   0.147  0.00  0.00    -0.166 F 
ENDBRANCH   3  19
BRANCH   3  23
ATOM     23  O   UNL     1       2.245  -0.080   1.614  0.00  0.00    -0.364 OA
ATOM     24  H   UNL     1       2.666  -0.217   2.474  0.00  0.00    +0.212 HD
ENDBRANCH   3  23
BRANCH   2  25
ATOM     25  C   UNL     1       1.353   2.835  -0.548  0.00  0.00    +0.173 C 
ATOM     26  O   UNL     1       0.846   3.661   0.180  0.00  0.00    -0.292 OA
BRANCH  25  27
ATOM     27  C   UNL     1       1.904   3.241  -1.851  0.00  0.00    +0.018 A 
ATOM     28  C   UNL     1       2.370   2.276  -2.750  0.00  0.00    +0.011 A 
ATOM     29  C   UNL     1       2.879   2.665  -3.971  0.00  0.00    +0.001 A 
ATOM     30  C   UNL     1       2.940   4.007  -4.304  0.00  0.00    +0.000 A 
ATOM     31  C   UNL     1       2.485   4.968  -3.418  0.00  0.00    +0.001 A 
ATOM     32  C   UNL     1       1.968   4.596  -2.196  0.00  0.00    +0.011 A 
ENDBRANCH  25  27
ENDBRANCH   2  25
TORSDOF 6
