REMARK  Name = ZINC03035472
REMARK  4 active torsions:
REMARK  status: ('A' for Active; 'I' for Inactive)
REMARK    1  A    between atoms: C_1  and  C_2
REMARK    2  A    between atoms: C_10  and  C_11
REMARK    3  A    between atoms: N_13  and  C_14
REMARK    4  A    between atoms: C_20  and  C_22
REMARK                            x       y       z     vdW  Elec       q    Type
REMARK                         _______ _______ _______ _____ _____    ______ ____
ROOT
ATOM      1  C   UNL     1      -0.013   1.086   0.008  0.00  0.00    +0.066 C 
ATOM      2  C   UNL     1      -0.718   1.572   1.248  0.00  0.00    +0.047 A 
ATOM      3  C   UNL     1      -2.063   1.788   1.232  0.00  0.00    -0.005 A 
ATOM      4  C   UNL     1      -2.697   2.228   2.393  0.00  0.00    +0.049 A 
ATOM      5  N   UNL     1      -1.985   2.445   3.485  0.00  0.00    -0.232 NA
ATOM      6  C   UNL     1      -0.669   2.244   3.505  0.00  0.00    +0.168 A 
ATOM      7  N   UNL     1      -0.015   1.804   2.390  0.00  0.00    -0.218 N 
ATOM      8  N   UNL     1       1.343   1.681   2.702  0.00  0.00    -0.172 NA
ATOM      9  C   UNL     1       1.538   2.027   3.947  0.00  0.00    +0.150 A 
ATOM     10  C   UNL     1       0.304   2.395   4.512  0.00  0.00    +0.100 A 
ATOM     11  C   UNL     1      -4.182   2.472   2.456  0.00  0.00    +0.056 C 
ATOM     12  C   UNL     1      -4.763   2.600   1.049  0.00  0.00    +0.006 C 
ATOM     13  C   UNL     1      -4.308   1.393   0.222  0.00  0.00    +0.005 C 
ATOM     14  C   UNL     1      -2.810   1.528  -0.049  0.00  0.00    +0.039 C 
ENDROOT
BRANCH  10  15
ATOM     15  C   UNL     1       0.074   2.849   5.887  0.00  0.00    +0.249 C 
ATOM     16  O   UNL     1      -1.050   3.140   6.252  0.00  0.00    -0.270 OA
ATOM     17  N   UNL     1       1.107   2.945   6.746  0.00  0.00    -0.308 N 
ATOM     18  H   UNL     1       2.003   2.714   6.455  0.00  0.00    +0.149 HD
BRANCH  17  19
ATOM     19  C   UNL     1       0.878   3.399   8.120  0.00  0.00    +0.076 C 
ATOM     20  C   UNL     1       0.458   2.210   8.987  0.00  0.00    +0.022 C 
ATOM     21  C   UNL     1       0.218   2.684  10.421  0.00  0.00    +0.002 C 
ATOM     22  C   UNL     1       1.506   3.292  10.980  0.00  0.00    +0.000 C 
ATOM     23  C   UNL     1       1.926   4.481  10.113  0.00  0.00    +0.005 C 
ATOM     24  C   UNL     1       2.166   4.007   8.678  0.00  0.00    +0.006 C 
ATOM     25  C   UNL     1       2.586   5.196   7.812  0.00  0.00    +0.009 C 
ENDBRANCH  17  19
ENDBRANCH  10  15
TORSDOF 2
