REMARK  Name = ZINC19220528
REMARK  7 active torsions:
REMARK  status: ('A' for Active; 'I' for Inactive)
REMARK    1  A    between atoms: C_1  and  C_2
REMARK    2  A    between atoms: C_8  and  C_12
REMARK    3  A    between atoms: C_12  and  C_14
REMARK    4  A    between atoms: C_12  and  O_33
REMARK    5  A    between atoms: C_14  and  N_15
REMARK    6  A    between atoms: C_26  and  C_32
REMARK    7  A    between atoms: C_27  and  C_31
REMARK                            x       y       z     vdW  Elec       q    Type
REMARK                         _______ _______ _______ _____ _____    ______ ____
ROOT
ATOM      1  N   UNL     1       3.169   6.119   1.440  0.00  0.00    +0.382 N 
ATOM      2  C   UNL     1       4.421   5.769   0.757  0.00  0.00    -0.075 C 
ATOM      3  C   UNL     1       5.306   7.013   0.643  0.00  0.00    +0.030 C 
ATOM      4  C   UNL     1       5.599   7.555   2.044  0.00  0.00    +0.114 C 
ATOM      5  C   UNL     1       4.279   7.864   2.754  0.00  0.00    +0.030 C 
ATOM      6  C   UNL     1       3.424   6.595   2.806  0.00  0.00    -0.075 C 
ATOM      7  C   UNL     1       6.424   8.844   1.927  0.00  0.00    +0.127 C 
ATOM      8  C   UNL     1       6.709   9.323   3.340  0.00  0.00    +0.170 C 
ATOM      9  O   UNL     1       6.671  10.499   3.635  0.00  0.00    -0.292 OA
ATOM     10  C   UNL     1       7.035   8.284   4.333  0.00  0.00    +0.059 A 
ATOM     11  C   UNL     1       7.549   8.631   5.584  0.00  0.00    +0.018 A 
ATOM     12  C   UNL     1       7.841   7.641   6.497  0.00  0.00    -0.047 A 
ATOM     13  C   UNL     1       7.626   6.310   6.176  0.00  0.00    -0.044 A 
ATOM     14  C   UNL     1       7.119   5.956   4.942  0.00  0.00    +0.050 A 
ATOM     15  C   UNL     1       6.820   6.936   4.005  0.00  0.00    +0.132 A 
ATOM     16  O   UNL     1       6.332   6.587   2.792  0.00  0.00    -0.485 OA
ATOM     17  C   UNL     1       7.948   5.238   7.185  0.00  0.00    +0.044 C 
ATOM     18  C   UNL     1       8.397   8.007   7.850  0.00  0.00    +0.044 C 
ATOM     19  H   UNL     1       2.700   6.942   0.880  0.00  0.00    -0.082 HD
ENDROOT
BRANCH   1  20
ATOM     20  C   UNL     1       2.236   4.985   1.443  0.00  0.00    -0.042 C 
BRANCH  20  21
ATOM     21  C   UNL     1       1.801   4.678   0.009  0.00  0.00    +0.130 C 
BRANCH  21  29
ATOM     22  C   UNL     1       3.711  -0.723  -0.037  0.00  0.00    +0.044 C 
ATOM     23  C   UNL     1       2.405   0.029  -0.021  0.00  0.00    -0.050 A 
ATOM     24  C   UNL     1       1.207  -0.672  -0.013  0.00  0.00    +0.005 A 
ATOM     25  C   UNL     1       0.002  -0.004   0.002  0.00  0.00    +0.026 A 
ATOM     26  C   UNL     1      -0.017   1.387   0.010  0.00  0.00    +0.047 A 
ATOM     27  C   UNL     1       1.200   2.093   0.002  0.00  0.00    +0.005 A 
ATOM     28  C   UNL     1       2.410   1.395  -0.013  0.00  0.00    +0.013 A 
ATOM     29  C   UNL     1       0.844   3.514   0.012  0.00  0.00    +0.004 A 
ATOM     30  C   UNL     1      -0.497   3.582   0.025  0.00  0.00    +0.089 A 
ATOM     31  N   UNL     1      -1.028   2.321   0.019  0.00  0.00    -0.360 N 
ATOM     32  H   UNL     1      -2.079   1.995   0.020  0.00  0.00    +0.165 HD
ENDBRANCH  21  29
BRANCH  21  33
ATOM     33  O   UNL     1       1.155   5.824  -0.548  0.00  0.00    -0.389 OA
ATOM     34  H   UNL     1       1.700   6.776  -0.634  0.00  0.00    +0.210 HD
ENDBRANCH  21  33
ENDBRANCH  20  21
ENDBRANCH   1  20
TORSDOF 4
