REMARK  Name = ZINC38611695
REMARK  5 active torsions:
REMARK  status: ('A' for Active; 'I' for Inactive)
REMARK    1  A    between atoms: C_1  and  C_2
REMARK    2  A    between atoms: C_2  and  N_3
REMARK    3  A    between atoms: N_11  and  N_12
REMARK    4  A    between atoms: C_13  and  C_15
REMARK    5  A    between atoms: C_18  and  C_21
REMARK                            x       y       z     vdW  Elec       q    Type
REMARK                         _______ _______ _______ _____ _____    ______ ____
ROOT
ATOM      1  N   UNL     1       0.697  -0.393  -1.237  0.00  0.00    -0.266 N 
ATOM      2  C   UNL     1       0.034  -0.917  -2.342  0.00  0.00    +0.046 A 
ATOM      3  C   UNL     1      -1.319  -1.002  -2.653  0.00  0.00    +0.025 A 
ATOM      4  C   UNL     1      -1.722  -1.583  -3.839  0.00  0.00    +0.017 A 
ATOM      5  C   UNL     1      -0.790  -2.087  -4.731  0.00  0.00    +0.019 A 
ATOM      6  C   UNL     1       0.558  -2.012  -4.438  0.00  0.00    +0.027 A 
ATOM      7  C   UNL     1       0.974  -1.429  -3.246  0.00  0.00    +0.029 A 
ATOM      8  C   UNL     1       2.306  -1.195  -2.642  0.00  0.00    +0.153 C 
ATOM      9  N   UNL     1       3.476  -1.513  -3.141  0.00  0.00    -0.174 NA
ATOM     10  C   UNL     1       2.029  -0.521  -1.357  0.00  0.00    +0.271 C 
ATOM     11  O   UNL     1       2.860  -0.149  -0.550  0.00  0.00    -0.268 OA
ATOM     12 BR   UNL     1      -1.363  -2.879  -6.350  0.00  0.00    -0.050 Br
ENDROOT
BRANCH   9  13
ATOM     13  N   UNL     1       3.566  -2.027  -4.441  0.00  0.00    -0.204 N 
ATOM     14  C   UNL     1       4.750  -2.469  -4.910  0.00  0.00    +0.263 C 
ATOM     15  O   UNL     1       5.737  -2.421  -4.207  0.00  0.00    -0.271 OA
ATOM     16  H   UNL     1       2.777  -2.066  -5.003  0.00  0.00    +0.177 HD
BRANCH  14  17
ATOM     17  C   UNL     1       4.848  -3.023  -6.308  0.00  0.00    +0.240 C 
ATOM     18  C   UNL     1       4.413  -4.477  -6.341  0.00  0.00    +0.035 C 
ATOM     19  C   UNL     1       5.504  -5.129  -6.750  0.00  0.00    +0.059 C 
ATOM     20  N   UNL     1       6.525  -4.270  -6.964  0.00  0.00    -0.159 NA
ATOM     21  N   UNL     1       6.252  -3.083  -6.747  0.00  0.00    -0.170 NA
ATOM     22  C   UNL     1       5.586  -6.621  -6.945  0.00  0.00    +0.067 C 
ENDBRANCH  14  17
ENDBRANCH   9  13
BRANCH   1  24
ATOM     23  C   UNL     1      -0.142   1.725  -0.347  0.00  0.00    +0.025 C 
ATOM     24  C   UNL     1       0.027   0.226  -0.091  0.00  0.00    +0.111 C 
ENDBRANCH   1  24
TORSDOF 3
