REMARK  Name = ZINC05705934
REMARK  7 active torsions:
REMARK  status: ('A' for Active; 'I' for Inactive)
REMARK    1  A    between atoms: C_1  and  C_2
REMARK    2  A    between atoms: C_2  and  C_31
REMARK    3  A    between atoms: C_5  and  C_8
REMARK    4  A    between atoms: N_11  and  N_12
REMARK    5  A    between atoms: C_13  and  C_15
REMARK    6  A    between atoms: C_27  and  C_29
REMARK    7  A    between atoms: C_27  and  C_30
REMARK                            x       y       z     vdW  Elec       q    Type
REMARK                         _______ _______ _______ _____ _____    ______ ____
ROOT
ATOM      1  C   UNL     1      -0.491   1.730  -2.451  0.00  0.00    +0.201 C 
ATOM      2  C   UNL     1      -1.337   1.678  -3.728  0.00  0.00    +0.102 C 
ATOM      3  N   UNL     1      -2.611   1.600  -3.835  0.00  0.00    -0.183 NA
ATOM      4  C   UNL     1      -0.316   1.740  -4.819  0.00  0.00    +0.226 C 
ATOM      5  C   UNL     1       0.771   2.614  -4.085  0.00  0.00    +0.289 C 
ATOM      6  O   UNL     1       0.891   1.947  -2.866  0.00  0.00    -0.336 OA
ATOM      7  O   UNL     1       1.692   2.817  -5.109  0.00  0.00    -0.318 OA
ATOM      8  C   UNL     1       0.888   2.890  -6.319  0.00  0.00    +0.169 C 
ATOM      9  O   UNL     1      -0.486   2.556  -5.965  0.00  0.00    -0.335 OA
ATOM     10  C   UNL     1       1.415   1.891  -7.351  0.00  0.00    +0.074 C 
ATOM     11  C   UNL     1       0.945   4.307  -6.894  0.00  0.00    +0.074 C 
ENDROOT
BRANCH   1  16
ATOM     12  C   UNL     1      -2.992   4.674   0.011  0.00  0.00    +0.074 C 
ATOM     13  C   UNL     1      -2.238   3.368   0.269  0.00  0.00    +0.165 C 
ATOM     14  O   UNL     1      -0.883   3.660   0.650  0.00  0.00    -0.347 OA
ATOM     15  C   UNL     1      -0.025   3.051  -0.336  0.00  0.00    +0.198 C 
ATOM     16  C   UNL     1      -0.956   2.885  -1.562  0.00  0.00    +0.182 C 
ATOM     17  O   UNL     1      -2.222   2.575  -0.930  0.00  0.00    -0.341 OA
ATOM     18  C   UNL     1      -2.928   2.589   1.391  0.00  0.00    +0.074 C 
ENDBRANCH   1  16
BRANCH   3  19
ATOM     19  N   UNL     1      -3.395   1.349  -2.701  0.00  0.00    -0.203 N 
ATOM     20  C   UNL     1      -4.739   1.386  -2.789  0.00  0.00    +0.263 C 
ATOM     21  O   UNL     1      -5.271   1.722  -3.830  0.00  0.00    -0.268 OA
ATOM     22  H   UNL     1      -2.970   1.147  -1.853  0.00  0.00    +0.178 HD
BRANCH  20  23
ATOM     23  C   UNL     1      -5.567   1.020  -1.621  0.00  0.00    +0.038 A 
ATOM     24  C   UNL     1      -4.960   0.679  -0.411  0.00  0.00    +0.013 A 
ATOM     25  C   UNL     1      -5.739   0.344   0.677  0.00  0.00    +0.001 A 
ATOM     26  C   UNL     1      -7.118   0.334   0.568  0.00  0.00    +0.000 A 
ATOM     27  C   UNL     1      -7.726   0.665  -0.630  0.00  0.00    +0.001 A 
ATOM     28  C   UNL     1      -6.959   1.008  -1.725  0.00  0.00    +0.013 A 
ENDBRANCH  20  23
ENDBRANCH   3  19
TORSDOF 3
