REMARK  Name = ZINC50900271
REMARK  9 active torsions:
REMARK  status: ('A' for Active; 'I' for Inactive)
REMARK    1  A    between atoms: C_1  and  C_2
REMARK    2  A    between atoms: C_2  and  C_3
REMARK    3  A    between atoms: C_3  and  N_4
REMARK    4  A    between atoms: C_5  and  C_7
REMARK    5  A    between atoms: N_12  and  C_14
REMARK    6  A    between atoms: C_14  and  N_15
REMARK    7  A    between atoms: N_18  and  C_21
REMARK    8  A    between atoms: C_24  and  C_28
REMARK    9  A    between atoms: C_26  and  C_27
REMARK                            x       y       z     vdW  Elec       q    Type
REMARK                         _______ _______ _______ _____ _____    ______ ____
ROOT
ATOM      1  C   UNL     1      -5.346  -6.698   0.087  0.00  0.00    +0.073 C 
ENDROOT
BRANCH   1   6
ATOM      2  C   UNL     1      -2.551  -4.195   0.004  0.00  0.00    +0.058 C 
ATOM      3  C   UNL     1      -1.836  -4.690  -1.257  0.00  0.00    +0.009 C 
ATOM      4  C   UNL     1      -1.890  -6.220  -1.295  0.00  0.00    -0.018 C 
ATOM      5  C   UNL     1      -3.349  -6.675  -1.239  0.00  0.00    -0.076 C 
ATOM      6  N   UNL     1      -3.969  -6.193   0.001  0.00  0.00    +0.393 N 
ATOM      7  C   UNL     1      -3.986  -4.726   0.013  0.00  0.00    -0.064 C 
ATOM      8  H   UNL     1      -3.440  -6.528   0.792  0.00  0.00    -0.079 HD
BRANCH   2  10
ATOM      9  N   UNL     1      -1.413  -1.998   0.005  0.00  0.00    -0.315 N 
ATOM     10  C   UNL     1      -2.571  -2.688   0.012  0.00  0.00    +0.214 C 
ATOM     11  O   UNL     1      -3.630  -2.096   0.025  0.00  0.00    -0.276 OA
ATOM     12  H   UNL     1      -0.567  -2.472  -0.006  0.00  0.00    +0.149 HD
BRANCH   9  13
ATOM     13  C   UNL     1      -1.433  -0.534   0.013  0.00  0.00    +0.104 C 
BRANCH  13  15
ATOM     14  C   UNL     1      -0.019   1.526   0.010  0.00  0.00    +0.005 C 
ATOM     15  C   UNL     1       0.002  -0.004   0.002  0.00  0.00    +0.015 C 
ENDBRANCH  13  15
ENDBRANCH   9  13
ENDBRANCH   2  10
ENDBRANCH   1   6
BRANCH   1  16
ATOM     16  N   UNL     1      -5.324  -8.158   0.206  0.00  0.00    -0.238 N 
ATOM     17  C   UNL     1      -5.623  -9.043  -0.770  0.00  0.00    +0.199 A 
ATOM     18  S   UNL     1      -6.097  -8.680  -2.374  0.00  0.00    -0.010 S 
ATOM     19  N   UNL     1      -5.473 -10.272  -0.228  0.00  0.00    -0.188 N 
ATOM     20  N   UNL     1      -5.076 -10.099   1.103  0.00  0.00    -0.040 NA
ATOM     21  N   UNL     1      -4.984  -8.891   1.349  0.00  0.00    -0.046 NA
BRANCH  19  22
ATOM     22  C   UNL     1      -5.679 -11.495  -0.880  0.00  0.00    +0.073 A 
ATOM     23  C   UNL     1      -5.003 -11.777  -2.059  0.00  0.00    +0.028 A 
ATOM     24  C   UNL     1      -5.207 -12.984  -2.699  0.00  0.00    +0.005 A 
ATOM     25  C   UNL     1      -6.085 -13.910  -2.166  0.00  0.00    -0.050 A 
ATOM     26  C   UNL     1      -6.761 -13.632  -0.993  0.00  0.00    +0.008 A 
ATOM     27  C   UNL     1      -6.556 -12.429  -0.345  0.00  0.00    -0.025 A 
ATOM     28  C   UNL     1      -7.287 -12.129   0.938  0.00  0.00    +0.046 C 
ATOM     29  C   UNL     1      -6.307 -15.226  -2.867  0.00  0.00    +0.044 C 
ENDBRANCH  19  22
ENDBRANCH   1  16
TORSDOF 6
