REMARK  Name = ZINC20548561
REMARK  7 active torsions:
REMARK  status: ('A' for Active; 'I' for Inactive)
REMARK    1  A    between atoms: C_1  and  C_2
REMARK    2  A    between atoms: C_2  and  C_3
REMARK    3  A    between atoms: C_2  and  C_4
REMARK    4  A    between atoms: N_12  and  C_15
REMARK    5  A    between atoms: C_15  and  C_16
REMARK    6  A    between atoms: C_16  and  O_17
REMARK    7  A    between atoms: O_17  and  C_18
REMARK                            x       y       z     vdW  Elec       q    Type
REMARK                         _______ _______ _______ _____ _____    ______ ____
ROOT
ATOM      1  C   UNL     1      -1.426  -0.553   0.008  0.00  0.00    +0.070 C 
ATOM      2  C   UNL     1      -1.411  -2.088   0.163  0.00  0.00    +0.107 C 
ATOM      3  C   UNL     1      -2.626  -2.410   1.076  0.00  0.00    +0.122 C 
ATOM      4  C   UNL     1      -1.983  -2.972   2.325  0.00  0.00    +0.228 C 
ATOM      5  O   UNL     1      -2.580  -3.363   3.304  0.00  0.00    -0.275 OA
ATOM      6  N   UNL     1      -0.653  -2.970   2.179  0.00  0.00    -0.239 N 
ATOM      7  C   UNL     1      -0.214  -2.495   0.991  0.00  0.00    +0.227 C 
ATOM      8  O   UNL     1       0.943  -2.405   0.642  0.00  0.00    -0.275 OA
ATOM      9  C   UNL     1      -3.256  -1.044   1.375  0.00  0.00    +0.136 C 
ATOM     10  N   UNL     1      -2.167  -0.054   1.197  0.00  0.00    -0.295 NA
ATOM     11  C   UNL     1      -3.813  -0.987   2.769  0.00  0.00    +0.005 A 
ATOM     12  C   UNL     1      -3.258  -1.148   4.020  0.00  0.00    +0.008 A 
ATOM     13  C   UNL     1      -4.049  -1.036   5.149  0.00  0.00    +0.002 A 
ATOM     14  C   UNL     1      -5.399  -0.762   5.019  0.00  0.00    +0.022 A 
ATOM     15  C   UNL     1      -5.959  -0.598   3.769  0.00  0.00    +0.062 A 
ATOM     16  C   UNL     1      -5.169  -0.710   2.626  0.00  0.00    +0.057 A 
ATOM     17  N   UNL     1      -5.496  -0.588   1.273  0.00  0.00    -0.282 N 
ATOM     18  C   UNL     1      -4.428  -0.770   0.473  0.00  0.00    +0.243 C 
ATOM     19  O   UNL     1      -4.414  -0.722  -0.738  0.00  0.00    -0.273 OA
ATOM     20 CL   UNL     1      -7.654  -0.254   3.618  0.00  0.00    -0.082 Cl
ATOM     21  H   UNL     1      -1.566  -0.014   2.007  0.00  0.00    +0.124 HD
ATOM     22  H   UNL     1      -6.390  -0.395   0.948  0.00  0.00    +0.155 HD
ENDROOT
BRANCH   1  24
ATOM     23  C   UNL     1       0.704  -0.424  -1.291  0.00  0.00    +0.009 C 
ATOM     24  C   UNL     1       0.002  -0.004   0.002  0.00  0.00    +0.001 C 
ATOM     25  C   UNL     1      -0.038   1.523   0.088  0.00  0.00    +0.009 C 
ENDBRANCH   1  24
BRANCH   6  26
ATOM     26  C   UNL     1       0.258  -3.452   3.221  0.00  0.00    +0.144 C 
BRANCH  26  27
ATOM     27  C   UNL     1       0.515  -4.947   3.022  0.00  0.00    +0.179 C 
BRANCH  27  28
ATOM     28  O   UNL     1       1.208  -5.152   1.790  0.00  0.00    -0.381 OA
ATOM     29  C   UNL     1       1.499  -6.522   1.507  0.00  0.00    +0.194 C 
ENDBRANCH  27  28
ENDBRANCH  26  27
ENDBRANCH   6  26
TORSDOF 4
