REMARK  Name = ZINC06150525
REMARK  9 active torsions:
REMARK  status: ('A' for Active; 'I' for Inactive)
REMARK    1  A    between atoms: C_1  and  C_2
REMARK    2  A    between atoms: C_2  and  C_3
REMARK    3  A    between atoms: C_7  and  N_9
REMARK    4  A    between atoms: C_10  and  N_34
REMARK    5  A    between atoms: C_11  and  C_22
REMARK    6  A    between atoms: N_24  and  C_25
REMARK    7  A    between atoms: C_25  and  C_26
REMARK    8  A    between atoms: C_26  and  C_27
REMARK    9  A    between atoms: C_27  and  C_28
REMARK                            x       y       z     vdW  Elec       q    Type
REMARK                         _______ _______ _______ _____ _____    ______ ____
ROOT
ATOM      1  N   UNL     1      -1.239   2.070   0.019  0.00  0.00    -0.280 N 
ATOM      2  C   UNL     1      -1.678   2.857   1.042  0.00  0.00    +0.117 A 
ATOM      3  C   UNL     1      -2.925   3.392   0.741  0.00  0.00    +0.104 A 
ATOM      4  C   UNL     1      -3.287   2.886  -0.593  0.00  0.00    +0.123 A 
ATOM      5  C   UNL     1      -2.161   2.045  -1.009  0.00  0.00    +0.166 A 
ATOM      6  N   UNL     1      -2.202   1.440  -2.177  0.00  0.00    -0.225 NA
ATOM      7  C   UNL     1      -3.263   1.606  -2.978  0.00  0.00    +0.092 A 
ATOM      8  C   UNL     1      -3.312   0.968  -4.231  0.00  0.00    +0.030 A 
ATOM      9  C   UNL     1      -4.393   1.142  -5.037  0.00  0.00    +0.002 A 
ATOM     10  C   UNL     1      -5.460   1.947  -4.642  0.00  0.00    +0.002 A 
ATOM     11  C   UNL     1      -5.449   2.581  -3.438  0.00  0.00    +0.030 A 
ATOM     12  C   UNL     1      -4.348   2.425  -2.576  0.00  0.00    +0.090 A 
ATOM     13  N   UNL     1      -4.326   3.043  -1.389  0.00  0.00    -0.241 NA
ENDROOT
BRANCH   1  18
ATOM     14  C   UNL     1       2.381   1.413  -0.013  0.00  0.00    -0.046 A 
ATOM     15  C   UNL     1       2.396   0.031  -0.021  0.00  0.00    +0.004 A 
ATOM     16  C   UNL     1       1.208  -0.677  -0.013  0.00  0.00    +0.002 A 
ATOM     17  C   UNL     1       0.002  -0.004   0.002  0.00  0.00    +0.026 A 
ATOM     18  C   UNL     1      -0.017   1.384   0.010  0.00  0.00    +0.050 A 
ATOM     19  C   UNL     1       1.178   2.092   0.002  0.00  0.00    +0.030 A 
BRANCH  14  21
ATOM     20  C   UNL     1       4.103   2.448  -1.467  0.00  0.00    +0.009 C 
ATOM     21  C   UNL     1       3.678   2.181  -0.021  0.00  0.00    +0.032 C 
ENDBRANCH  14  21
ENDBRANCH   1  18
BRANCH   3  22
ATOM     22  C   UNL     1      -3.721   4.282   1.583  0.00  0.00    +0.250 C 
ATOM     23  O   UNL     1      -3.587   5.489   1.491  0.00  0.00    -0.270 OA
ATOM     24  N   UNL     1      -4.603   3.767   2.463  0.00  0.00    -0.311 N 
ATOM     25  H   UNL     1      -4.710   2.806   2.536  0.00  0.00    +0.149 HD
BRANCH  24  26
ATOM     26  C   UNL     1      -5.401   4.659   3.308  0.00  0.00    +0.105 C 
BRANCH  26  27
ATOM     27  C   UNL     1      -6.315   3.826   4.208  0.00  0.00    +0.023 C 
BRANCH  27  28
ATOM     28  C   UNL     1      -7.148   4.758   5.091  0.00  0.00    +0.036 C 
BRANCH  28  29
ATOM     29  C   UNL     1      -8.049   3.937   5.978  0.00  0.00    -0.047 A 
ATOM     30  C   UNL     1      -9.318   3.596   5.549  0.00  0.00    +0.003 A 
ATOM     31  C   UNL     1     -10.142   2.840   6.360  0.00  0.00    +0.000 A 
ATOM     32  C   UNL     1      -9.701   2.432   7.605  0.00  0.00    +0.000 A 
ATOM     33  C   UNL     1      -8.434   2.778   8.037  0.00  0.00    +0.000 A 
ATOM     34  C   UNL     1      -7.608   3.530   7.223  0.00  0.00    +0.003 A 
ENDBRANCH  28  29
ENDBRANCH  27  28
ENDBRANCH  26  27
ENDBRANCH  24  26
ENDBRANCH   3  22
BRANCH   2  35
ATOM     35  N   UNL     1      -0.987   3.088   2.202  0.00  0.00    -0.343 N 
ATOM     36  H   UNL     1      -0.119   2.678   2.340  0.00  0.00    +0.144 HD
ATOM     37  H   UNL     1      -1.366   3.663   2.886  0.00  0.00    +0.144 HD
ENDBRANCH   2  35
TORSDOF 8
