REMARK  Name = ZINC09064929
REMARK  5 active torsions:
REMARK  status: ('A' for Active; 'I' for Inactive)
REMARK    1  A    between atoms: C_3  and  C_8
REMARK    2  A    between atoms: N_10  and  C_11
REMARK    3  A    between atoms: C_11  and  N_13
REMARK    4  A    between atoms: N_13  and  C_14
REMARK    5  A    between atoms: C_16  and  N_20
REMARK                            x       y       z     vdW  Elec       q    Type
REMARK                         _______ _______ _______ _____ _____    ______ ____
ROOT
ATOM      1  C   UNL     1       0.062  -0.658  -3.587  0.00  0.00    +0.141 C 
ATOM      2  S   UNL     1       0.085  -2.370  -3.596  0.00  0.00    -0.018 S 
ENDROOT
BRANCH   1   5
ATOM      3  C   UNL     1       0.232  -0.643  -5.915  0.00  0.00    +0.250 C 
ATOM      4  O   UNL     1       0.248  -1.858  -5.922  0.00  0.00    -0.270 OA
ATOM      5  N   UNL     1       0.137   0.023  -4.747  0.00  0.00    -0.264 N 
ATOM      6  H   UNL     1       0.124   0.993  -4.741  0.00  0.00    +0.157 HD
BRANCH   3   9
ATOM      7  C   UNL     1       0.372   2.193  -8.373  0.00  0.00    +0.002 A 
ATOM      8  C   UNL     1       0.290   1.501  -7.183  0.00  0.00    +0.013 A 
ATOM      9  C   UNL     1       0.315   0.105  -7.187  0.00  0.00    +0.038 A 
ATOM     10  C   UNL     1       0.412  -0.582  -8.398  0.00  0.00    +0.027 A 
ATOM     11  C   UNL     1       0.489   0.122  -9.582  0.00  0.00    +0.014 A 
ATOM     12  C   UNL     1       0.469   1.507  -9.570  0.00  0.00    +0.014 A 
ATOM     13  I   UNL     1       0.635  -0.905 -11.402  0.00  0.00    -0.044 I 
ENDBRANCH   3   9
ENDBRANCH   1   5
BRANCH   1  14
ATOM     14  N   UNL     1      -0.033   0.007  -2.418  0.00  0.00    -0.294 N 
ATOM     15  H   UNL     1      -0.109   0.974  -2.416  0.00  0.00    +0.154 HD
BRANCH  14  16
ATOM     16  C   UNL     1      -0.020  -0.697  -1.208  0.00  0.00    +0.082 A 
ATOM     17  C   UNL     1      -0.822  -1.817  -1.046  0.00  0.00    +0.059 A 
ATOM     18  C   UNL     1      -0.813  -2.507   0.151  0.00  0.00    +0.128 A 
ATOM     19  C   UNL     1      -0.001  -2.087   1.188  0.00  0.00    +0.036 A 
ATOM     20  C   UNL     1       0.805  -0.975   1.033  0.00  0.00    +0.055 A 
ATOM     21  C   UNL     1       0.802  -0.278  -0.164  0.00  0.00    +0.200 A 
ATOM     22  O   UNL     1       1.594   0.817  -0.318  0.00  0.00    -0.286 OA
BRANCH  18  23
ATOM     23  N   UNL     1      -1.674  -3.699   0.324  0.00  0.00    +0.056 N 
ATOM     24  O   UNL     1      -1.667  -4.308   1.379  0.00  0.00    -0.126 OA
ATOM     25  O   UNL     1      -2.390  -4.070  -0.589  0.00  0.00    -0.126 OA
ENDBRANCH  18  23
ENDBRANCH  14  16
ENDBRANCH   1  14
TORSDOF 5
