REMARK  Name = ZINC39669494
REMARK  9 active torsions:
REMARK  status: ('A' for Active; 'I' for Inactive)
REMARK    1  A    between atoms: C_1  and  C_2
REMARK    2  A    between atoms: C_4  and  C_11
REMARK    3  A    between atoms: N_5  and  C_7
REMARK    4  A    between atoms: C_7  and  C_8
REMARK    5  A    between atoms: C_7  and  C_9
REMARK    6  A    between atoms: C_7  and  C_10
REMARK    7  A    between atoms: C_15  and  C_24
REMARK    8  A    between atoms: N_26  and  C_27
REMARK    9  A    between atoms: C_27  and  C_28
REMARK                            x       y       z     vdW  Elec       q    Type
REMARK                         _______ _______ _______ _____ _____    ______ ____
ROOT
ATOM      1  C   UNL     1      -0.591  -4.010  -1.480  0.00  0.00    +0.265 C 
ATOM      2  O   UNL     1      -0.831  -3.821  -2.657  0.00  0.00    -0.268 OA
ATOM      3  N   UNL     1      -0.691  -5.251  -0.963  0.00  0.00    -0.295 N 
ATOM      4  C   UNL     1      -0.572  -5.655   0.458  0.00  0.00    +0.121 C 
ATOM      5  C   UNL     1      -1.654  -6.742   0.647  0.00  0.00    +0.100 C 
ATOM      6  C   UNL     1      -1.894  -7.306  -0.763  0.00  0.00    -0.004 C 
ATOM      7  C   UNL     1      -0.953  -6.518  -1.686  0.00  0.00    +0.115 C 
ATOM      8  C   UNL     1      -3.344  -7.082  -1.183  0.00  0.00    -0.010 C 
ATOM      9  C   UNL     1      -3.572  -7.702  -2.564  0.00  0.00    -0.082 C 
ATOM     10  N   UNL     1      -3.273  -9.138  -2.513  0.00  0.00    +0.379 N 
ATOM     11  C   UNL     1      -1.854  -9.343  -2.200  0.00  0.00    -0.082 C 
ATOM     12  C   UNL     1      -1.552  -8.792  -0.803  0.00  0.00    -0.010 C 
ATOM     13  H   UNL     1      -3.840  -9.573  -1.801  0.00  0.00    -0.086 HD
ATOM     14  H   UNL     1      -3.482  -9.555  -3.408  0.00  0.00    -0.086 HD
ENDROOT
BRANCH   1  18
ATOM     15  C   UNL     1       1.018  -1.178   2.408  0.00  0.00    +0.067 C 
ATOM     16  C   UNL     1       0.508  -1.635   1.066  0.00  0.00    +0.061 A 
ATOM     17  C   UNL     1       0.259  -2.957   0.687  0.00  0.00    +0.057 A 
ATOM     18  C   UNL     1      -0.192  -2.885  -0.620  0.00  0.00    +0.124 A 
ATOM     19  N   UNL     1      -0.191  -1.559  -0.951  0.00  0.00    -0.254 N 
ATOM     20  N   UNL     1       0.215  -0.865   0.050  0.00  0.00    -0.175 NA
BRANCH  19  21
ATOM     21  C   UNL     1      -0.597  -1.014  -2.249  0.00  0.00    +0.056 C 
ATOM     22  C   UNL     1      -2.013  -1.488  -2.581  0.00  0.00    +0.036 C 
ATOM     23  C   UNL     1      -0.572   0.515  -2.189  0.00  0.00    +0.036 C 
ATOM     24  C   UNL     1       0.370  -1.498  -3.331  0.00  0.00    +0.036 C 
ENDBRANCH  19  21
ENDBRANCH   1  18
BRANCH   5  25
ATOM     25  C   UNL     1      -1.155  -7.824   1.570  0.00  0.00    +0.218 C 
ATOM     26  O   UNL     1       0.034  -8.045   1.659  0.00  0.00    -0.275 OA
ATOM     27  N   UNL     1      -2.031  -8.546   2.297  0.00  0.00    -0.315 N 
ATOM     28  H   UNL     1      -2.985  -8.423   2.169  0.00  0.00    +0.149 HD
BRANCH  27  29
ATOM     29  C   UNL     1      -1.543  -9.515   3.280  0.00  0.00    +0.109 C 
BRANCH  29  30
ATOM     30  C   UNL     1      -2.733 -10.194   3.962  0.00  0.00    +0.024 C 
ATOM     31  C   UNL     1      -2.226 -11.293   4.899  0.00  0.00    +0.008 C 
ATOM     32  C   UNL     1      -3.417 -11.994   5.557  0.00  0.00    +0.019 C 
ATOM     33  C   UNL     1      -4.208 -10.978   6.386  0.00  0.00    +0.108 C 
ATOM     34  N   UNL     1      -4.575  -9.847   5.524  0.00  0.00    -0.299 N 
ATOM     35  C   UNL     1      -3.517  -9.157   4.773  0.00  0.00    +0.113 C 
ATOM     36  C   UNL     1      -5.893  -9.438   5.420  0.00  0.00    +0.218 A 
ATOM     37  N   UNL     1      -6.194  -8.417   4.629  0.00  0.00    -0.223 NA
ATOM     38  C   UNL     1      -7.443  -8.002   4.507  0.00  0.00    +0.116 A 
ATOM     39  C   UNL     1      -8.443  -8.647   5.218  0.00  0.00    +0.039 A 
ATOM     40  C   UNL     1      -8.094  -9.710   6.035  0.00  0.00    +0.116 A 
ATOM     41  N   UNL     1      -6.826 -10.079   6.109  0.00  0.00    -0.223 NA
ENDBRANCH  29  30
ENDBRANCH  27  29
ENDBRANCH   5  25
TORSDOF 5
