REMARK  Name = ZINC00971843
REMARK  4 active torsions:
REMARK  status: ('A' for Active; 'I' for Inactive)
REMARK    1  A    between atoms: C_1  and  C_2
REMARK    2  A    between atoms: C_5  and  N_26
REMARK    3  A    between atoms: C_9  and  C_18
REMARK    4  A    between atoms: C_21  and  C_24
REMARK                            x       y       z     vdW  Elec       q    Type
REMARK                         _______ _______ _______ _____ _____    ______ ____
ROOT
ATOM      1  C   UNL     1      -1.334   2.121   0.020  0.00  0.00    +0.045 C 
ATOM      2  C   UNL     1      -0.017   1.390   0.010  0.00  0.00    -0.029 A 
ATOM      3  C   UNL     1       1.163   2.103   0.002  0.00  0.00    +0.007 A 
ATOM      4  C   UNL     1       2.372   1.431  -0.014  0.00  0.00    +0.033 A 
ATOM      5  C   UNL     1       2.394   0.051  -0.021  0.00  0.00    +0.132 A 
ATOM      6  C   UNL     1       1.212  -0.676  -0.012  0.00  0.00    +0.011 A 
ATOM      7  C   UNL     1       0.002  -0.004   0.002  0.00  0.00    +0.037 A 
ATOM      8  N   UNL     1      -1.220  -0.675   0.006  0.00  0.00    -0.336 N 
ATOM      9  C   UNL     1      -1.115  -2.013   0.590  0.00  0.00    +0.105 C 
ATOM     10  C   UNL     1      -0.081  -2.828  -0.189  0.00  0.00    +0.029 C 
ATOM     11  C   UNL     1       1.307  -2.174  -0.017  0.00  0.00    +0.051 C 
ATOM     12  C   UNL     1       1.790  -2.680   1.323  0.00  0.00    -0.023 C 
ATOM     13  C   UNL     1       1.152  -3.774   1.657  0.00  0.00    -0.030 C 
ATOM     14  C   UNL     1       0.155  -4.158   0.581  0.00  0.00    +0.033 C 
ATOM     15  H   UNL     1      -1.930  -0.131   0.474  0.00  0.00    +0.147 HD
ENDROOT
BRANCH   9  16
ATOM     16  C   UNL     1      -2.454  -2.700   0.518  0.00  0.00    -0.027 A 
ATOM     17  C   UNL     1      -3.244  -2.552  -0.609  0.00  0.00    +0.006 A 
ATOM     18  C   UNL     1      -4.468  -3.183  -0.683  0.00  0.00    +0.015 A 
ATOM     19  C   UNL     1      -4.916  -3.962   0.386  0.00  0.00    +0.063 A 
ATOM     20  C   UNL     1      -4.116  -4.102   1.522  0.00  0.00    +0.015 A 
ATOM     21  C   UNL     1      -2.891  -3.470   1.581  0.00  0.00    +0.006 A 
BRANCH  19  22
ATOM     22  C   UNL     1      -6.228  -4.636   0.315  0.00  0.00    +0.387 C 
ATOM     23  O   UNL     1      -6.614  -5.313   1.246  0.00  0.00    -0.241 OA
ATOM     24  O   UNL     1      -6.997  -4.499  -0.783  0.00  0.00    -0.241 OA
ENDBRANCH  19  22
ENDBRANCH   9  16
BRANCH   5  25
ATOM     25  N   UNL     1       3.692  -0.660  -0.039  0.00  0.00    +0.057 N 
ATOM     26  O   UNL     1       4.733  -0.028  -0.048  0.00  0.00    -0.126 OA
ATOM     27  O   UNL     1       3.719  -1.878  -0.046  0.00  0.00    -0.126 OA
ENDBRANCH   5  25
TORSDOF 3
