REMARK  Name = ZINC65265977
REMARK  9 active torsions:
REMARK  status: ('A' for Active; 'I' for Inactive)
REMARK    1  A    between atoms: C_1  and  C_2
REMARK    2  A    between atoms: C_2  and  C_3
REMARK    3  A    between atoms: C_2  and  C_4
REMARK    4  A    between atoms: C_2  and  N_5
REMARK    5  A    between atoms: C_21  and  C_23
REMARK    6  A    between atoms: C_25  and  O_31
REMARK    7  A    between atoms: C_27  and  O_29
REMARK    8  A    between atoms: O_29  and  C_30
REMARK    9  A    between atoms: O_31  and  C_32
REMARK                            x       y       z     vdW  Elec       q    Type
REMARK                         _______ _______ _______ _____ _____    ______ ____
ROOT
ATOM      1  N   UNL     1       0.052  -1.232  -0.868  0.00  0.00    -0.370 N 
ATOM      2  C   UNL     1       1.291  -1.530  -1.089  0.00  0.00    +0.095 C 
ATOM      3  N   UNL     1       2.285  -1.180  -0.208  0.00  0.00    -0.303 N 
ATOM      4  C   UNL     1       2.632  -2.073   0.801  0.00  0.00    +0.037 A 
ATOM      5  C   UNL     1       2.807  -1.618   2.101  0.00  0.00    +0.023 A 
ATOM      6  C   UNL     1       3.165  -2.498   3.102  0.00  0.00    +0.002 A 
ATOM      7  C   UNL     1       3.349  -3.834   2.798  0.00  0.00    +0.000 A 
ATOM      8  C   UNL     1       3.170  -4.287   1.509  0.00  0.00    +0.007 A 
ATOM      9  C   UNL     1       2.801  -3.416   0.489  0.00  0.00    -0.012 A 
ATOM     10  C   UNL     1       2.594  -4.017  -0.878  0.00  0.00    +0.119 C 
ATOM     11  N   UNL     1       2.902  -3.079  -1.965  0.00  0.00    -0.299 NA
ATOM     12  C   UNL     1       1.710  -2.276  -2.310  0.00  0.00    +0.091 C 
ATOM     13  C   UNL     1       0.587  -3.192  -2.830  0.00  0.00    +0.050 C 
ATOM     14  C   UNL     1       0.972  -3.333  -4.326  0.00  0.00    +0.110 C 
ATOM     15  N   UNL     1       1.520  -2.015  -4.703  0.00  0.00    -0.295 N 
ATOM     16  C   UNL     1       2.012  -1.344  -3.487  0.00  0.00    +0.137 C 
ATOM     17  C   UNL     1       1.563  -1.510  -5.952  0.00  0.00    +0.247 C 
ATOM     18  O   UNL     1       1.975  -0.382  -6.137  0.00  0.00    -0.270 OA
ATOM     19  H   UNL     1      -0.642  -1.585  -1.446  0.00  0.00    +0.161 HD
ATOM     20  H   UNL     1       3.682  -2.487  -1.721  0.00  0.00    +0.123 HD
ATOM     21  H   UNL     1       2.737  -0.326  -0.288  0.00  0.00    +0.153 HD
ENDROOT
BRANCH  17  22
ATOM     22  C   UNL     1       1.108  -2.328  -7.096  0.00  0.00    +0.044 A 
ATOM     23  C   UNL     1       0.799  -1.719  -8.313  0.00  0.00    +0.059 A 
ATOM     24  C   UNL     1       0.374  -2.489  -9.383  0.00  0.00    +0.124 A 
ATOM     25  C   UNL     1       0.254  -3.865  -9.246  0.00  0.00    +0.091 A 
ATOM     26  C   UNL     1       0.560  -4.475  -8.038  0.00  0.00    +0.124 A 
ATOM     27  C   UNL     1       0.992  -3.712  -6.965  0.00  0.00    +0.059 A 
BRANCH  26  28
ATOM     28  O   UNL     1       0.442  -5.822  -7.909  0.00  0.00    -0.495 OA
ATOM     29  C   UNL     1      -0.003  -6.547  -9.057  0.00  0.00    +0.277 C 
ENDBRANCH  26  28
BRANCH  24  30
ATOM     30  O   UNL     1       0.072  -1.897 -10.568  0.00  0.00    -0.495 OA
ATOM     31  C   UNL     1      -0.360  -2.751 -11.629  0.00  0.00    +0.277 C 
ENDBRANCH  24  30
ENDBRANCH  17  22
BRANCH   1  33
ATOM     32  C   UNL     1       0.527   0.924   0.185  0.00  0.00    +0.033 C 
ATOM     33  C   UNL     1      -0.302  -0.359   0.254  0.00  0.00    +0.031 C 
ATOM     34  C   UNL     1      -0.015  -1.082   1.572  0.00  0.00    +0.033 C 
ATOM     35  C   UNL     1      -1.790  -0.009   0.178  0.00  0.00    +0.033 C 
ENDBRANCH   1  33
TORSDOF 4
