REMARK  Name = ZINC32879984
REMARK  8 active torsions:
REMARK  status: ('A' for Active; 'I' for Inactive)
REMARK    1  A    between atoms: C_1  and  C_2
REMARK    2  A    between atoms: N_4  and  C_5
REMARK    3  A    between atoms: C_5  and  C_7
REMARK    4  A    between atoms: C_5  and  C_25
REMARK    5  A    between atoms: C_7  and  C_8
REMARK    6  A    between atoms: N_10  and  N_11
REMARK    7  A    between atoms: C_14  and  C_18
REMARK    8  A    between atoms: C_14  and  C_19
REMARK                            x       y       z     vdW  Elec       q    Type
REMARK                         _______ _______ _______ _____ _____    ______ ____
ROOT
ATOM      1  C   UNL     1      -0.259  -1.163   0.646  0.00  0.00    +0.232 C 
ATOM      2  O   UNL     1      -0.674  -0.317   1.409  0.00  0.00    -0.274 OA
ATOM      3  N   UNL     1       0.111  -0.821  -0.604  0.00  0.00    -0.224 N 
ATOM      4  H   UNL     1       0.487  -1.589  -1.296  0.00  0.00    +0.174 HD
ENDROOT
BRANCH   3   5
ATOM      5  N   UNL     1       0.017   0.513  -1.022  0.00  0.00    -0.137 N 
ATOM      6  C   UNL     1       1.073   1.339  -1.161  0.00  0.00    +0.267 C 
ATOM      7  O   UNL     1       2.239   1.078  -0.954  0.00  0.00    -0.271 OA
ATOM      8  C   UNL     1       0.499   2.662  -1.628  0.00  0.00    +0.137 C 
ATOM      9  N   UNL     1      -0.949   2.403  -1.706  0.00  0.00    -0.280 N 
ATOM     10  C   UNL     1      -1.131   1.122  -1.338  0.00  0.00    +0.327 C 
ATOM     11  O   UNL     1      -2.218   0.579  -1.295  0.00  0.00    -0.251 OA
ATOM     12  C   UNL     1       0.798   3.767  -0.613  0.00  0.00    +0.047 C 
ATOM     13  H   UNL     1      -1.634   3.203  -2.022  0.00  0.00    +0.152 HD
BRANCH   8  14
ATOM     14  C   UNL     1       1.046   3.027  -2.984  0.00  0.00    -0.015 A 
ATOM     15  C   UNL     1       2.314   2.616  -3.351  0.00  0.00    +0.006 A 
ATOM     16  C   UNL     1       2.814   2.948  -4.597  0.00  0.00    +0.000 A 
ATOM     17  C   UNL     1       2.050   3.698  -5.471  0.00  0.00    +0.000 A 
ATOM     18  C   UNL     1       0.784   4.113  -5.102  0.00  0.00    +0.000 A 
ATOM     19  C   UNL     1       0.282   3.777  -3.858  0.00  0.00    +0.006 A 
ENDBRANCH   8  14
ENDBRANCH   3   5
BRANCH   1  20
ATOM     20  C   UNL     1      -0.158  -2.598   1.096  0.00  0.00    +0.124 C 
BRANCH  20  21
ATOM     21  C   UNL     1      -0.637  -2.713   2.545  0.00  0.00    +0.112 C 
BRANCH  21  22
ATOM     22  C   UNL     1      -0.652  -4.163   2.955  0.00  0.00    -0.027 A 
ATOM     23  C   UNL     1       0.526  -4.794   3.307  0.00  0.00    +0.007 A 
ATOM     24  C   UNL     1       0.512  -6.123   3.688  0.00  0.00    +0.020 A 
ATOM     25  C   UNL     1      -0.680  -6.824   3.707  0.00  0.00    +0.041 A 
ATOM     26  C   UNL     1      -1.859  -6.194   3.349  0.00  0.00    +0.020 A 
ATOM     27  C   UNL     1      -1.844  -4.864   2.973  0.00  0.00    +0.007 A 
ATOM     28 CL   UNL     1      -0.698  -8.494   4.180  0.00  0.00    -0.084 Cl
ENDBRANCH  21  22
BRANCH  21  32
ATOM     29  C   UNL     1       0.725  -0.627   5.448  0.00  0.00    +0.109 C 
ATOM     30  C   UNL     1      -0.173  -1.488   4.599  0.00  0.00    +0.210 C 
ATOM     31  O   UNL     1      -1.296  -1.750   4.976  0.00  0.00    -0.276 OA
ATOM     32  N   UNL     1       0.270  -1.968   3.420  0.00  0.00    -0.308 N 
ATOM     33  H   UNL     1       1.314  -1.799   3.116  0.00  0.00    +0.149 HD
ENDBRANCH  21  32
ENDBRANCH  20  21
ENDBRANCH   1  20
TORSDOF 6
