REMARK  Name = ZINC55009890
REMARK  12 active torsions:
REMARK  status: ('A' for Active; 'I' for Inactive)
REMARK    1  A    between atoms: C_1  and  C_2
REMARK    2  A    between atoms: C_2  and  N_3
REMARK    3  A    between atoms: N_3  and  C_4
REMARK    4  A    between atoms: N_3  and  C_6
REMARK    5  A    between atoms: C_4  and  C_5
REMARK    6  A    between atoms: C_6  and  C_7
REMARK    7  A    between atoms: C_7  and  N_8
REMARK    8  A    between atoms: N_17  and  C_18
REMARK    9  A    between atoms: C_18  and  C_20
REMARK   10  A    between atoms: C_23  and  C_25
REMARK   11  A    between atoms: C_25  and  N_26
REMARK   12  A    between atoms: C_27  and  C_35
REMARK                            x       y       z     vdW  Elec       q    Type
REMARK                         _______ _______ _______ _____ _____    ______ ____
ROOT
ATOM      1  N   UNL     1      -2.329  -4.002   0.576  0.00  0.00    -0.314 N 
ATOM      2  C   UNL     1      -2.206  -4.930  -0.454  0.00  0.00    +0.068 A 
ATOM      3  C   UNL     1      -2.238  -4.819  -1.837  0.00  0.00    +0.028 A 
ATOM      4  C   UNL     1      -2.083  -5.944  -2.621  0.00  0.00    +0.002 A 
ATOM      5  C   UNL     1      -1.896  -7.184  -2.034  0.00  0.00    +0.002 A 
ATOM      6  C   UNL     1      -1.862  -7.306  -0.659  0.00  0.00    +0.028 A 
ATOM      7  C   UNL     1      -2.017  -6.180   0.138  0.00  0.00    +0.066 A 
ATOM      8  N   UNL     1      -2.029  -5.988   1.516  0.00  0.00    -0.326 N 
ATOM      9  C   UNL     1      -2.214  -4.662   1.760  0.00  0.00    +0.201 A 
ATOM     10  N   UNL     1      -2.276  -4.103   2.961  0.00  0.00    -0.140 NA
ATOM     11  H   UNL     1      -1.921  -6.680   2.188  0.00  0.00    +0.169 HD
ENDROOT
BRANCH  10  12
ATOM     12  C   UNL     1      -2.026  -4.835   4.056  0.00  0.00    +0.305 C 
ATOM     13  O   UNL     1      -1.654  -5.992   3.944  0.00  0.00    -0.265 OA
BRANCH  12  14
ATOM     14  C   UNL     1      -2.201  -4.245   5.392  0.00  0.00    +0.192 A 
ATOM     15  C   UNL     1      -1.978  -4.874   6.581  0.00  0.00    +0.055 A 
ATOM     16  C   UNL     1      -2.269  -3.943   7.592  0.00  0.00    +0.047 A 
ATOM     17  C   UNL     1      -2.653  -2.801   6.981  0.00  0.00    +0.127 A 
ATOM     18  O   UNL     1      -2.605  -2.986   5.655  0.00  0.00    -0.453 OA
BRANCH  17  19
ATOM     19  C   UNL     1      -3.061  -1.528   7.676  0.00  0.00    +0.218 C 
BRANCH  19  20
ATOM     20  N   UNL     1      -1.880  -0.685   7.883  0.00  0.00    -0.258 N 
ATOM     21  C   UNL     1      -1.068  -0.706   8.962  0.00  0.00    +0.057 A 
ATOM     22  C   UNL     1      -0.100   0.220   8.767  0.00  0.00    +0.112 A 
ATOM     23  C   UNL     1      -0.328   0.827   7.527  0.00  0.00    +0.254 A 
ATOM     24  N   UNL     1      -1.392   0.281   6.994  0.00  0.00    -0.144 NA
ATOM     25  N   UNL     1       0.494   1.897   6.920  0.00  0.00    +0.078 N 
ATOM     26  O   UNL     1       1.462   2.322   7.507  0.00  0.00    -0.125 OA
ATOM     27  O   UNL     1       0.198   2.347   5.838  0.00  0.00    -0.125 OA
ATOM     28 CL   UNL     1       1.197   0.588   9.861  0.00  0.00    -0.078 Cl
ATOM     29  C   UNL     1      -1.213  -1.600  10.166  0.00  0.00    +0.067 C 
ENDBRANCH  19  20
ENDBRANCH  17  19
ENDBRANCH  12  14
ENDBRANCH  10  12
BRANCH   1  30
ATOM     30  C   UNL     1      -2.541  -2.562   0.412  0.00  0.00    +0.106 C 
BRANCH  30  31
ATOM     31  C   UNL     1      -1.187  -1.853   0.333  0.00  0.00    -0.057 C 
BRANCH  31  32
ATOM     32  N   UNL     1      -1.397  -0.428   0.044  0.00  0.00    +0.380 N 
ATOM     33  H   UNL     1      -1.938  -0.332  -0.802  0.00  0.00    -0.082 HD
BRANCH  32  35
ATOM     34  C   UNL     1      -2.446   1.649   0.808  0.00  0.00    -0.017 C 
ATOM     35  C   UNL     1      -2.119   0.196   1.161  0.00  0.00    -0.082 C 
ENDBRANCH  32  35
BRANCH  32  36
ATOM     36  C   UNL     1      -0.096   0.233  -0.129  0.00  0.00    -0.082 C 
ATOM     37  C   UNL     1       0.604  -0.336  -1.364  0.00  0.00    -0.017 C 
ENDBRANCH  32  36
ENDBRANCH  31  32
ENDBRANCH  30  31
ENDBRANCH   1  30
TORSDOF 9
