REMARK  Name = ZINC20080455
REMARK  9 active torsions:
REMARK  status: ('A' for Active; 'I' for Inactive)
REMARK    1  A    between atoms: C_1  and  C_2
REMARK    2  A    between atoms: C_2  and  O_3
REMARK    3  A    between atoms: O_3  and  C_4
REMARK    4  A    between atoms: C_11  and  C_16
REMARK    5  A    between atoms: C_16  and  C_18
REMARK    6  A    between atoms: C_16  and  N_30
REMARK    7  A    between atoms: N_22  and  C_23
REMARK    8  A    between atoms: C_23  and  C_24
REMARK    9  A    between atoms: N_33  and  C_36
REMARK                            x       y       z     vdW  Elec       q    Type
REMARK                         _______ _______ _______ _____ _____    ______ ____
ROOT
ATOM      1  C   UNL     1       2.849   4.724   1.887  0.00  0.00    +0.162 C 
ENDROOT
BRANCH   1   9
ATOM      2  C   UNL     1       4.288   0.036   5.678  0.00  0.00    +0.121 A 
ATOM      3  C   UNL     1       3.545   0.489   6.766  0.00  0.00    +0.047 A 
ATOM      4  C   UNL     1       2.826   1.661   6.685  0.00  0.00    +0.030 A 
ATOM      5  C   UNL     1       2.837   2.403   5.508  0.00  0.00    +0.049 A 
ATOM      6  C   UNL     1       3.587   1.949   4.407  0.00  0.00    +0.002 A 
ATOM      7  C   UNL     1       4.313   0.757   4.502  0.00  0.00    +0.055 A 
ATOM      8  C   UNL     1       3.585   2.737   3.173  0.00  0.00    +0.021 A 
ATOM      9  C   UNL     1       2.867   3.887   3.140  0.00  0.00    +0.042 A 
ATOM     10  C   UNL     1       2.132   4.299   4.272  0.00  0.00    +0.254 A 
ATOM     11  O   UNL     1       1.490   5.334   4.218  0.00  0.00    -0.268 OA
ATOM     12  N   UNL     1       2.123   3.580   5.407  0.00  0.00    -0.322 N 
ATOM     13  H   UNL     1       1.536   3.942   6.264  0.00  0.00    +0.169 HD
BRANCH   2  14
ATOM     14  O   UNL     1       4.992  -1.124   5.776  0.00  0.00    -0.492 OA
BRANCH  14  16
ATOM     15  C   UNL     1       5.772  -3.092   6.941  0.00  0.00    +0.048 C 
ATOM     16  C   UNL     1       4.923  -1.821   7.021  0.00  0.00    +0.225 C 
ENDBRANCH  14  16
ENDBRANCH   2  14
ENDBRANCH   1   9
BRANCH   1  17
ATOM     17  N   UNL     1       3.239   6.102   2.213  0.00  0.00    -0.292 NA
ATOM     18  C   UNL     1       3.169   6.964   1.025  0.00  0.00    +0.067 C 
ATOM     19  C   UNL     1       3.506   8.404   1.422  0.00  0.00    -0.063 C 
ATOM     20  N   UNL     1       4.848   8.443   2.019  0.00  0.00    +0.383 N 
ATOM     21  C   UNL     1       4.918   7.581   3.207  0.00  0.00    -0.063 C 
ATOM     22  C   UNL     1       4.581   6.142   2.810  0.00  0.00    +0.067 C 
ATOM     23  H   UNL     1       5.562   8.057   1.277  0.00  0.00    -0.081 HD
BRANCH  20  24
ATOM     24  C   UNL     1       5.238   9.821   2.345  0.00  0.00    -0.068 C 
ATOM     25  C   UNL     1       4.295  10.380   3.413  0.00  0.00    -0.015 C 
ATOM     26  C   UNL     1       4.702  11.815   3.752  0.00  0.00    -0.002 C 
ATOM     27  C   UNL     1       4.617  12.681   2.494  0.00  0.00    -0.000 C 
ATOM     28  C   UNL     1       5.560  12.122   1.426  0.00  0.00    -0.002 C 
ATOM     29  C   UNL     1       5.153  10.687   1.087  0.00  0.00    -0.015 C 
ENDBRANCH  20  24
ENDBRANCH   1  17
BRANCH   1  30
ATOM     30  C   UNL     1       1.460   4.721   1.301  0.00  0.00    +0.173 A 
ATOM     31  N   UNL     1       0.419   5.378   1.751  0.00  0.00    -0.111 NA
ATOM     32  N   UNL     1      -0.580   5.116   0.981  0.00  0.00    -0.023 NA
ATOM     33  N   UNL     1      -0.202   4.313   0.048  0.00  0.00    -0.044 NA
ATOM     34  N   UNL     1       1.048   4.042   0.214  0.00  0.00    -0.225 N 
BRANCH  34  35
ATOM     35  C   UNL     1       1.867   3.164  -0.626  0.00  0.00    +0.179 C 
BRANCH  35  36
ATOM     36  C   UNL     1       1.803   1.735  -0.084  0.00  0.00    +0.140 C 
ATOM     37  C   UNL     1       2.672   0.784  -0.947  0.00  0.00    +0.035 C 
ATOM     38  C   UNL     1       2.009  -0.589  -0.685  0.00  0.00    +0.031 C 
ATOM     39  C   UNL     1       0.593  -0.236  -0.190  0.00  0.00    +0.160 C 
ATOM     40  O   UNL     1       0.472   1.196  -0.227  0.00  0.00    -0.375 OA
ENDBRANCH  35  36
ENDBRANCH  34  35
ENDBRANCH   1  30
TORSDOF 8
