REMARK  Name = ZINC55309025
REMARK  10 active torsions:
REMARK  status: ('A' for Active; 'I' for Inactive)
REMARK    1  A    between atoms: C_1  and  C_2
REMARK    2  A    between atoms: C_2  and  C_27
REMARK    3  A    between atoms: C_7  and  C_11
REMARK    4  A    between atoms: C_11  and  C_12
REMARK    5  A    between atoms: C_12  and  N_13
REMARK    6  A    between atoms: C_14  and  C_16
REMARK    7  A    between atoms: C_16  and  C_17
REMARK    8  A    between atoms: C_16  and  C_18
REMARK    9  A    between atoms: C_16  and  N_19
REMARK   10  A    between atoms: C_20  and  C_22
REMARK                            x       y       z     vdW  Elec       q    Type
REMARK                         _______ _______ _______ _____ _____    ______ ____
ROOT
ATOM      1  N   UNL     1       4.492  -3.274   0.418  0.00  0.00    -0.313 N 
ATOM      2  C   UNL     1       5.486  -3.266  -0.492  0.00  0.00    +0.236 C 
ATOM      3  O   UNL     1       5.319  -2.732  -1.568  0.00  0.00    -0.273 OA
ATOM      4  H   UNL     1       4.626  -3.701   1.278  0.00  0.00    +0.149 HD
ENDROOT
BRANCH   2   5
ATOM      5  C   UNL     1       6.805  -3.921  -0.173  0.00  0.00    +0.105 C 
ATOM      6  C   UNL     1       6.722  -5.415  -0.492  0.00  0.00    +0.041 C 
ATOM      7  C   UNL     1       7.910  -3.280  -1.016  0.00  0.00    +0.041 C 
BRANCH   5   8
ATOM      8  N   UNL     1       7.108  -3.741   1.249  0.00  0.00    -0.297 N 
ATOM      9  C   UNL     1       8.246  -4.248   1.764  0.00  0.00    +0.251 C 
ATOM     10  O   UNL     1       9.021  -4.854   1.049  0.00  0.00    -0.270 OA
ATOM     11  H   UNL     1       6.490  -3.258   1.819  0.00  0.00    +0.150 HD
BRANCH   9  12
ATOM     12  C   UNL     1       8.549  -4.068   3.187  0.00  0.00    +0.074 A 
ATOM     13  C   UNL     1       9.653  -4.499   3.906  0.00  0.00    +0.021 A 
ATOM     14  C   UNL     1       9.659  -4.176   5.242  0.00  0.00    +0.008 A 
ATOM     15  C   UNL     1       8.616  -3.478   5.756  0.00  0.00    +0.046 A 
ATOM     16  S   UNL     1       7.599  -3.231   4.442  0.00  0.00    -0.092 S 
ENDBRANCH   9  12
ENDBRANCH   5   8
ENDBRANCH   2   5
BRANCH   1  17
ATOM     17  C   UNL     1       3.210  -2.637   0.108  0.00  0.00    +0.108 C 
BRANCH  17  18
ATOM     18  C   UNL     1       2.264  -2.786   1.301  0.00  0.00    +0.049 C 
BRANCH  18  24
ATOM     19  C   UNL     1      -0.019   1.526   0.010  0.00  0.00    +0.012 C 
ATOM     20  C   UNL     1       0.002  -0.004   0.002  0.00  0.00    -0.025 C 
ATOM     21  C   UNL     1      -1.270  -0.649   0.589  0.00  0.00    -0.000 C 
ATOM     22  C   UNL     1      -1.366  -2.128   0.191  0.00  0.00    +0.031 C 
ATOM     23  C   UNL     1      -0.064  -2.825   0.505  0.00  0.00    -0.027 C 
ATOM     24  C   UNL     1       0.945  -2.131   0.982  0.00  0.00    -0.068 C 
ATOM     25  C   UNL     1       0.726  -0.624   1.211  0.00  0.00    +0.021 C 
ATOM     26  C   UNL     1      -0.613  -0.421   1.961  0.00  0.00    +0.012 C 
ATOM     27  C   UNL     1       0.432  -0.590  -1.344  0.00  0.00    +0.012 C 
ENDBRANCH  18  24
ENDBRANCH  17  18
ENDBRANCH   1  17
TORSDOF 6
