REMARK  Name = ZINC28083202
REMARK  8 active torsions:
REMARK  status: ('A' for Active; 'I' for Inactive)
REMARK    1  A    between atoms: C_1  and  C_2
REMARK    2  A    between atoms: C_3  and  C_14
REMARK    3  A    between atoms: C_4  and  C_13
REMARK    4  A    between atoms: C_9  and  S_11
REMARK    5  A    between atoms: S_11  and  C_12
REMARK    6  A    between atoms: C_14  and  C_15
REMARK    7  A    between atoms: N_17  and  N_18
REMARK    8  A    between atoms: C_19  and  C_21
REMARK                            x       y       z     vdW  Elec       q    Type
REMARK                         _______ _______ _______ _____ _____    ______ ____
ROOT
ATOM      1  C   UNL     1       4.150   4.855  -1.433  0.00  0.00    +0.234 C 
ATOM      2  O   UNL     1       3.786   4.157  -2.355  0.00  0.00    -0.274 OA
ATOM      3  N   UNL     1       4.744   6.040  -1.679  0.00  0.00    -0.234 N 
ATOM      4  H   UNL     1       5.074   6.673  -0.842  0.00  0.00    +0.173 HD
ENDROOT
BRANCH   3   5
ATOM      5  N   UNL     1       4.942   6.463  -2.999  0.00  0.00    -0.230 N 
ATOM      6  C   UNL     1       5.537   7.648  -3.245  0.00  0.00    +0.267 C 
ATOM      7  O   UNL     1       5.902   8.349  -2.320  0.00  0.00    -0.268 OA
ATOM      8  H   UNL     1       4.612   5.830  -3.836  0.00  0.00    +0.173 HD
BRANCH   6   9
ATOM      9  C   UNL     1       5.744   8.091  -4.627  0.00  0.00    +0.076 A 
ATOM     10  C   UNL     1       6.319   9.254  -5.091  0.00  0.00    +0.024 A 
ATOM     11  C   UNL     1       6.415   9.439  -6.473  0.00  0.00    -0.036 A 
ATOM     12  C   UNL     1       5.873   8.487  -7.258  0.00  0.00    -0.006 A 
ATOM     13  S   UNL     1       5.312   7.273  -6.149  0.00  0.00    -0.088 S 
ATOM     14  C   UNL     1       5.655   8.389  -8.745  0.00  0.00    +0.043 C 
ATOM     15  C   UNL     1       6.141   9.636  -9.486  0.00  0.00    +0.005 C 
ATOM     16  C   UNL     1       7.649   9.599  -9.674  0.00  0.00    +0.000 C 
ATOM     17  C   UNL     1       8.375   9.015  -8.478  0.00  0.00    +0.000 C 
ATOM     18  C   UNL     1       8.569  10.154  -7.472  0.00  0.00    +0.005 C 
ATOM     19  C   UNL     1       7.197  10.635  -6.998  0.00  0.00    +0.036 C 
ENDBRANCH   6   9
ENDBRANCH   3   5
BRANCH   1  20
ATOM     20  C   UNL     1       3.937   4.399  -0.013  0.00  0.00    +0.136 C 
BRANCH  20  23
ATOM     21  C   UNL     1       5.522   1.956  -0.041  0.00  0.00    +0.066 C 
ATOM     22  C   UNL     1       4.017   1.878  -0.027  0.00  0.00    +0.047 A 
ATOM     23  C   UNL     1       3.258   3.054  -0.013  0.00  0.00    +0.004 A 
ATOM     24  C   UNL     1       1.902   2.968  -0.001  0.00  0.00    +0.049 A 
ATOM     25  N   UNL     1       1.318   1.742  -0.001  0.00  0.00    -0.200 N 
ATOM     26  C   UNL     1       2.088   0.612  -0.015  0.00  0.00    +0.254 A 
ATOM     27  N   UNL     1       3.423   0.706  -0.027  0.00  0.00    -0.216 NA
ATOM     28  N   UNL     1       1.263  -0.430  -0.012  0.00  0.00    -0.183 NA
ATOM     29  C   UNL     1       0.002  -0.004   0.002  0.00  0.00    +0.211 A 
ATOM     30  N   UNL     1      -0.016   1.314   0.009  0.00  0.00    -0.137 NA
ATOM     31  C   UNL     1       1.058   4.216   0.014  0.00  0.00    +0.066 C 
BRANCH  29  32
ATOM     32  S   UNL     1      -1.422  -1.041   0.009  0.00  0.00    -0.088 S 
ATOM     33  C   UNL     1      -0.741  -2.723  -0.006  0.00  0.00    +0.093 C 
ENDBRANCH  29  32
ENDBRANCH  20  23
ENDBRANCH   1  20
TORSDOF 5
