REMARK  Name = ZINC55412231
REMARK  4 active torsions:
REMARK  status: ('A' for Active; 'I' for Inactive)
REMARK    1  A    between atoms: C_1  and  C_2
REMARK    2  A    between atoms: C_3  and  C_25
REMARK    3  A    between atoms: C_4  and  C_19
REMARK    4  A    between atoms: C_9  and  C_11
REMARK                            x       y       z     vdW  Elec       q    Type
REMARK                         _______ _______ _______ _____ _____    ______ ____
ROOT
ATOM      1  C   UNL     1      -0.727   0.594  -1.218  0.00  0.00    +0.062 C 
ATOM      2  C   UNL     1      -1.036   1.851  -1.992  0.00  0.00    +0.034 C 
ATOM      3  C   UNL     1      -0.656   3.174  -1.391  0.00  0.00    +0.148 C 
ATOM      4  C   UNL     1      -0.278   4.190  -2.474  0.00  0.00    +0.158 C 
ATOM      5  N   UNL     1      -1.236   4.057  -3.572  0.00  0.00    -0.220 N 
ATOM      6  C   UNL     1      -1.847   2.871  -3.873  0.00  0.00    +0.250 A 
ATOM      7  N   UNL     1      -2.624   3.075  -4.904  0.00  0.00    -0.189 NA
ATOM      8  C   UNL     1      -2.547   4.360  -5.280  0.00  0.00    +0.185 A 
ATOM      9  N   UNL     1      -1.706   4.995  -4.485  0.00  0.00    -0.147 NA
ATOM     10  N   UNL     1      -1.610   1.741  -3.144  0.00  0.00    -0.220 NA
ENDROOT
BRANCH   8  11
ATOM     11  C   UNL     1      -3.288   4.970  -6.412  0.00  0.00    +0.039 A 
ATOM     12  C   UNL     1      -3.119   6.321  -6.711  0.00  0.00    +0.013 A 
ATOM     13  C   UNL     1      -3.811   6.883  -7.764  0.00  0.00    +0.001 A 
ATOM     14  C   UNL     1      -4.671   6.110  -8.523  0.00  0.00    +0.001 A 
ATOM     15  C   UNL     1      -4.844   4.770  -8.231  0.00  0.00    +0.021 A 
ATOM     16  C   UNL     1      -4.152   4.194  -7.183  0.00  0.00    +0.052 A 
ATOM     17 CL   UNL     1      -4.362   2.509  -6.823  0.00  0.00    -0.083 Cl
ENDBRANCH   8  11
BRANCH   4  18
ATOM     18  C   UNL     1      -0.342   5.585  -1.908  0.00  0.00    -0.022 A 
ATOM     19  C   UNL     1      -0.153   5.791  -0.554  0.00  0.00    +0.006 A 
ATOM     20  C   UNL     1      -0.211   7.071  -0.034  0.00  0.00    +0.000 A 
ATOM     21  C   UNL     1      -0.457   8.145  -0.869  0.00  0.00    +0.000 A 
ATOM     22  C   UNL     1      -0.644   7.939  -2.223  0.00  0.00    +0.000 A 
ATOM     23  C   UNL     1      -0.582   6.660  -2.743  0.00  0.00    +0.006 A 
ENDBRANCH   4  18
BRANCH   3  24
ATOM     24  C   UNL     1      -1.821   3.708  -0.598  0.00  0.00    +0.221 C 
ATOM     25  O   UNL     1      -2.711   4.311  -1.159  0.00  0.00    -0.275 OA
ATOM     26  N   UNL     1      -1.874   3.515   0.735  0.00  0.00    -0.329 N 
ATOM     27  H   UNL     1      -1.162   3.032   1.184  0.00  0.00    +0.145 HD
ATOM     28  H   UNL     1      -2.624   3.858   1.246  0.00  0.00    +0.145 HD
ENDBRANCH   3  24
TORSDOF 3
