REMARK  Name = ZINC13057133
REMARK  10 active torsions:
REMARK  status: ('A' for Active; 'I' for Inactive)
REMARK    1  A    between atoms: C_1  and  C_2
REMARK    2  A    between atoms: C_2  and  N_3
REMARK    3  A    between atoms: N_3  and  C_4
REMARK    4  A    between atoms: C_5  and  N_20
REMARK    5  A    between atoms: N_6  and  C_13
REMARK    6  A    between atoms: C_13  and  C_14
REMARK    7  A    between atoms: C_21  and  C_23
REMARK    8  A    between atoms: C_23  and  N_61
REMARK    9  A    between atoms: C_25  and  C_32
REMARK   10  A    between atoms: C_28  and  C_31
REMARK                            x       y       z     vdW  Elec       q    Type
REMARK                         _______ _______ _______ _____ _____    ______ ____
ROOT
ATOM      1  C   UNL     1       4.011   3.548  -3.339  0.00  0.00    +0.140 A 
ATOM      2  C   UNL     1       2.664   3.674  -3.606  0.00  0.00    +0.128 A 
ATOM      3  N   UNL     1       1.907   4.537  -2.849  0.00  0.00    -0.276 N 
ATOM      4  C   UNL     1       2.472   5.243  -1.852  0.00  0.00    +0.331 A 
ATOM      5  O   UNL     1       1.785   5.998  -1.191  0.00  0.00    -0.246 OA
ATOM      6  N   UNL     1       3.782   5.128  -1.573  0.00  0.00    -0.273 N 
ATOM      7  H   UNL     1       4.178   5.663  -0.827  0.00  0.00    +0.173 HD
ATOM      8  C   UNL     1       4.569   4.301  -2.288  0.00  0.00    +0.277 A 
ATOM      9  O   UNL     1       5.757   4.205  -2.028  0.00  0.00    -0.266 OA
ENDROOT
BRANCH   1  10
ATOM     10  N   UNL     1       4.816   2.674  -4.101  0.00  0.00    -0.266 N 
ATOM     11  C   UNL     1       5.370   1.589  -3.522  0.00  0.00    +0.203 C 
ATOM     12  O   UNL     1       5.106   1.315  -2.369  0.00  0.00    -0.277 OA
BRANCH  10  14
ATOM     13  C   UNL     1       6.365   3.705  -5.687  0.00  0.00    +0.025 C 
ATOM     14  C   UNL     1       5.048   2.945  -5.522  0.00  0.00    +0.110 C 
ENDBRANCH  10  14
BRANCH  11  15
ATOM     15  C   UNL     1       6.318   0.718  -4.305  0.00  0.00    +0.019 C 
BRANCH  15  23
ATOM     16  C   UNL     1       7.596   0.109  -2.341  0.00  0.00    -0.075 C 
ATOM     17  C   UNL     1       7.938  -1.049  -1.401  0.00  0.00    -0.031 C 
ATOM     18  C   UNL     1       8.704  -2.123  -2.179  0.00  0.00    +0.003 C 
ATOM     19  C   UNL     1       7.853  -2.589  -3.364  0.00  0.00    -0.031 C 
ATOM     20  C   UNL     1       7.514  -1.386  -4.247  0.00  0.00    -0.075 C 
ATOM     21  C   UNL     1       6.561  -3.223  -2.846  0.00  0.00    +0.005 C 
ATOM     22  C   UNL     1       8.805  -0.535  -0.251  0.00  0.00    +0.005 C 
ATOM     23  N   UNL     1       6.756  -0.401  -3.446  0.00  0.00    +0.386 N 
ATOM     24  H   UNL     1       5.928  -0.861  -3.050  0.00  0.00    -0.081 HD
ENDBRANCH  15  23
ENDBRANCH  11  15
ENDBRANCH   1  10
BRANCH   2  25
ATOM     25  N   UNL     1       2.085   2.949  -4.620  0.00  0.00    -0.343 N 
ATOM     26  H   UNL     1       1.129   3.005  -4.772  0.00  0.00    +0.144 HD
ATOM     27  H   UNL     1       2.633   2.380  -5.184  0.00  0.00    +0.144 HD
ENDBRANCH   2  25
BRANCH   3  28
ATOM     28  C   UNL     1       0.476   4.686  -3.126  0.00  0.00    +0.163 C 
BRANCH  28  29
ATOM     29  C   UNL     1       0.270   5.792  -4.129  0.00  0.00    -0.028 A 
ATOM     30  C   UNL     1       0.266   5.506  -5.481  0.00  0.00    +0.005 A 
ATOM     31  C   UNL     1       0.077   6.520  -6.401  0.00  0.00    +0.000 A 
ATOM     32  C   UNL     1      -0.103   7.821  -5.969  0.00  0.00    +0.000 A 
ATOM     33  C   UNL     1      -0.103   8.106  -4.616  0.00  0.00    +0.000 A 
ATOM     34  C   UNL     1       0.085   7.091  -3.696  0.00  0.00    +0.005 A 
ENDBRANCH  28  29
ENDBRANCH   3  28
TORSDOF 7
