REMARK  Name = ZINC64085549
REMARK  5 active torsions:
REMARK  status: ('A' for Active; 'I' for Inactive)
REMARK    1  A    between atoms: C_1  and  C_2
REMARK    2  A    between atoms: C_3  and  C_13
REMARK    3  A    between atoms: C_5  and  C_8
REMARK    4  A    between atoms: C_13  and  C_14
REMARK    5  A    between atoms: N_16  and  C_17
REMARK                            x       y       z     vdW  Elec       q    Type
REMARK                         _______ _______ _______ _____ _____    ______ ____
ROOT
ATOM      1  C   UNL     1       1.913   0.476  -4.057  0.00  0.00    +0.223 C 
ATOM      2  O   UNL     1       1.580  -0.688  -4.122  0.00  0.00    -0.275 OA
ATOM      3  N   UNL     1       2.566   1.050  -5.087  0.00  0.00    -0.285 N 
ATOM      4  H   UNL     1       2.773   1.997  -5.063  0.00  0.00    +0.155 HD
ENDROOT
BRANCH   3   5
ATOM      5  C   UNL     1       2.947   0.277  -6.192  0.00  0.00    +0.034 A 
ATOM      6  C   UNL     1       2.127  -0.763  -6.628  0.00  0.00    +0.025 A 
ATOM      7  C   UNL     1       2.486  -1.531  -7.712  0.00  0.00    +0.028 A 
ATOM      8  C   UNL     1       3.678  -1.274  -8.383  0.00  0.00    +0.047 A 
ATOM      9  C   UNL     1       4.507  -0.226  -7.947  0.00  0.00    +0.005 A 
ATOM     10  C   UNL     1       4.131   0.552  -6.849  0.00  0.00    +0.033 A 
ATOM     11  C   UNL     1       5.658  -0.220  -8.850  0.00  0.00    -0.019 A 
ATOM     12  C   UNL     1       5.474  -1.210  -9.739  0.00  0.00    +0.020 A 
ATOM     13  N   UNL     1       4.295  -1.854  -9.470  0.00  0.00    -0.358 N 
ATOM     14  H   UNL     1       3.946  -2.608  -9.972  0.00  0.00    +0.166 HD
ATOM     15  C   UNL     1       6.417  -1.550 -10.869  0.00  0.00    +0.053 C 
ATOM     16  C   UNL     1       7.851  -1.602 -10.339  0.00  0.00    +0.006 C 
ATOM     17  C   UNL     1       8.484  -0.216 -10.428  0.00  0.00    +0.001 C 
ATOM     18  C   UNL     1       7.433   0.867 -10.195  0.00  0.00    +0.005 C 
ATOM     19  C   UNL     1       6.841   0.712  -8.793  0.00  0.00    +0.037 C 
ENDBRANCH   3   5
BRANCH   1  20
ATOM     20  C   UNL     1       1.595   1.282  -2.823  0.00  0.00    +0.149 C 
BRANCH  20  23
ATOM     21  C   UNL     1       1.536   0.898   0.528  0.00  0.00    +0.044 C 
ATOM     22  C   UNL     1       0.375   0.853  -0.468  0.00  0.00    +0.162 C 
ATOM     23  C   UNL     1       0.867   0.415  -1.830  0.00  0.00    +0.054 C 
ATOM     24  N   UNL     1       0.559  -0.816  -1.997  0.00  0.00    -0.254 NA
ATOM     25  C   UNL     1      -0.142  -1.318  -0.809  0.00  0.00    +0.273 C 
ATOM     26  O   UNL     1      -0.580  -0.155  -0.080  0.00  0.00    -0.342 OA
BRANCH  25  27
ATOM     27  C   UNL     1      -1.328  -2.150  -1.221  0.00  0.00    +0.040 A 
ATOM     28  C   UNL     1      -1.423  -3.069  -2.213  0.00  0.00    +0.016 A 
ATOM     29  C   UNL     1      -2.627  -3.719  -2.411  0.00  0.00    +0.008 A 
ATOM     30  C   UNL     1      -3.676  -3.420  -1.607  0.00  0.00    +0.045 A 
ATOM     31  S   UNL     1      -2.971  -2.189  -0.523  0.00  0.00    -0.097 S 
ENDBRANCH  25  27
ENDBRANCH  20  23
ENDBRANCH   1  20
TORSDOF 4
