REMARK  Name = ZINC09909168
REMARK  7 active torsions:
REMARK  status: ('A' for Active; 'I' for Inactive)
REMARK    1  A    between atoms: C_1  and  C_2
REMARK    2  A    between atoms: C_2  and  C_4
REMARK    3  A    between atoms: C_2  and  N_14
REMARK    4  A    between atoms: C_15  and  C_17
REMARK    5  A    between atoms: C_17  and  N_18
REMARK    6  A    between atoms: C_21  and  C_25
REMARK    7  A    between atoms: C_21  and  C_26
REMARK                            x       y       z     vdW  Elec       q    Type
REMARK                         _______ _______ _______ _____ _____    ______ ____
ROOT
ATOM      1  N   UNL     1      -0.414  -5.747  -2.876  0.00  0.00    -0.215 N 
ATOM      2  C   UNL     1       0.283  -5.974  -4.006  0.00  0.00    +0.251 C 
ATOM      3  O   UNL     1       0.711  -5.146  -4.781  0.00  0.00    -0.272 OA
ATOM      4  C   UNL     1       0.423  -7.480  -4.105  0.00  0.00    +0.135 C 
ATOM      5  N   UNL     1      -0.285  -7.973  -2.911  0.00  0.00    -0.281 N 
ATOM      6  C   UNL     1      -0.738  -6.888  -2.257  0.00  0.00    +0.310 C 
ATOM      7  O   UNL     1      -1.371  -6.939  -1.221  0.00  0.00    -0.252 OA
ATOM      8  C   UNL     1      -0.245  -7.999  -5.380  0.00  0.00    +0.047 C 
ATOM      9  H   UNL     1      -0.401  -8.899  -2.647  0.00  0.00    +0.152 HD
ENDROOT
BRANCH   4  10
ATOM     10  C   UNL     1       1.874  -7.886  -4.067  0.00  0.00    -0.012 A 
ATOM     11  C   UNL     1       2.832  -7.076  -4.648  0.00  0.00    +0.010 A 
ATOM     12  C   UNL     1       4.165  -7.441  -4.611  0.00  0.00    +0.050 A 
ATOM     13  C   UNL     1       4.542  -8.626  -4.000  0.00  0.00    +0.166 A 
ATOM     14  C   UNL     1       3.577  -9.445  -3.420  0.00  0.00    +0.167 A 
ATOM     15  C   UNL     1       2.243  -9.069  -3.456  0.00  0.00    +0.055 A 
ATOM     16  O   UNL     1       4.194 -10.541  -2.890  0.00  0.00    -0.453 OA
ATOM     17  C   UNL     1       5.587 -10.187  -2.792  0.00  0.00    +0.466 C 
ATOM     18  O   UNL     1       5.765  -9.209  -3.834  0.00  0.00    -0.453 OA
ENDBRANCH   4  10
BRANCH   1  19
ATOM     19  C   UNL     1      -0.779  -4.415  -2.388  0.00  0.00    +0.213 C 
BRANCH  19  21
ATOM     20  N   UNL     1       0.186  -2.683  -0.908  0.00  0.00    -0.307 N 
ATOM     21  C   UNL     1       0.306  -3.898  -1.478  0.00  0.00    +0.231 C 
ATOM     22  O   UNL     1       1.287  -4.576  -1.260  0.00  0.00    -0.274 OA
ATOM     23  H   UNL     1      -0.599  -2.140  -1.083  0.00  0.00    +0.149 HD
BRANCH  20  25
ATOM     24  C   UNL     1       1.011  -2.707   1.394  0.00  0.00    +0.033 C 
ATOM     25  C   UNL     1       1.241  -2.181  -0.024  0.00  0.00    +0.100 C 
BRANCH  25  26
ATOM     26  C   UNL     1       1.211  -0.674  -0.012  0.00  0.00    -0.027 A 
ATOM     27  C   UNL     1       0.002  -0.004   0.002  0.00  0.00    +0.006 A 
ATOM     28  C   UNL     1      -0.017   1.375   0.010  0.00  0.00    +0.004 A 
ATOM     29  C   UNL     1       1.170   2.097   0.002  0.00  0.00    -0.044 A 
ATOM     30  C   UNL     1       2.374   1.430  -0.007  0.00  0.00    -0.044 A 
ATOM     31  C   UNL     1       2.391   0.041  -0.016  0.00  0.00    +0.009 A 
ATOM     32  C   UNL     1       3.699   2.147  -0.003  0.00  0.00    +0.035 C 
ATOM     33  C   UNL     1       3.522   3.604  -0.427  0.00  0.00    +0.005 C 
ATOM     34  C   UNL     1       2.405   4.223   0.422  0.00  0.00    +0.005 C 
ATOM     35  C   UNL     1       1.076   3.601  -0.002  0.00  0.00    +0.035 C 
ENDBRANCH  25  26
ENDBRANCH  20  25
ENDBRANCH  19  21
ENDBRANCH   1  19
TORSDOF 5
