REMARK  Name = ZINC64062320
REMARK  8 active torsions:
REMARK  status: ('A' for Active; 'I' for Inactive)
REMARK    1  A    between atoms: C_1  and  O_2
REMARK    2  A    between atoms: O_2  and  C_3
REMARK    3  A    between atoms: C_7  and  N_9
REMARK    4  A    between atoms: C_10  and  O_36
REMARK    5  A    between atoms: C_13  and  O_35
REMARK    6  A    between atoms: C_14  and  C_18
REMARK    7  A    between atoms: C_25  and  O_30
REMARK    8  A    between atoms: O_30  and  C_31
REMARK                            x       y       z     vdW  Elec       q    Type
REMARK                         _______ _______ _______ _____ _____    ______ ____
ROOT
ATOM      1  N   UNL     1       1.387  -4.023   2.213  0.00  0.00    -0.225 N 
ATOM      2  C   UNL     1       0.686  -4.796   1.199  0.00  0.00    +0.338 C 
ATOM      3  N   UNL     1       1.203  -6.150   1.087  0.00  0.00    -0.204 NA
ATOM      4  C   UNL     1       1.876  -6.738   1.999  0.00  0.00    +0.200 C 
ATOM      5  C   UNL     1       2.218  -6.088   3.307  0.00  0.00    +0.179 C 
ATOM      6  C   UNL     1       2.095  -4.595   3.196  0.00  0.00    +0.237 C 
ATOM      7  O   UNL     1       2.646  -3.892   4.016  0.00  0.00    -0.274 OA
ENDROOT
BRANCH   5   8
ATOM      8  C   UNL     1       1.264  -6.596   4.390  0.00  0.00    +0.101 C 
ATOM      9  C   UNL     1       1.477  -8.097   4.602  0.00  0.00    +0.124 C 
ATOM     10  C   UNL     1       0.382  -8.551   5.561  0.00  0.00    -0.036 C 
ATOM     11  C   UNL     1       0.994  -9.160   6.567  0.00  0.00    +0.003 A 
ATOM     12  C   UNL     1       0.478  -9.875   7.745  0.00  0.00    +0.055 A 
ATOM     13  C   UNL     1       1.403 -10.379   8.607  0.00  0.00    +0.121 A 
ATOM     14  C   UNL     1       2.789 -10.251   8.433  0.00  0.00    +0.047 A 
ATOM     15  C   UNL     1       3.372  -9.618   7.383  0.00  0.00    +0.029 A 
ATOM     16  C   UNL     1       2.473  -9.036   6.377  0.00  0.00    +0.043 A 
ATOM     17  N   UNL     1       2.749  -8.397   5.258  0.00  0.00    -0.376 N 
ATOM     18  C   UNL     1      -1.069  -8.209   5.325  0.00  0.00    +0.048 C 
ATOM     19  C   UNL     1      -1.108  -6.703   5.005  0.00  0.00    +0.085 C 
ATOM     20  N   UNL     1      -0.128  -6.382   3.964  0.00  0.00    -0.310 NA
ATOM     21  H   UNL     1      -0.261  -5.443   3.620  0.00  0.00    +0.122 HD
ATOM     22  H   UNL     1       3.629  -8.161   4.926  0.00  0.00    +0.160 HD
BRANCH  13  23
ATOM     23  O   UNL     1       0.957 -11.044   9.705  0.00  0.00    -0.495 OA
ATOM     24  C   UNL     1       1.946 -11.563  10.596  0.00  0.00    +0.277 C 
ENDBRANCH  13  23
ENDBRANCH   5   8
BRANCH   1  29
ATOM     25  C   UNL     1       2.266  -0.526   1.474  0.00  0.00    +0.122 A 
ATOM     26  C   UNL     1       1.192   0.139   2.049  0.00  0.00    +0.046 A 
ATOM     27  C   UNL     1       0.189  -0.576   2.675  0.00  0.00    +0.005 A 
ATOM     28  C   UNL     1       0.252  -1.955   2.731  0.00  0.00    +0.024 A 
ATOM     29  C   UNL     1       1.324  -2.626   2.157  0.00  0.00    +0.044 A 
ATOM     30  C   UNL     1       2.330  -1.910   1.523  0.00  0.00    +0.069 A 
BRANCH  25  32
ATOM     31  C   UNL     1       3.122   1.601   0.846  0.00  0.00    +0.277 C 
ATOM     32  O   UNL     1       3.252   0.178   0.859  0.00  0.00    -0.495 OA
ENDBRANCH  25  32
ENDBRANCH   1  29
BRANCH   4  33
ATOM     33  O   UNL     1       2.297  -8.000   1.776  0.00  0.00    -0.495 OA
ATOM     34  H   UNL     1       2.040  -8.354   0.913  0.00  0.00    +0.293 HD
ENDBRANCH   4  33
BRANCH   2  35
ATOM     35  O   UNL     1       0.828  -4.141  -0.064  0.00  0.00    -0.356 OA
ATOM     36  H   UNL     1       0.387  -4.596  -0.794  0.00  0.00    +0.214 HD
ENDBRANCH   2  35
TORSDOF 6
