REMARK  Name = ZINC01288615
REMARK  20 active torsions:
REMARK  status: ('A' for Active; 'I' for Inactive)
REMARK    1  A    between atoms: C_1  and  C_2
REMARK    2  A    between atoms: C_2  and  C_3
REMARK    3  A    between atoms: C_2  and  C_4
REMARK    4  A    between atoms: C_2  and  C_18
REMARK    5  A    between atoms: C_7  and  O_10
REMARK    6  A    between atoms: O_10  and  C_11
REMARK    7  A    between atoms: C_11  and  C_12
REMARK    8  A    between atoms: C_12  and  C_14
REMARK    9  A    between atoms: C_12  and  O_17
REMARK   10  A    between atoms: C_14  and  N_68
REMARK   11  A    between atoms: C_15  and  N_68
REMARK   12  A    between atoms: C_16  and  N_68
REMARK   13  A    between atoms: C_21  and  O_24
REMARK   14  A    between atoms: O_24  and  C_25
REMARK   15  A    between atoms: C_25  and  C_26
REMARK   16  A    between atoms: C_26  and  C_28
REMARK   17  A    between atoms: C_26  and  O_31
REMARK   18  A    between atoms: C_28  and  N_70
REMARK   19  A    between atoms: C_29  and  N_70
REMARK   20  A    between atoms: C_30  and  N_70
REMARK                            x       y       z     vdW  Elec       q    Type
REMARK                         _______ _______ _______ _____ _____    ______ ____
ROOT
ATOM      1  C   UNL     1       4.142  10.106   1.998  0.00  0.00    +0.021 C 
ATOM      2  C   UNL     1       3.413   9.570   0.764  0.00  0.00    +0.015 C 
ATOM      3  C   UNL     1       4.250   9.850  -0.485  0.00  0.00    +0.021 C 
ENDROOT
BRANCH   2   4
ATOM      4  C   UNL     1       3.207   8.084   0.909  0.00  0.00    -0.037 A 
ATOM      5  C   UNL     1       2.590   7.579   2.038  0.00  0.00    +0.008 A 
ATOM      6  C   UNL     1       2.400   6.218   2.173  0.00  0.00    +0.046 A 
ATOM      7  C   UNL     1       2.829   5.357   1.173  0.00  0.00    +0.121 A 
ATOM      8  C   UNL     1       3.453   5.865   0.043  0.00  0.00    +0.046 A 
ATOM      9  C   UNL     1       3.636   7.228  -0.089  0.00  0.00    +0.008 A 
BRANCH   7  10
ATOM     10  O   UNL     1       2.644   4.017   1.304  0.00  0.00    -0.489 OA
BRANCH  10  11
ATOM     11  C   UNL     1       3.111   3.190   0.235  0.00  0.00    +0.258 C 
BRANCH  11  12
ATOM     12  C   UNL     1       2.817   1.724   0.559  0.00  0.00    +0.135 C 
BRANCH  12  13
ATOM     13  O   UNL     1       3.575   1.327   1.703  0.00  0.00    -0.390 OA
ATOM     14  H   UNL     1       4.532   1.407   1.588  0.00  0.00    +0.210 HD
ENDBRANCH  12  13
BRANCH  12  15
ATOM     15  C   UNL     1       3.203   0.851  -0.637  0.00  0.00    -0.045 C 
BRANCH  15  18
ATOM     16  C   UNL     1       1.349  -0.671  -0.304  0.00  0.00    -0.096 C 
ATOM     17  C   UNL     1       3.372  -1.446  -1.386  0.00  0.00    -0.096 C 
ATOM     18  N   UNL     1       2.821  -0.548  -0.349  0.00  0.00    +0.378 N 
ATOM     19  H   UNL     1       3.207  -0.817   0.564  0.00  0.00    -0.083 HD
ENDBRANCH  15  18
ENDBRANCH  12  15
ENDBRANCH  11  12
ENDBRANCH  10  11
ENDBRANCH   7  10
ENDBRANCH   2   4
BRANCH   2  20
ATOM     20  C   UNL     1       2.075  10.252   0.636  0.00  0.00    -0.037 A 
ATOM     21  C   UNL     1       0.923   9.496   0.520  0.00  0.00    +0.008 A 
ATOM     22  C   UNL     1      -0.305  10.119   0.408  0.00  0.00    +0.046 A 
ATOM     23  C   UNL     1      -0.381  11.504   0.400  0.00  0.00    +0.121 A 
ATOM     24  C   UNL     1       0.777  12.260   0.510  0.00  0.00    +0.046 A 
ATOM     25  C   UNL     1       2.002  11.633   0.628  0.00  0.00    +0.008 A 
BRANCH  23  26
ATOM     26  O   UNL     1      -1.587  12.119   0.285  0.00  0.00    -0.489 OA
BRANCH  26  27
ATOM     27  C   UNL     1      -2.736  11.277   0.176  0.00  0.00    +0.258 C 
BRANCH  27  28
ATOM     28  C   UNL     1      -3.993  12.142   0.056  0.00  0.00    +0.135 C 
BRANCH  28  29
ATOM     29  O   UNL     1      -4.179  12.881   1.264  0.00  0.00    -0.390 OA
ATOM     30  H   UNL     1      -4.287  12.329   2.051  0.00  0.00    +0.210 HD
ENDBRANCH  28  29
BRANCH  28  31
ATOM     31  C   UNL     1      -5.208  11.245  -0.186  0.00  0.00    -0.045 C 
BRANCH  31  34
ATOM     32  C   UNL     1      -6.265  12.839  -1.671  0.00  0.00    -0.096 C 
ATOM     33  C   UNL     1      -7.618  11.268  -0.421  0.00  0.00    -0.096 C 
ATOM     34  N   UNL     1      -6.396  12.099  -0.399  0.00  0.00    +0.378 N 
ATOM     35  H   UNL     1      -6.465  12.773   0.373  0.00  0.00    -0.083 HD
ENDBRANCH  31  34
ENDBRANCH  28  31
ENDBRANCH  27  28
ENDBRANCH  26  27
ENDBRANCH  23  26
ENDBRANCH   2  20
TORSDOF 14
