REMARK  Name = ZINC20647628
REMARK  6 active torsions:
REMARK  status: ('A' for Active; 'I' for Inactive)
REMARK    1  A    between atoms: C_1  and  C_2
REMARK    2  A    between atoms: C_3  and  C_30
REMARK    3  A    between atoms: N_9  and  C_12
REMARK    4  A    between atoms: C_12  and  C_13
REMARK    5  A    between atoms: C_13  and  C_14
REMARK    6  A    between atoms: C_14  and  N_15
REMARK                            x       y       z     vdW  Elec       q    Type
REMARK                         _______ _______ _______ _____ _____    ______ ____
ROOT
ATOM      1  C   UNL     1      -2.983   8.147   0.071  0.00  0.00    +0.046 C 
ATOM      2  C   UNL     1      -1.797   7.218   0.056  0.00  0.00    -0.017 A 
ATOM      3  C   UNL     1      -1.831   5.872   0.045  0.00  0.00    +0.028 A 
ATOM      4  N   UNL     1      -0.549   5.382   0.036  0.00  0.00    -0.276 N 
ATOM      5  C   UNL     1       0.348   6.417   0.032  0.00  0.00    +0.152 A 
ATOM      6  C   UNL     1      -0.391   7.602   0.044  0.00  0.00    +0.062 A 
ATOM      7  C   UNL     1       0.333   8.877   0.043  0.00  0.00    +0.117 A 
ATOM      8  N   UNL     1      -0.303  10.025   0.054  0.00  0.00    -0.384 N 
ATOM      9  N   UNL     1       1.715   8.818   0.030  0.00  0.00    -0.318 N 
ATOM     10  C   UNL     1       2.336   7.608   0.018  0.00  0.00    +0.203 A 
ATOM     11  N   UNL     1       1.691   6.480   0.019  0.00  0.00    -0.219 NA
ATOM     12  C   UNL     1      -0.211   4.035   0.026  0.00  0.00    +0.180 A 
ATOM     13  N   UNL     1       0.981   3.485   0.011  0.00  0.00    -0.222 NA
ATOM     14  C   UNL     1       1.163   2.148   0.003  0.00  0.00    +0.080 A 
ATOM     15  C   UNL     1       2.383   1.433  -0.013  0.00  0.00    +0.029 A 
ATOM     16  C   UNL     1       2.392   0.063  -0.021  0.00  0.00    +0.002 A 
ATOM     17  C   UNL     1       1.214  -0.670  -0.013  0.00  0.00    +0.001 A 
ATOM     18  C   UNL     1       0.002  -0.004   0.002  0.00  0.00    +0.017 A 
ATOM     19  C   UNL     1      -0.017   1.369   0.010  0.00  0.00    +0.041 A 
ATOM     20  S   UNL     1      -1.288   2.609   0.021  0.00  0.00    -0.049 S 
ATOM     21  C   UNL     1      -3.083   5.034   0.047  0.00  0.00    +0.064 C 
ATOM     22  H   UNL     1       0.264  10.968   0.053  0.00  0.00    +0.157 HD
ATOM     23  H   UNL     1      -1.402  10.045   0.064  0.00  0.00    +0.157 HD
ENDROOT
BRANCH   9  24
ATOM     24  C   UNL     1       2.506  10.052   0.028  0.00  0.00    +0.126 C 
BRANCH  24  25
ATOM     25  C   UNL     1       2.689  10.542   1.466  0.00  0.00    +0.037 C 
BRANCH  25  26
ATOM     26  C   UNL     1       3.515  11.830   1.464  0.00  0.00    +0.086 C 
BRANCH  26  27
ATOM     27  N   UNL     1       3.691  12.300   2.845  0.00  0.00    -0.298 NA
ATOM     28  C   UNL     1       2.407  12.717   3.427  0.00  0.00    +0.112 C 
ATOM     29  C   UNL     1       2.626  13.142   4.881  0.00  0.00    +0.175 C 
ATOM     30  O   UNL     1       3.604  14.185   4.925  0.00  0.00    -0.377 OA
ATOM     31  C   UNL     1       4.867  13.813   4.367  0.00  0.00    +0.175 C 
ATOM     32  C   UNL     1       4.670  13.395   2.907  0.00  0.00    +0.112 C 
ENDBRANCH  26  27
ENDBRANCH  25  26
ENDBRANCH  24  25
ENDBRANCH   9  24
TORSDOF 4
