REMARK  Name = ZINC61591547
REMARK  3 active torsions:
REMARK  status: ('A' for Active; 'I' for Inactive)
REMARK    1  A    between atoms: C_4  and  O_7
REMARK    2  A    between atoms: O_7  and  C_8
REMARK    3  A    between atoms: C_13  and  N_14
REMARK                            x       y       z     vdW  Elec       q    Type
REMARK                         _______ _______ _______ _____ _____    ______ ____
ROOT
ATOM      1  C   UNL     1       3.561  -1.987   0.061  0.00  0.00    +0.152 A 
ATOM      2  C   UNL     1       2.350  -2.662   0.062  0.00  0.00    +0.048 A 
ATOM      3  C   UNL     1       2.326  -4.040   0.162  0.00  0.00    +0.004 A 
ATOM      4  C   UNL     1       3.509  -4.750   0.261  0.00  0.00    +0.002 A 
ATOM      5  C   UNL     1       4.720  -4.085   0.261  0.00  0.00    +0.030 A 
ATOM      6  C   UNL     1       4.752  -2.703   0.155  0.00  0.00    +0.096 A 
ENDROOT
BRANCH   6   7
ATOM      7  N   UNL     1       5.981  -2.026   0.149  0.00  0.00    -0.236 N 
ATOM      8  C   UNL     1       6.629  -1.575   1.239  0.00  0.00    +0.348 A 
ATOM      9  O   UNL     1       6.249  -1.686   2.389  0.00  0.00    -0.245 OA
ATOM     10  N   UNL     1       7.771  -0.981   0.839  0.00  0.00    -0.249 N 
ATOM     11  H   UNL     1       8.436  -0.566   1.411  0.00  0.00    +0.191 HD
ATOM     12  N   UNL     1       7.817  -1.076  -0.560  0.00  0.00    -0.275 N 
ATOM     13  C   UNL     1       6.702  -1.729  -0.948  0.00  0.00    +0.181 A 
ATOM     14  S   UNL     1       6.276  -2.111  -2.562  0.00  0.00    -0.011 S 
ATOM     15  H   UNL     1       8.519  -0.740  -1.139  0.00  0.00    +0.189 HD
ENDBRANCH   6   7
BRANCH   1  16
ATOM     16  O   UNL     1       3.586  -0.632  -0.036  0.00  0.00    -0.454 OA
BRANCH  16  20
ATOM     17  C   UNL     1      -0.012   1.385   0.070  0.00  0.00    +0.000 A 
ATOM     18  C   UNL     1       0.445   0.729   1.198  0.00  0.00    +0.004 A 
ATOM     19  C   UNL     1       1.649   0.053   1.165  0.00  0.00    +0.046 A 
ATOM     20  C   UNL     1       2.400   0.032  -0.001  0.00  0.00    +0.129 A 
ATOM     21  C   UNL     1       1.939   0.691  -1.132  0.00  0.00    +0.046 A 
ATOM     22  C   UNL     1       0.735   1.366  -1.093  0.00  0.00    +0.004 A 
ENDBRANCH  16  20
ENDBRANCH   1  16
TORSDOF 3
