REMARK  Name = ZINC05634962
REMARK  5 active torsions:
REMARK  status: ('A' for Active; 'I' for Inactive)
REMARK    1  A    between atoms: C_6  and  O_7
REMARK    2  A    between atoms: O_7  and  C_8
REMARK    3  A    between atoms: C_8  and  C_9
REMARK    4  A    between atoms: C_15  and  C_17
REMARK    5  A    between atoms: C_23  and  C_25
REMARK                            x       y       z     vdW  Elec       q    Type
REMARK                         _______ _______ _______ _____ _____    ______ ____
ROOT
ATOM      1  C   UNL     1      -1.412  -0.526   0.013  0.00  0.00    +0.141 A 
ATOM      2  N   UNL     1      -2.215  -0.814  -0.992  0.00  0.00    -0.141 NA
ATOM      3  N   UNL     1      -3.382  -1.246  -0.779  0.00  0.00    -0.126 NA
ATOM      4  C   UNL     1      -3.847  -1.429   0.445  0.00  0.00    +0.188 A 
ATOM      5  S   UNL     1      -2.473  -0.938   1.392  0.00  0.00    -0.032 S 
ATOM      6  N   UNL     1      -5.090  -1.893   0.860  0.00  0.00    -0.263 N 
ATOM      7  C   UNL     1      -6.023  -2.230  -0.052  0.00  0.00    +0.223 C 
ATOM      8  O   UNL     1      -5.778  -2.128  -1.236  0.00  0.00    -0.275 OA
ATOM      9  H   UNL     1      -5.286  -1.974   1.807  0.00  0.00    +0.157 HD
ENDROOT
BRANCH   7  10
ATOM     10  C   UNL     1      -7.371  -2.732   0.399  0.00  0.00    +0.089 C 
ATOM     11  C   UNL     1      -7.189  -4.005   1.228  0.00  0.00    +0.013 C 
ATOM     12  C   UNL     1      -8.557  -4.515   1.686  0.00  0.00    +0.001 C 
ATOM     13  C   UNL     1      -9.421  -4.824   0.462  0.00  0.00    +0.001 C 
ATOM     14  C   UNL     1      -9.603  -3.551  -0.368  0.00  0.00    +0.015 C 
ATOM     15  C   UNL     1      -8.235  -3.041  -0.826  0.00  0.00    +0.114 C 
BRANCH  15  16
ATOM     16  C   UNL     1      -8.414  -1.788  -1.643  0.00  0.00    +0.360 C 
ATOM     17  O   UNL     1      -7.902  -0.754  -1.284  0.00  0.00    -0.246 OA
ATOM     18  O   UNL     1      -9.141  -1.820  -2.771  0.00  0.00    -0.246 OA
ENDBRANCH  15  16
ENDBRANCH   7  10
BRANCH   1  19
ATOM     19  C   UNL     1       0.002  -0.004   0.002  0.00  0.00    +0.293 C 
BRANCH  19  20
ATOM     20  O   UNL     1      -0.017   1.425   0.010  0.00  0.00    -0.485 OA
BRANCH  20  26
ATOM     21  C   UNL     1       2.359   1.319  -0.008  0.00  0.00    +0.047 A 
ATOM     22  C   UNL     1       3.580   1.965  -0.020  0.00  0.00    +0.023 A 
ATOM     23  C   UNL     1       3.633   3.348  -0.014  0.00  0.00    +0.041 A 
ATOM     24  C   UNL     1       2.463   4.086   0.001  0.00  0.00    +0.023 A 
ATOM     25  C   UNL     1       1.240   3.444   0.009  0.00  0.00    +0.047 A 
ATOM     26  C   UNL     1       1.185   2.058   0.002  0.00  0.00    +0.121 A 
ATOM     27 CL   UNL     1       5.169   4.157  -0.023  0.00  0.00    -0.084 Cl
ENDBRANCH  20  26
ENDBRANCH  19  20
ENDBRANCH   1  19
TORSDOF 5
