REMARK  Name = ZINC39657070
REMARK  6 active torsions:
REMARK  status: ('A' for Active; 'I' for Inactive)
REMARK    1  A    between atoms: C_1  and  C_2
REMARK    2  A    between atoms: C_7  and  C_8
REMARK    3  A    between atoms: C_12  and  C_21
REMARK    4  A    between atoms: N_23  and  C_24
REMARK    5  A    between atoms: C_24  and  C_26
REMARK    6  A    between atoms: C_24  and  C_27
REMARK                            x       y       z     vdW  Elec       q    Type
REMARK                         _______ _______ _______ _____ _____    ______ ____
ROOT
ATOM      1  C   UNL     1       0.116  -0.224   2.515  0.00  0.00    +0.247 C 
ATOM      2  O   UNL     1      -0.021   0.983   2.581  0.00  0.00    -0.270 OA
ATOM      3  N   UNL     1       0.322  -0.941   3.638  0.00  0.00    -0.296 N 
ATOM      4  C   UNL     1       0.621  -2.388   3.749  0.00  0.00    +0.121 C 
ATOM      5  C   UNL     1       1.670  -2.484   4.879  0.00  0.00    +0.100 C 
ATOM      6  C   UNL     1       1.454  -1.217   5.724  0.00  0.00    -0.004 C 
ATOM      7  C   UNL     1       0.308  -0.458   5.039  0.00  0.00    +0.115 C 
ATOM      8  C   UNL     1       2.717  -0.362   5.726  0.00  0.00    -0.010 C 
ATOM      9  C   UNL     1       2.497   0.863   6.619  0.00  0.00    -0.082 C 
ATOM     10  N   UNL     1       2.176   0.425   7.982  0.00  0.00    +0.379 N 
ATOM     11  C   UNL     1       0.910  -0.318   7.985  0.00  0.00    -0.082 C 
ATOM     12  C   UNL     1       1.063  -1.593   7.150  0.00  0.00    -0.010 C 
ATOM     13  H   UNL     1       2.914  -0.170   8.326  0.00  0.00    -0.086 HD
ATOM     14  H   UNL     1       2.091   1.232   8.582  0.00  0.00    -0.086 HD
ENDROOT
BRANCH   1  21
ATOM     15  C   UNL     1       1.419   0.969   0.225  0.00  0.00    +0.044 C 
ATOM     16  C   UNL     1       0.681  -0.338   0.092  0.00  0.00    -0.038 A 
ATOM     17  C   UNL     1       0.626  -0.980  -1.129  0.00  0.00    +0.007 A 
ATOM     18  C   UNL     1      -0.050  -2.179  -1.254  0.00  0.00    +0.038 A 
ATOM     19  C   UNL     1      -0.678  -2.745  -0.155  0.00  0.00    +0.124 A 
ATOM     20  C   UNL     1      -0.631  -2.112   1.072  0.00  0.00    +0.051 A 
ATOM     21  C   UNL     1       0.056  -0.904   1.204  0.00  0.00    +0.043 A 
ATOM     22  F   UNL     1      -1.337  -3.917  -0.284  0.00  0.00    -0.205 F 
ENDBRANCH   1  21
BRANCH   5  23
ATOM     23  C   UNL     1       3.062  -2.503   4.303  0.00  0.00    +0.219 C 
ATOM     24  O   UNL     1       3.281  -1.982   3.230  0.00  0.00    -0.275 OA
ATOM     25  N   UNL     1       4.064  -3.098   4.980  0.00  0.00    -0.308 N 
ATOM     26  H   UNL     1       3.888  -3.515   5.838  0.00  0.00    +0.149 HD
BRANCH  25  27
ATOM     27  C   UNL     1       5.417  -3.116   4.420  0.00  0.00    +0.100 C 
ATOM     28  C   UNL     1       5.557  -4.301   3.462  0.00  0.00    +0.033 C 
BRANCH  27  29
ATOM     29  C   UNL     1       6.421  -3.251   5.536  0.00  0.00    -0.027 A 
ATOM     30  C   UNL     1       6.166  -4.101   6.596  0.00  0.00    +0.006 A 
ATOM     31  C   UNL     1       7.086  -4.225   7.620  0.00  0.00    +0.015 A 
ATOM     32  C   UNL     1       8.263  -3.499   7.583  0.00  0.00    +0.018 A 
ATOM     33  C   UNL     1       8.518  -2.649   6.522  0.00  0.00    +0.015 A 
ATOM     34  C   UNL     1       7.599  -2.529   5.497  0.00  0.00    +0.006 A 
ATOM     35 BR   UNL     1       9.523  -3.668   8.983  0.00  0.00    -0.050 Br
ENDBRANCH  27  29
ENDBRANCH  25  27
ENDBRANCH   5  23
TORSDOF 4
