REMARK  Name = ZINC01052104
REMARK  9 active torsions:
REMARK  status: ('A' for Active; 'I' for Inactive)
REMARK    1  A    between atoms: C_1  and  C_2
REMARK    2  A    between atoms: C_2  and  C_3
REMARK    3  A    between atoms: C_2  and  O_4
REMARK    4  A    between atoms: O_4  and  C_5
REMARK    5  A    between atoms: C_5  and  C_7
REMARK    6  A    between atoms: C_8  and  N_27
REMARK    7  A    between atoms: C_12  and  C_14
REMARK    8  A    between atoms: C_23  and  C_25
REMARK    9  A    between atoms: C_23  and  C_26
REMARK                            x       y       z     vdW  Elec       q    Type
REMARK                         _______ _______ _______ _____ _____    ______ ____
ROOT
ATOM      1  C   UNL     1      -0.723   1.559   1.244  0.00  0.00    +0.105 C 
ATOM      2  C   UNL     1      -0.323   2.700   1.862  0.00  0.00    +0.195 C 
ATOM      3  O   UNL     1       0.780   3.356   1.472  0.00  0.00    -0.446 OA
ATOM      4  C   UNL     1       1.737   2.708   0.781  0.00  0.00    +0.115 C 
ATOM      5  C   UNL     1       1.468   1.577   0.105  0.00  0.00    +0.045 C 
ATOM      6  C   UNL     1       0.074   0.996   0.100  0.00  0.00    +0.097 C 
ATOM      7  C   UNL     1       2.471   0.898  -0.616  0.00  0.00    +0.164 C 
ATOM      8  O   UNL     1       2.185  -0.109  -1.231  0.00  0.00    -0.292 OA
ATOM      9  C   UNL     1       3.889   1.400  -0.637  0.00  0.00    +0.086 C 
ATOM     10  C   UNL     1       4.161   2.169   0.661  0.00  0.00    -0.021 C 
ATOM     11  C   UNL     1       3.130   3.293   0.783  0.00  0.00    +0.081 C 
ATOM     12  C   UNL     1       4.033   1.222   1.856  0.00  0.00    +0.012 C 
ATOM     13  C   UNL     1       5.571   2.761   0.622  0.00  0.00    +0.012 C 
ENDROOT
BRANCH   6  14
ATOM     14  C   UNL     1      -0.607   1.343  -1.199  0.00  0.00    -0.035 A 
ATOM     15  C   UNL     1      -0.803   2.667  -1.545  0.00  0.00    +0.004 A 
ATOM     16  C   UNL     1      -1.424   2.985  -2.738  0.00  0.00    +0.000 A 
ATOM     17  C   UNL     1      -1.857   1.979  -3.581  0.00  0.00    +0.000 A 
ATOM     18  C   UNL     1      -1.665   0.655  -3.234  0.00  0.00    +0.000 A 
ATOM     19  C   UNL     1      -1.040   0.337  -2.042  0.00  0.00    +0.004 A 
ENDBRANCH   6  14
BRANCH   2  20
ATOM     20  N   UNL     1      -1.061   3.191   2.906  0.00  0.00    -0.329 N 
ATOM     21  H   UNL     1      -0.743   3.958   3.406  0.00  0.00    +0.145 HD
ATOM     22  H   UNL     1      -1.903   2.772   3.144  0.00  0.00    +0.145 HD
ENDBRANCH   2  20
BRANCH   1  23
ATOM     23  C   UNL     1      -1.885   0.901   1.674  0.00  0.00    +0.341 C 
ATOM     24  O   UNL     1      -1.800  -0.086   2.383  0.00  0.00    -0.245 OA
BRANCH  23  25
ATOM     25  O   UNL     1      -3.099   1.363   1.302  0.00  0.00    -0.459 OA
BRANCH  25  27
ATOM     26  C   UNL     1      -4.687   1.228   3.119  0.00  0.00    +0.052 C 
ATOM     27  C   UNL     1      -4.240   0.645   1.777  0.00  0.00    +0.171 C 
ATOM     28  C   UNL     1      -5.379   0.769   0.763  0.00  0.00    +0.052 C 
ENDBRANCH  25  27
ENDBRANCH  23  25
ENDBRANCH   1  23
TORSDOF 5
