REMARK  Name = ZINC07408913
REMARK  4 active torsions:
REMARK  status: ('A' for Active; 'I' for Inactive)
REMARK    1  A    between atoms: C_9  and  C_12
REMARK    2  A    between atoms: N_14  and  N_15
REMARK    3  A    between atoms: N_15  and  S_16
REMARK    4  A    between atoms: S_16  and  C_19
REMARK                            x       y       z     vdW  Elec       q    Type
REMARK                         _______ _______ _______ _____ _____    ______ ____
ROOT
ATOM      1  C   UNL     1       4.898  -2.639  -0.050  0.00  0.00    +0.272 C 
ATOM      2  O   UNL     1       5.739  -2.006   0.552  0.00  0.00    -0.270 OA
ATOM      3  N   UNL     1       5.136  -3.921  -0.391  0.00  0.00    -0.229 N 
ATOM      4  H   UNL     1       4.464  -4.428  -0.873  0.00  0.00    +0.171 HD
ENDROOT
BRANCH   1  13
ATOM      5  C   UNL     1      -0.017   1.378   0.010  0.00  0.00    +0.004 A 
ATOM      6  C   UNL     1       1.170   2.088   0.002  0.00  0.00    +0.004 A 
ATOM      7  C   UNL     1       2.378   1.418  -0.012  0.00  0.00    +0.049 A 
ATOM      8  C   UNL     1       2.404   0.031  -0.019  0.00  0.00    +0.163 A 
ATOM      9  C   UNL     1       1.212  -0.683  -0.014  0.00  0.00    +0.162 A 
ATOM     10  C   UNL     1       0.002  -0.004   0.002  0.00  0.00    +0.049 A 
ATOM     11  O   UNL     1       1.214  -2.043  -0.029  0.00  0.00    -0.484 OA
ATOM     12  C   UNL     1       2.441  -2.689   0.331  0.00  0.00    +0.283 C 
ATOM     13  C   UNL     1       3.587  -1.993  -0.416  0.00  0.00    +0.297 C 
ATOM     14  O   UNL     1       3.602  -0.615  -0.029  0.00  0.00    -0.472 OA
ENDBRANCH   1  13
BRANCH   3  15
ATOM     15  N   UNL     1       6.355  -4.522  -0.051  0.00  0.00    -0.108 NA
ATOM     16  H   UNL     1       7.191  -4.111  -0.322  0.00  0.00    +0.172 HD
BRANCH  15  17
ATOM     17  S   UNL     1       6.369  -5.934   0.814  0.00  0.00    +0.074 S 
ATOM     18  O   UNL     1       7.724  -6.360   0.874  0.00  0.00    -0.152 OA
ATOM     19  O   UNL     1       5.591  -5.704   1.981  0.00  0.00    -0.152 OA
BRANCH  17  20
ATOM     20  C   UNL     1       5.504  -7.138  -0.139  0.00  0.00    +0.108 A 
ATOM     21  C   UNL     1       4.139  -7.290   0.016  0.00  0.00    +0.028 A 
ATOM     22  C   UNL     1       3.459  -8.234  -0.732  0.00  0.00    +0.003 A 
ATOM     23  C   UNL     1       4.145  -9.026  -1.633  0.00  0.00    +0.020 A 
ATOM     24  C   UNL     1       5.511  -8.874  -1.788  0.00  0.00    +0.043 A 
ATOM     25  C   UNL     1       6.190  -7.925  -1.044  0.00  0.00    +0.048 A 
ATOM     26 CL   UNL     1       6.372  -9.869  -2.920  0.00  0.00    -0.083 Cl
ENDBRANCH  17  20
ENDBRANCH  15  17
ENDBRANCH   3  15
TORSDOF 4
