REMARK  Name = ZINC63272208
REMARK  6 active torsions:
REMARK  status: ('A' for Active; 'I' for Inactive)
REMARK    1  A    between atoms: C_6  and  C_11
REMARK    2  A    between atoms: C_11  and  C_12
REMARK    3  A    between atoms: C_12  and  N_13
REMARK    4  A    between atoms: C_14  and  C_16
REMARK    5  A    between atoms: C_16  and  N_17
REMARK    6  A    between atoms: N_17  and  C_18
REMARK                            x       y       z     vdW  Elec       q    Type
REMARK                         _______ _______ _______ _____ _____    ______ ____
ROOT
ATOM      1  N   UNL     1       5.000  -3.595  -1.503  0.00  0.00    -0.314 N 
ATOM      2  C   UNL     1       5.312  -4.189  -2.672  0.00  0.00    +0.230 C 
ATOM      3  O   UNL     1       5.184  -3.581  -3.714  0.00  0.00    -0.274 OA
ATOM      4  H   UNL     1       5.102  -4.081  -0.670  0.00  0.00    +0.149 HD
ENDROOT
BRANCH   1   5
ATOM      5  C   UNL     1       4.508  -2.215  -1.491  0.00  0.00    +0.108 C 
BRANCH   5   6
ATOM      6  C   UNL     1       4.231  -1.785  -0.049  0.00  0.00    +0.052 C 
BRANCH   6  12
ATOM      7  C   UNL     1      -0.017   1.399   0.010  0.00  0.00    +0.022 A 
ATOM      8  C   UNL     1       1.109   2.143   0.003  0.00  0.00    +0.027 A 
ATOM      9  C   UNL     1       2.385   1.516  -0.013  0.00  0.00    +0.043 A 
ATOM     10  N   UNL     1       3.600   2.009  -0.022  0.00  0.00    -0.380 N 
ATOM     11  C   UNL     1       4.557   0.897  -0.038  0.00  0.00    +0.144 C 
ATOM     12  C   UNL     1       3.724  -0.366  -0.036  0.00  0.00    -0.040 C 
ATOM     13  C   UNL     1       2.433   0.036  -0.021  0.00  0.00    +0.000 A 
ATOM     14  C   UNL     1       1.163  -0.699  -0.013  0.00  0.00    +0.030 A 
ATOM     15  C   UNL     1       0.002  -0.004   0.002  0.00  0.00    +0.042 A 
ATOM     16 CL   UNL     1      -1.502  -0.870   0.012  0.00  0.00    -0.084 Cl
ATOM     17  H   UNL     1       3.828   2.952  -0.020  0.00  0.00    +0.160 HD
ENDBRANCH   6  12
ENDBRANCH   5   6
ENDBRANCH   1   5
BRANCH   2  18
ATOM     18  C   UNL     1       5.819  -5.608  -2.685  0.00  0.00    +0.198 C 
BRANCH  18  19
ATOM     19  N   UNL     1       6.083  -6.020  -4.066  0.00  0.00    -0.319 N 
ATOM     20  H   UNL     1       5.925  -5.401  -4.795  0.00  0.00    +0.148 HD
BRANCH  19  21
ATOM     21  C   UNL     1       6.559  -7.292  -4.329  0.00  0.00    +0.152 A 
ATOM     22  C   UNL     1       6.818  -7.704  -5.647  0.00  0.00    +0.147 A 
ATOM     23  N   UNL     1       6.714  -7.120  -6.865  0.00  0.00    -0.231 NA
ATOM     24  C   UNL     1       7.091  -7.962  -7.783  0.00  0.00    +0.198 A 
ATOM     25  N   UNL     1       7.463  -9.142  -7.208  0.00  0.00    -0.329 N 
ATOM     26  C   UNL     1       7.300  -9.008  -5.853  0.00  0.00    +0.164 A 
ATOM     27  N   UNL     1       7.493  -9.799  -4.802  0.00  0.00    -0.198 NA
ATOM     28  C   UNL     1       7.237  -9.370  -3.583  0.00  0.00    +0.226 A 
ATOM     29  N   UNL     1       6.787  -8.151  -3.341  0.00  0.00    -0.200 NA
ATOM     30  H   UNL     1       7.783  -9.931  -7.673  0.00  0.00    +0.168 HD
ATOM     31 CL   UNL     1       7.505 -10.443  -2.245  0.00  0.00    -0.041 Cl
ENDBRANCH  19  21
ENDBRANCH  18  19
ENDBRANCH   2  18
TORSDOF 6
