REMARK  Name = ZINC05834018
REMARK  11 active torsions:
REMARK  status: ('A' for Active; 'I' for Inactive)
REMARK    1  A    between atoms: C_1  and  O_2
REMARK    2  A    between atoms: O_2  and  C_3
REMARK    3  A    between atoms: C_8  and  O_9
REMARK    4  A    between atoms: O_9  and  C_10
REMARK    5  A    between atoms: C_13  and  C_16
REMARK    6  A    between atoms: C_17  and  S_30
REMARK    7  A    between atoms: C_23  and  O_28
REMARK    8  A    between atoms: C_24  and  O_26
REMARK    9  A    between atoms: O_26  and  C_27
REMARK   10  A    between atoms: O_28  and  C_29
REMARK   11  A    between atoms: S_30  and  C_31
REMARK                            x       y       z     vdW  Elec       q    Type
REMARK                         _______ _______ _______ _____ _____    ______ ____
ROOT
ATOM      1  C   UNL     1       0.901  -2.147  -0.136  0.00  0.00    -0.011 C 
ATOM      2  C   UNL     1      -0.431  -2.261   0.004  0.00  0.00    +0.067 C 
ATOM      3  C   UNL     1      -1.004  -0.908   0.202  0.00  0.00    +0.201 C 
ATOM      4  O   UNL     1      -2.175  -0.632   0.361  0.00  0.00    -0.286 OA
ATOM      5  C   UNL     1       0.137   0.043   0.167  0.00  0.00    +0.034 A 
ATOM      6  C   UNL     1       1.299  -0.727  -0.040  0.00  0.00    -0.005 A 
ATOM      7  C   UNL     1       2.532  -0.096  -0.117  0.00  0.00    +0.058 A 
ATOM      8  C   UNL     1       2.615   1.291   0.011  0.00  0.00    +0.162 A 
ATOM      9  C   UNL     1       1.467   2.045   0.216  0.00  0.00    +0.162 A 
ATOM     10  C   UNL     1       0.225   1.419   0.294  0.00  0.00    +0.061 A 
ENDROOT
BRANCH   1  19
ATOM     11  C   UNL     1       6.509  -2.824  -1.314  0.00  0.00    +0.162 A 
ATOM     12  C   UNL     1       5.269  -2.837  -1.937  0.00  0.00    +0.053 A 
ATOM     13  C   UNL     1       4.119  -3.018  -1.197  0.00  0.00    -0.032 A 
ATOM     14  C   UNL     1       4.197  -3.191   0.187  0.00  0.00    +0.025 A 
ATOM     15  C   UNL     1       5.455  -3.178   0.815  0.00  0.00    +0.061 A 
ATOM     16  C   UNL     1       6.599  -2.996   0.067  0.00  0.00    +0.162 A 
ATOM     17  C   UNL     1       2.858  -3.367   0.765  0.00  0.00    +0.171 C 
ATOM     18  O   UNL     1       2.606  -3.536   1.939  0.00  0.00    -0.291 OA
ATOM     19  C   UNL     1       1.849  -3.298  -0.356  0.00  0.00    +0.096 C 
ATOM     20  C   UNL     1       2.673  -3.071  -1.631  0.00  0.00    +0.052 C 
BRANCH  11  22
ATOM     21  C   UNL     1       7.471  -2.474  -3.459  0.00  0.00    +0.277 C 
ATOM     22  O   UNL     1       7.636  -2.644  -2.050  0.00  0.00    -0.491 OA
ENDBRANCH  11  22
BRANCH  16  23
ATOM     23  O   UNL     1       7.815  -2.983   0.676  0.00  0.00    -0.491 OA
ATOM     24  C   UNL     1       7.832  -3.165   2.094  0.00  0.00    +0.277 C 
ENDBRANCH  16  23
ENDBRANCH   1  19
BRANCH   9  25
ATOM     25  O   UNL     1       1.556   3.396   0.340  0.00  0.00    -0.491 OA
ATOM     26  C   UNL     1       0.336   4.110   0.548  0.00  0.00    +0.277 C 
ENDBRANCH   9  25
BRANCH   8  27
ATOM     27  O   UNL     1       3.823   1.906  -0.064  0.00  0.00    -0.491 OA
ATOM     28  C   UNL     1       4.964   1.071  -0.276  0.00  0.00    +0.277 C 
ENDBRANCH   8  27
BRANCH   2  29
ATOM     29  S   UNL     1      -1.344  -3.767  -0.042  0.00  0.00    -0.053 S 
BRANCH  29  30
ATOM     30  C   UNL     1      -2.280  -3.513  -1.514  0.00  0.00    +0.127 C 
ATOM     31  N   UNL     1      -2.063  -2.459  -2.251  0.00  0.00    -0.382 N 
ATOM     32  N   UNL     1      -3.239  -4.426  -1.885  0.00  0.00    -0.339 N 
ATOM     33  H   UNL     1      -2.647  -2.300  -3.169  0.00  0.00    +0.158 HD
ATOM     34  H   UNL     1      -3.823  -4.268  -2.804  0.00  0.00    +0.144 HD
ATOM     35  H   UNL     1      -3.422  -5.316  -1.264  0.00  0.00    +0.144 HD
ATOM     36  H   UNL     1      -1.296  -1.728  -1.953  0.00  0.00    +0.158 HD
ENDBRANCH  29  30
ENDBRANCH   2  29
TORSDOF 7
