REMARK  Name = ZINC01439868
REMARK  4 active torsions:
REMARK  status: ('A' for Active; 'I' for Inactive)
REMARK    1  A    between atoms: C_1  and  O_2
REMARK    2  A    between atoms: O_2  and  C_3
REMARK    3  A    between atoms: C_7  and  C_9
REMARK    4  A    between atoms: C_14  and  C_24
REMARK                            x       y       z     vdW  Elec       q    Type
REMARK                         _______ _______ _______ _____ _____    ______ ____
ROOT
ATOM      1  C   UNL     1       2.440   4.006  -0.196  0.00  0.00    +0.032 C 
ATOM      2  C   UNL     1       3.307   3.622  -1.393  0.00  0.00    +0.059 C 
ATOM      3  C   UNL     1       4.638   4.353  -1.327  0.00  0.00    +0.017 C 
ATOM      4  C   UNL     1       5.194   4.653  -0.141  0.00  0.00    +0.037 C 
ATOM      5  C   UNL     1       6.511   5.361   0.066  0.00  0.00    +0.139 C 
ATOM      6  N   UNL     1       7.318   5.493  -1.128  0.00  0.00    -0.331 N 
ATOM      7  C   UNL     1       6.885   6.264  -2.205  0.00  0.00    +0.049 A 
ATOM      8  C   UNL     1       7.560   7.409  -2.595  0.00  0.00    +0.025 A 
ATOM      9  C   UNL     1       7.064   8.168  -3.641  0.00  0.00    +0.002 A 
ATOM     10  C   UNL     1       5.903   7.791  -4.290  0.00  0.00    +0.002 A 
ATOM     11  C   UNL     1       5.235   6.638  -3.914  0.00  0.00    +0.025 A 
ATOM     12  C   UNL     1       5.743   5.866  -2.884  0.00  0.00    +0.052 A 
ATOM     13  N   UNL     1       5.190   4.640  -2.533  0.00  0.00    -0.316 N 
ATOM     14  C   UNL     1       4.535   4.306   1.062  0.00  0.00    +0.163 C 
ATOM     15  O   UNL     1       5.068   4.574   2.121  0.00  0.00    -0.292 OA
ATOM     16  C   UNL     1       3.203   3.618   1.076  0.00  0.00    +0.088 C 
ATOM     17  H   UNL     1       8.173   5.037  -1.179  0.00  0.00    +0.147 HD
ATOM     18  H   UNL     1       5.200   3.936  -3.200  0.00  0.00    +0.152 HD
ENDROOT
BRANCH   5  19
ATOM     19  C   UNL     1       6.232   6.739   0.608  0.00  0.00    +0.012 A 
ATOM     20  C   UNL     1       4.965   7.282   0.499  0.00  0.00    +0.008 A 
ATOM     21  C   UNL     1       4.707   8.544   1.001  0.00  0.00    +0.001 A 
ATOM     22  C   UNL     1       5.719   9.269   1.602  0.00  0.00    +0.003 A 
ATOM     23  C   UNL     1       6.987   8.732   1.708  0.00  0.00    +0.039 A 
ATOM     24  C   UNL     1       7.245   7.465   1.210  0.00  0.00    +0.129 A 
ATOM     25  F   UNL     1       8.485   6.938   1.312  0.00  0.00    -0.205 F 
ENDBRANCH   5  19
BRANCH   1  30
ATOM     26  C   UNL     1      -1.265   3.277  -0.341  0.00  0.00    +0.120 A 
ATOM     27  C   UNL     1      -1.270   1.889  -0.365  0.00  0.00    +0.045 A 
ATOM     28  C   UNL     1      -0.077   1.194  -0.327  0.00  0.00    +0.004 A 
ATOM     29  C   UNL     1       1.122   1.880  -0.274  0.00  0.00    +0.004 A 
ATOM     30  C   UNL     1       1.131   3.262  -0.254  0.00  0.00    -0.040 A 
ATOM     31  C   UNL     1      -0.060   3.962  -0.288  0.00  0.00    +0.049 A 
BRANCH  26  33
ATOM     32  C   UNL     1      -3.639   3.192  -0.428  0.00  0.00    +0.277 C 
ATOM     33  O   UNL     1      -2.437   3.963  -0.374  0.00  0.00    -0.495 OA
ENDBRANCH  26  33
ENDBRANCH   1  30
TORSDOF 3
