REMARK  Name = ZINC20532137
REMARK  7 active torsions:
REMARK  status: ('A' for Active; 'I' for Inactive)
REMARK    1  A    between atoms: C_1  and  C_2
REMARK    2  A    between atoms: C_2  and  C_3
REMARK    3  A    between atoms: C_3  and  C_5
REMARK    4  A    between atoms: C_3  and  N_20
REMARK    5  A    between atoms: C_9  and  N_10
REMARK    6  A    between atoms: N_16  and  C_19
REMARK    7  A    between atoms: N_23  and  C_24
REMARK                            x       y       z     vdW  Elec       q    Type
REMARK                         _______ _______ _______ _____ _____    ______ ____
ROOT
ATOM      1  C   UNL     1      -1.142   1.727   1.160  0.00  0.00    +0.107 C 
ENDROOT
BRANCH   1   2
ATOM      2  C   UNL     1      -1.106   2.448   2.483  0.00  0.00    +0.007 A 
ATOM      3  C   UNL     1      -1.754   1.907   3.591  0.00  0.00    -0.034 A 
ATOM      4  C   UNL     1      -1.675   2.615   4.752  0.00  0.00    -0.021 A 
ATOM      5  S   UNL     1      -0.713   4.038   4.316  0.00  0.00    -0.077 S 
ATOM      6  C   UNL     1      -0.447   3.632   2.597  0.00  0.00    +0.090 A 
ATOM      7  C   UNL     1      -2.278   2.249   6.068  0.00  0.00    -0.036 C 
ATOM      8  N   UNL     1      -3.262   1.173   5.840  0.00  0.00    +0.381 N 
ATOM      9  C   UNL     1      -2.680   0.105   5.016  0.00  0.00    -0.074 C 
ATOM     10  C   UNL     1      -2.511   0.582   3.571  0.00  0.00    +0.018 C 
ATOM     11  C   UNL     1      -3.765   0.641   7.113  0.00  0.00    -0.096 C 
ATOM     12  H   UNL     1      -4.119   1.596   5.293  0.00  0.00    -0.082 HD
BRANCH   6  13
ATOM     13  N   UNL     1       0.259   4.346   1.621  0.00  0.00    -0.317 N 
ATOM     14  C   UNL     1       0.543   3.904   0.361  0.00  0.00    +0.092 A 
ATOM     15  C   UNL     1       1.232   4.871  -0.280  0.00  0.00    +0.019 A 
ATOM     16  C   UNL     1       1.386   5.946   0.618  0.00  0.00    +0.019 A 
ATOM     17  C   UNL     1       0.781   5.598   1.773  0.00  0.00    +0.092 A 
ENDBRANCH   6  13
ENDBRANCH   1   2
BRANCH   1  18
ATOM     18  N   UNL     1      -2.340   0.885   1.095  0.00  0.00    -0.292 N 
ATOM     19  C   UNL     1      -3.527   1.426   0.758  0.00  0.00    +0.301 C 
ATOM     20  O   UNL     1      -3.604   2.614   0.508  0.00  0.00    -0.253 OA
ATOM     21  N   UNL     1      -4.628   0.651   0.699  0.00  0.00    -0.294 N 
ATOM     22  H   UNL     1      -2.269  -0.189   1.321  0.00  0.00    +0.151 HD
ATOM     23  H   UNL     1      -4.558  -0.423   0.925  0.00  0.00    +0.151 HD
BRANCH  21  24
ATOM     24  C   UNL     1      -5.919   1.240   0.332  0.00  0.00    +0.037 C 
ATOM     25  C   UNL     1      -6.287   2.329   1.341  0.00  0.00    +0.029 C 
ATOM     26  C   UNL     1      -7.635   2.944   0.959  0.00  0.00    -0.008 C 
ATOM     27  C   UNL     1      -8.712   1.857   0.966  0.00  0.00    +0.007 C 
ATOM     28  C   UNL     1      -8.343   0.767  -0.043  0.00  0.00    -0.008 C 
ATOM     29  C   UNL     1      -6.995   0.153   0.339  0.00  0.00    +0.029 C 
ATOM     30  C   UNL     1      -8.246   1.380  -1.442  0.00  0.00    +0.007 C 
ATOM     31  C   UNL     1      -7.169   2.467  -1.449  0.00  0.00    -0.008 C 
ATOM     32  C   UNL     1      -7.538   3.556  -0.440  0.00  0.00    +0.007 C 
ATOM     33  C   UNL     1      -5.822   1.852  -1.067  0.00  0.00    +0.029 C 
ENDBRANCH  21  24
ENDBRANCH   1  18
BRANCH   1  35
ATOM     34  C   UNL     1       0.131   0.217  -0.370  0.00  0.00    +0.006 C 
ATOM     35  C   UNL     1       0.105   0.852   1.022  0.00  0.00    +0.024 C 
ENDBRANCH   1  35
TORSDOF 5
