REMARK  Name = ZINC03424733
REMARK  5 active torsions:
REMARK  status: ('A' for Active; 'I' for Inactive)
REMARK    1  A    between atoms: C_1  and  C_2
REMARK    2  A    between atoms: C_5  and  C_8
REMARK    3  A    between atoms: C_8  and  C_26
REMARK    4  A    between atoms: N_11  and  C_15
REMARK    5  A    between atoms: C_15  and  C_16
REMARK                            x       y       z     vdW  Elec       q    Type
REMARK                         _______ _______ _______ _____ _____    ______ ____
ROOT
ATOM      1  C   UNL     1      -0.279   4.779   3.216  0.00  0.00    +0.135 C 
ATOM      2  C   UNL     1      -0.408   4.272   1.794  0.00  0.00    +0.251 C 
ATOM      3  O   UNL     1      -1.433   4.057   1.183  0.00  0.00    -0.272 OA
ATOM      4  N   UNL     1       0.854   4.107   1.349  0.00  0.00    -0.220 N 
ATOM      5  C   UNL     1       1.753   4.444   2.281  0.00  0.00    +0.310 C 
ATOM      6  O   UNL     1       2.955   4.385   2.113  0.00  0.00    -0.252 OA
ATOM      7  N   UNL     1       1.178   4.856   3.425  0.00  0.00    -0.281 N 
ATOM      8  C   UNL     1      -0.913   3.797   4.202  0.00  0.00    +0.047 C 
ATOM      9  H   UNL     1       1.633   5.146   4.231  0.00  0.00    +0.152 HD
ENDROOT
BRANCH   1  14
ATOM     10  C   UNL     1      -2.683  10.010   3.718  0.00  0.00    +0.044 C 
ATOM     11  C   UNL     1      -2.056   8.646   3.587  0.00  0.00    -0.050 A 
ATOM     12  C   UNL     1      -0.932   8.328   4.327  0.00  0.00    +0.004 A 
ATOM     13  C   UNL     1      -0.357   7.077   4.207  0.00  0.00    +0.006 A 
ATOM     14  C   UNL     1      -0.905   6.143   3.347  0.00  0.00    -0.015 A 
ATOM     15  C   UNL     1      -2.026   6.463   2.603  0.00  0.00    +0.006 A 
ATOM     16  C   UNL     1      -2.604   7.713   2.726  0.00  0.00    +0.004 A 
ENDBRANCH   1  14
BRANCH   4  17
ATOM     17  C   UNL     1       1.199   3.626   0.010  0.00  0.00    +0.153 C 
BRANCH  17  18
ATOM     18  C   UNL     1       1.211   2.119   0.005  0.00  0.00    -0.022 A 
ATOM     19  C   UNL     1       1.041   1.430   1.167  0.00  0.00    +0.006 A 
ATOM     20  C   UNL     1       1.051   0.037   1.183  0.00  0.00    +0.001 A 
ATOM     21  C   UNL     1       1.228  -0.676   0.037  0.00  0.00    +0.008 A 
ATOM     22  C   UNL     1       1.405   0.000  -1.182  0.00  0.00    -0.018 A 
ATOM     23  C   UNL     1       1.396   1.417  -1.198  0.00  0.00    -0.013 A 
ATOM     24  C   UNL     1       1.567   2.094  -2.418  0.00  0.00    +0.009 A 
ATOM     25  C   UNL     1       1.750   1.381  -3.563  0.00  0.00    +0.001 A 
ATOM     26  C   UNL     1       1.759  -0.013  -3.547  0.00  0.00    +0.001 A 
ATOM     27  C   UNL     1       1.591  -0.701  -2.386  0.00  0.00    +0.008 A 
ENDBRANCH  17  18
ENDBRANCH   4  17
TORSDOF 3
