REMARK  Name = ZINC04914770
REMARK  3 active torsions:
REMARK  status: ('A' for Active; 'I' for Inactive)
REMARK    1  A    between atoms: C_3  and  C_10
REMARK    2  A    between atoms: C_5  and  N_7
REMARK    3  A    between atoms: C_21  and  C_24
REMARK                            x       y       z     vdW  Elec       q    Type
REMARK                         _______ _______ _______ _____ _____    ______ ____
ROOT
ATOM      1  C   UNL     1       1.283   2.116   0.001  0.00  0.00    +0.063 C 
ATOM      2  C   UNL     1       2.315   1.362  -0.841  0.00  0.00    +0.109 C 
ATOM      3  C   UNL     1       2.328  -0.086  -0.424  0.00  0.00    +0.218 C 
ATOM      4  O   UNL     1       3.364  -0.715  -0.455  0.00  0.00    -0.275 OA
ATOM      5  N   UNL     1       1.194  -0.683  -0.019  0.00  0.00    -0.289 N 
ATOM      6  C   UNL     1       0.002  -0.004   0.002  0.00  0.00    +0.018 C 
ATOM      7  C   UNL     1      -0.016   1.345   0.009  0.00  0.00    +0.020 C 
ATOM      8  C   UNL     1      -1.225   2.061   0.019  0.00  0.00    +0.162 C 
ATOM      9  O   UNL     1      -1.202   3.275   0.037  0.00  0.00    -0.292 OA
ATOM     10  C   UNL     1      -2.550   1.345   0.013  0.00  0.00    +0.088 C 
ATOM     11  C   UNL     1      -2.382  -0.004  -0.693  0.00  0.00    +0.032 C 
ATOM     12  C   UNL     1      -1.282  -0.795   0.020  0.00  0.00    +0.059 C 
ATOM     13  H   UNL     1       1.218  -1.611   0.264  0.00  0.00    +0.155 HD
ENDROOT
BRANCH  11  14
ATOM     14  C   UNL     1      -3.678  -0.772  -0.631  0.00  0.00    -0.043 A 
ATOM     15  C   UNL     1      -4.233  -1.092   0.594  0.00  0.00    +0.007 A 
ATOM     16  C   UNL     1      -5.424  -1.791   0.651  0.00  0.00    +0.038 A 
ATOM     17  C   UNL     1      -6.055  -2.181  -0.518  0.00  0.00    +0.123 A 
ATOM     18  C   UNL     1      -5.495  -1.864  -1.744  0.00  0.00    +0.038 A 
ATOM     19  C   UNL     1      -4.307  -1.160  -1.799  0.00  0.00    +0.007 A 
ATOM     20  F   UNL     1      -7.216  -2.870  -0.463  0.00  0.00    -0.205 F 
ENDBRANCH  11  14
BRANCH   1  23
ATOM     21  C   UNL     1       2.543   1.262   3.456  0.00  0.00    +0.003 A 
ATOM     22  C   UNL     1       2.071   1.132   2.163  0.00  0.00    +0.004 A 
ATOM     23  C   UNL     1       1.792   2.258   1.412  0.00  0.00    -0.037 A 
ATOM     24  C   UNL     1       1.974   3.515   1.958  0.00  0.00    +0.037 A 
ATOM     25  C   UNL     1       2.441   3.646   3.253  0.00  0.00    +0.126 A 
ATOM     26  C   UNL     1       2.725   2.519   4.002  0.00  0.00    +0.033 A 
BRANCH  25  27
ATOM     27  N   UNL     1       2.635   4.992   3.837  0.00  0.00    +0.056 N 
ATOM     28  O   UNL     1       2.385   5.984   3.177  0.00  0.00    -0.126 OA
ATOM     29  O   UNL     1       3.046   5.107   4.978  0.00  0.00    -0.126 OA
ENDBRANCH  25  27
ENDBRANCH   1  23
TORSDOF 3
