REMARK  Name = ZINC39675748
REMARK  9 active torsions:
REMARK  status: ('A' for Active; 'I' for Inactive)
REMARK    1  A    between atoms: C_1  and  C_2
REMARK    2  A    between atoms: C_6  and  C_9
REMARK    3  A    between atoms: C_13  and  C_22
REMARK    4  A    between atoms: N_24  and  C_25
REMARK    5  A    between atoms: C_25  and  C_26
REMARK    6  A    between atoms: C_26  and  C_28
REMARK    7  A    between atoms: C_26  and  N_34
REMARK    8  A    between atoms: N_34  and  C_35
REMARK    9  A    between atoms: N_34  and  C_36
REMARK                            x       y       z     vdW  Elec       q    Type
REMARK                         _______ _______ _______ _____ _____    ______ ____
ROOT
ATOM      1  C   UNL     1       0.270  -3.618   3.245  0.00  0.00    +0.251 C 
ATOM      2  O   UNL     1       1.243  -4.040   3.839  0.00  0.00    -0.270 OA
ATOM      3  N   UNL     1      -0.968  -3.889   3.703  0.00  0.00    -0.296 N 
ATOM      4  C   UNL     1      -2.264  -3.471   3.117  0.00  0.00    +0.121 C 
ATOM      5  C   UNL     1      -3.186  -4.699   3.292  0.00  0.00    +0.100 C 
ATOM      6  C   UNL     1      -2.577  -5.481   4.468  0.00  0.00    -0.004 C 
ATOM      7  C   UNL     1      -1.342  -4.677   4.901  0.00  0.00    +0.115 C 
ATOM      8  C   UNL     1      -3.577  -5.575   5.615  0.00  0.00    -0.010 C 
ATOM      9  C   UNL     1      -2.971  -6.407   6.749  0.00  0.00    -0.082 C 
ATOM     10  N   UNL     1      -2.640  -7.748   6.251  0.00  0.00    +0.379 N 
ATOM     11  C   UNL     1      -1.609  -7.656   5.211  0.00  0.00    -0.082 C 
ATOM     12  C   UNL     1      -2.158  -6.876   4.012  0.00  0.00    -0.010 C 
ATOM     13  H   UNL     1      -2.298  -8.313   7.013  0.00  0.00    -0.086 HD
ATOM     14  H   UNL     1      -3.469  -8.175   5.864  0.00  0.00    -0.086 HD
ENDROOT
BRANCH   1  20
ATOM     15  C   UNL     1       0.838   0.834   1.055  0.00  0.00    +0.047 C 
ATOM     16  C   UNL     1       0.719  -0.665   0.963  0.00  0.00    -0.014 A 
ATOM     17  C   UNL     1       0.774  -1.288  -0.271  0.00  0.00    +0.007 A 
ATOM     18  C   UNL     1       0.665  -2.663  -0.366  0.00  0.00    +0.021 A 
ATOM     19  C   UNL     1       0.501  -3.428   0.772  0.00  0.00    +0.056 A 
ATOM     20  C   UNL     1       0.446  -2.808   2.024  0.00  0.00    +0.091 A 
ATOM     21  C   UNL     1       0.561  -1.417   2.113  0.00  0.00    +0.140 A 
ATOM     22  F   UNL     1       0.513  -0.808   3.318  0.00  0.00    -0.204 F 
ATOM     23 CL   UNL     1       0.365  -5.154   0.649  0.00  0.00    -0.083 Cl
ENDBRANCH   1  20
BRANCH   5  24
ATOM     24  C   UNL     1      -4.589  -4.259   3.622  0.00  0.00    +0.218 C 
ATOM     25  O   UNL     1      -4.771  -3.247   4.266  0.00  0.00    -0.275 OA
ATOM     26  N   UNL     1      -5.640  -4.989   3.202  0.00  0.00    -0.316 N 
ATOM     27  H   UNL     1      -5.494  -5.798   2.688  0.00  0.00    +0.149 HD
BRANCH  26  28
ATOM     28  C   UNL     1      -7.004  -4.562   3.523  0.00  0.00    +0.093 C 
BRANCH  28  29
ATOM     29  C   UNL     1      -7.998  -5.614   3.029  0.00  0.00    -0.021 C 
BRANCH  29  30
ATOM     30  C   UNL     1      -7.949  -5.684   1.524  0.00  0.00    -0.059 A 
ATOM     31  C   UNL     1      -8.615  -4.740   0.766  0.00  0.00    +0.002 A 
ATOM     32  C   UNL     1      -8.569  -4.805  -0.615  0.00  0.00    +0.000 A 
ATOM     33  C   UNL     1      -7.856  -5.813  -1.236  0.00  0.00    +0.000 A 
ATOM     34  C   UNL     1      -7.189  -6.756  -0.477  0.00  0.00    +0.000 A 
ATOM     35  C   UNL     1      -7.231  -6.689   0.902  0.00  0.00    +0.002 A 
ENDBRANCH  29  30
BRANCH  29  36
ATOM     36  N   UNL     1      -9.355  -5.246   3.457  0.00  0.00    +0.382 N 
ATOM     37  C   UNL     1     -10.311  -6.250   2.971  0.00  0.00    -0.096 C 
ATOM     38  C   UNL     1      -9.406  -5.190   4.924  0.00  0.00    -0.096 C 
ATOM     39  H   UNL     1      -9.594  -4.343   3.077  0.00  0.00    -0.082 HD
ENDBRANCH  29  36
ENDBRANCH  28  29
ENDBRANCH  26  28
ENDBRANCH   5  24
TORSDOF 6
