REMARK  Name = ZINC13002424
REMARK  7 active torsions:
REMARK  status: ('A' for Active; 'I' for Inactive)
REMARK    1  A    between atoms: C_4  and  C_7
REMARK    2  A    between atoms: C_16  and  C_17
REMARK    3  A    between atoms: C_16  and  N_55
REMARK    4  A    between atoms: N_19  and  C_20
REMARK    5  A    between atoms: N_19  and  C_25
REMARK    6  A    between atoms: C_20  and  C_21
REMARK    7  A    between atoms: C_21  and  C_22
REMARK                            x       y       z     vdW  Elec       q    Type
REMARK                         _______ _______ _______ _____ _____    ______ ____
ROOT
ATOM      1  C   UNL     1      -1.204  -1.502   1.354  0.00  0.00    +0.020 C 
ENDROOT
BRANCH   1  10
ATOM      2  C   UNL     1      -2.832  -2.473   2.860  0.00  0.00    -0.005 C 
ATOM      3  C   UNL     1      -3.392  -2.380   4.276  0.00  0.00    -0.047 A 
ATOM      4  C   UNL     1      -4.133  -3.390   4.886  0.00  0.00    +0.010 A 
ATOM      5  C   UNL     1      -4.591  -3.224   6.149  0.00  0.00    +0.045 A 
ATOM      6  S   UNL     1      -3.986  -1.592   6.550  0.00  0.00    -0.101 S 
ATOM      7  C   UNL     1      -3.173  -1.256   5.013  0.00  0.00    -0.010 A 
ATOM      8  C   UNL     1      -2.416  -0.042   4.585  0.00  0.00    +0.024 C 
ATOM      9  C   UNL     1      -2.227  -0.121   3.061  0.00  0.00    -0.072 C 
ATOM     10  N   UNL     1      -1.738  -1.481   2.729  0.00  0.00    +0.393 N 
ATOM     11  H   UNL     1      -0.986  -1.731   3.383  0.00  0.00    -0.080 HD
BRANCH   2  15
ATOM     12  C   UNL     1      -1.230  -6.379   2.205  0.00  0.00    +0.000 A 
ATOM     13  C   UNL     1      -2.479  -6.052   1.711  0.00  0.00    +0.000 A 
ATOM     14  C   UNL     1      -2.997  -4.788   1.923  0.00  0.00    +0.002 A 
ATOM     15  C   UNL     1      -2.267  -3.851   2.629  0.00  0.00    -0.057 A 
ATOM     16  C   UNL     1      -1.016  -4.176   3.119  0.00  0.00    +0.002 A 
ATOM     17  C   UNL     1      -0.499  -5.441   2.911  0.00  0.00    +0.000 A 
ENDBRANCH   2  15
ENDBRANCH   1  10
BRANCH   1  18
ATOM     18  C   UNL     1      -0.097  -0.485   1.247  0.00  0.00    +0.203 C 
ATOM     19  O   UNL     1       0.284   0.102   2.238  0.00  0.00    -0.277 OA
ATOM     20  N   UNL     1       0.470  -0.229   0.052  0.00  0.00    -0.272 N 
BRANCH  20  21
ATOM     21  C   UNL     1       0.106  -0.981  -1.071  0.00  0.00    +0.036 A 
ATOM     22  C   UNL     1       0.794  -2.147  -1.381  0.00  0.00    +0.023 A 
ATOM     23  C   UNL     1       0.428  -2.889  -2.486  0.00  0.00    +0.002 A 
ATOM     24  C   UNL     1      -0.614  -2.467  -3.291  0.00  0.00    +0.000 A 
ATOM     25  C   UNL     1      -1.298  -1.304  -2.988  0.00  0.00    +0.002 A 
ATOM     26  C   UNL     1      -0.941  -0.559  -1.880  0.00  0.00    +0.023 A 
ENDBRANCH  20  21
BRANCH  20  27
ATOM     27  C   UNL     1       1.468   0.836  -0.072  0.00  0.00    +0.123 C 
BRANCH  27  28
ATOM     28  C   UNL     1       2.863   0.260   0.179  0.00  0.00    +0.115 C 
BRANCH  28  29
ATOM     29  C   UNL     1       3.890   1.356   0.051  0.00  0.00    +0.212 C 
ATOM     30  O   UNL     1       3.540   2.486  -0.214  0.00  0.00    -0.276 OA
ATOM     31  N   UNL     1       5.196   1.080   0.232  0.00  0.00    -0.329 N 
ATOM     32  H   UNL     1       5.476   0.175   0.444  0.00  0.00    +0.145 HD
ATOM     33  H   UNL     1       5.857   1.785   0.150  0.00  0.00    +0.145 HD
ENDBRANCH  28  29
ENDBRANCH  27  28
ENDBRANCH  20  27
ENDBRANCH   1  18
TORSDOF 7
