REMARK  Name = ZINC13574134
REMARK  11 active torsions:
REMARK  status: ('A' for Active; 'I' for Inactive)
REMARK    1  A    between atoms: C_1  and  C_2
REMARK    2  A    between atoms: C_2  and  C_3
REMARK    3  A    between atoms: C_3  and  C_4
REMARK    4  A    between atoms: C_4  and  O_29
REMARK    5  A    between atoms: C_6  and  C_21
REMARK    6  A    between atoms: C_8  and  C_13
REMARK    7  A    between atoms: C_10  and  C_12
REMARK    8  A    between atoms: C_16  and  O_19
REMARK    9  A    between atoms: O_19  and  C_20
REMARK   10  A    between atoms: C_24  and  O_27
REMARK   11  A    between atoms: O_27  and  C_28
REMARK                            x       y       z     vdW  Elec       q    Type
REMARK                         _______ _______ _______ _____ _____    ______ ____
ROOT
ATOM      1  C   UNL     1      -0.587  -2.013  -2.039  0.00  0.00    +0.066 C 
ATOM      2  C   UNL     1      -0.400  -3.262  -1.174  0.00  0.00    +0.024 C 
ATOM      3  C   UNL     1      -0.050  -2.839   0.255  0.00  0.00    -0.037 C 
ATOM      4  C   UNL     1      -1.293  -0.774   0.010  0.00  0.00    -0.034 C 
ATOM      5  C   UNL     1      -1.681  -1.135  -1.425  0.00  0.00    +0.008 C 
ATOM      6  C   UNL     1      -3.007  -1.899  -1.420  0.00  0.00    +0.009 C 
ATOM      7  N   UNL     1      -1.134  -2.006   0.807  0.00  0.00    +0.388 N 
ATOM      8  H   UNL     1      -0.907  -1.754   1.776  0.00  0.00    -0.084 HD
ATOM      9  H   UNL     1      -2.013  -2.537   0.788  0.00  0.00    -0.084 HD
ENDROOT
BRANCH   4  10
ATOM     10  C   UNL     1       0.002  -0.004   0.002  0.00  0.00    -0.061 A 
ATOM     11  C   UNL     1       0.958  -0.252   0.970  0.00  0.00    +0.005 A 
ATOM     12  C   UNL     1       2.147   0.453   0.964  0.00  0.00    +0.046 A 
ATOM     13  C   UNL     1       2.380   1.409  -0.013  0.00  0.00    +0.120 A 
ATOM     14  C   UNL     1       1.419   1.655  -0.983  0.00  0.00    +0.046 A 
ATOM     15  C   UNL     1       0.233   0.948  -0.974  0.00  0.00    +0.005 A 
BRANCH  13  16
ATOM     16  O   UNL     1       3.548   2.104  -0.020  0.00  0.00    -0.495 OA
ATOM     17  C   UNL     1       4.491   1.798   1.009  0.00  0.00    +0.277 C 
ENDBRANCH  13  16
ENDBRANCH   4  10
BRANCH   3  18
ATOM     18  C   UNL     1       0.115  -4.066   1.115  0.00  0.00    -0.061 A 
ATOM     19  C   UNL     1      -0.999  -4.709   1.621  0.00  0.00    +0.005 A 
ATOM     20  C   UNL     1      -0.851  -5.837   2.405  0.00  0.00    +0.046 A 
ATOM     21  C   UNL     1       0.418  -6.317   2.694  0.00  0.00    +0.120 A 
ATOM     22  C   UNL     1       1.535  -5.666   2.190  0.00  0.00    +0.046 A 
ATOM     23  C   UNL     1       1.381  -4.542   1.401  0.00  0.00    +0.005 A 
BRANCH  21  24
ATOM     24  O   UNL     1       0.567  -7.422   3.471  0.00  0.00    -0.495 OA
ATOM     25  C   UNL     1      -0.627  -8.040   3.955  0.00  0.00    +0.277 C 
ENDBRANCH  21  24
ENDBRANCH   3  18
BRANCH   1  26
ATOM     26  O   UNL     1       0.639  -1.280  -2.092  0.00  0.00    -0.388 OA
ATOM     27  H   UNL     1       1.378  -1.777  -2.470  0.00  0.00    +0.210 HD
ENDBRANCH   1  26
BRANCH   1  28
ATOM     28  C   UNL     1      -0.997  -2.426  -3.454  0.00  0.00    +0.034 C 
BRANCH  28  30
ATOM     29  C   UNL     1      -0.373  -3.815  -5.435  0.00  0.00    +0.004 C 
ATOM     30  C   UNL     1       0.036  -3.402  -4.020  0.00  0.00    -0.001 C 
ENDBRANCH  28  30
ENDBRANCH   1  28
TORSDOF 7
