REMARK  Name = ZINC02677904
REMARK  13 active torsions:
REMARK  status: ('A' for Active; 'I' for Inactive)
REMARK    1  A    between atoms: C_1  and  C_2
REMARK    2  A    between atoms: C_5  and  C_8
REMARK    3  A    between atoms: N_10  and  C_11
REMARK    4  A    between atoms: C_11  and  C_27
REMARK    5  A    between atoms: C_12  and  C_13
REMARK    6  A    between atoms: C_16  and  C_18
REMARK    7  A    between atoms: C_22  and  N_24
REMARK    8  A    between atoms: N_29  and  C_30
REMARK    9  A    between atoms: C_30  and  C_31
REMARK   10  A    between atoms: C_31  and  C_32
REMARK   11  A    between atoms: C_32  and  N_33
REMARK   12  A    between atoms: N_33  and  C_34
REMARK   13  A    between atoms: N_33  and  C_35
REMARK                            x       y       z     vdW  Elec       q    Type
REMARK                         _______ _______ _______ _____ _____    ______ ____
ROOT
ATOM      1  C   UNL     1      -0.027  -6.347   1.193  0.00  0.00    +0.100 C 
ATOM      2  C   UNL     1      -0.023  -7.017   2.424  0.00  0.00    +0.074 C 
ENDROOT
BRANCH   2   3
ATOM      3  C   UNL     1       0.060  -8.401   2.460  0.00  0.00    +0.131 A 
ATOM      4  C   UNL     1      -0.047  -9.249   3.657  0.00  0.00    +0.050 A 
ATOM      5  C   UNL     1       0.092 -10.530   3.230  0.00  0.00    +0.050 A 
ATOM      6  C   UNL     1       0.279 -10.495   1.826  0.00  0.00    +0.136 A 
ATOM      7  O   UNL     1       0.249  -9.220   1.402  0.00  0.00    -0.455 OA
BRANCH   6   8
ATOM      8  C   UNL     1       0.464 -11.629   0.996  0.00  0.00    +0.019 A 
ATOM      9  C   UNL     1       0.466 -12.922   1.552  0.00  0.00    +0.012 A 
ATOM     10  C   UNL     1       0.644 -14.008   0.743  0.00  0.00    +0.003 A 
ATOM     11  C   UNL     1       0.823 -13.839  -0.623  0.00  0.00    +0.033 A 
ATOM     12  C   UNL     1       0.824 -12.570  -1.182  0.00  0.00    +0.127 A 
ATOM     13  C   UNL     1       0.641 -11.470  -0.392  0.00  0.00    +0.044 A 
BRANCH  12  14
ATOM     14  N   UNL     1       1.017 -12.406  -2.640  0.00  0.00    +0.056 N 
ATOM     15  O   UNL     1       1.188 -13.465  -3.405  0.00  0.00    -0.126 OA
ATOM     16  O   UNL     1       1.018 -11.202  -3.173  0.00  0.00    -0.126 OA
ENDBRANCH  12  14
ENDBRANCH   6   8
ENDBRANCH   2   3
BRANCH   1  19
ATOM     17  C   UNL     1      -0.099  -4.349  -0.018  0.00  0.00    +0.248 C 
ATOM     18  O   UNL     1      -0.143  -4.979  -1.056  0.00  0.00    -0.270 OA
ATOM     19  N   UNL     1       0.014  -4.997   1.158  0.00  0.00    -0.277 N 
ATOM     20  H   UNL     1       0.125  -4.494   1.980  0.00  0.00    +0.155 HD
BRANCH  17  25
ATOM     21  C   UNL     1      -0.377   1.397  -0.125  0.00  0.00    +0.044 C 
ATOM     22  C   UNL     1      -0.304  -0.108  -0.097  0.00  0.00    -0.050 A 
ATOM     23  C   UNL     1      -0.354  -0.822  -1.281  0.00  0.00    +0.004 A 
ATOM     24  C   UNL     1      -0.288  -2.200  -1.263  0.00  0.00    +0.013 A 
ATOM     25  C   UNL     1      -0.170  -2.874  -0.046  0.00  0.00    +0.037 A 
ATOM     26  C   UNL     1      -0.121  -2.147   1.146  0.00  0.00    +0.013 A 
ATOM     27  C   UNL     1      -0.182  -0.770   1.113  0.00  0.00    +0.004 A 
ENDBRANCH  17  25
ENDBRANCH   1  19
BRANCH   1  28
ATOM     28  C   UNL     1      -0.076  -7.123  -0.076  0.00  0.00    +0.258 C 
ATOM     29  O   UNL     1       0.953  -7.400  -0.659  0.00  0.00    -0.269 OA
ATOM     30  N   UNL     1      -1.262  -7.519  -0.579  0.00  0.00    -0.310 N 
ATOM     31  H   UNL     1      -2.087  -7.239  -0.152  0.00  0.00    +0.149 HD
BRANCH  30  32
ATOM     32  C   UNL     1      -1.305  -8.370  -1.771  0.00  0.00    +0.103 C 
BRANCH  32  33
ATOM     33  C   UNL     1      -2.762  -8.671  -2.130  0.00  0.00    +0.000 C 
BRANCH  33  34
ATOM     34  C   UNL     1      -2.807  -9.560  -3.374  0.00  0.00    -0.078 C 
BRANCH  34  35
ATOM     35  N   UNL     1      -4.206  -9.849  -3.719  0.00  0.00    +0.376 N 
ATOM     36  C   UNL     1      -4.254 -10.601  -4.979  0.00  0.00    -0.097 C 
ATOM     37  C   UNL     1      -4.819 -10.646  -2.648  0.00  0.00    -0.097 C 
ATOM     38  H   UNL     1      -4.712  -8.982  -3.825  0.00  0.00    -0.083 HD
ENDBRANCH  34  35
ENDBRANCH  33  34
ENDBRANCH  32  33
ENDBRANCH  30  32
ENDBRANCH   1  28
TORSDOF 10
