REMARK  Name = ZINC40645263
REMARK  7 active torsions:
REMARK  status: ('A' for Active; 'I' for Inactive)
REMARK    1  A    between atoms: C_1  and  C_2
REMARK    2  A    between atoms: C_2  and  C_32
REMARK    3  A    between atoms: C_4  and  N_10
REMARK    4  A    between atoms: C_6  and  C_8
REMARK    5  A    between atoms: C_6  and  C_9
REMARK    6  A    between atoms: C_12  and  N_29
REMARK    7  A    between atoms: C_13  and  N_17
REMARK                            x       y       z     vdW  Elec       q    Type
REMARK                         _______ _______ _______ _____ _____    ______ ____
ROOT
ATOM      1  N   UNL     1       2.665  -0.895  -2.620  0.00  0.00    -0.324 N 
ATOM      2  C   UNL     1       3.840  -0.369  -3.134  0.00  0.00    +0.155 A 
ATOM      3  C   UNL     1       4.358  -0.838  -4.337  0.00  0.00    +0.205 A 
ATOM      4  C   UNL     1       5.540  -0.277  -4.810  0.00  0.00    +0.157 A 
ATOM      5  N   UNL     1       6.129   0.682  -4.099  0.00  0.00    -0.218 NA
ATOM      6  C   UNL     1       5.608   1.100  -2.964  0.00  0.00    +0.225 A 
ATOM      7  N   UNL     1       4.488   0.598  -2.485  0.00  0.00    -0.218 NA
ATOM      8  H   UNL     1       2.199  -1.599  -3.099  0.00  0.00    +0.148 HD
ENDROOT
BRANCH   4   9
ATOM      9  N   UNL     1       6.096  -0.711  -6.003  0.00  0.00    -0.310 N 
ATOM     10  C   UNL     1       5.819  -0.000  -7.260  0.00  0.00    +0.125 C 
ATOM     11  C   UNL     1       7.153   0.400  -7.901  0.00  0.00    +0.125 C 
ATOM     12  N   UNL     1       8.031  -0.778  -7.933  0.00  0.00    -0.314 N 
ATOM     13  C   UNL     1       8.309  -1.488  -6.676  0.00  0.00    +0.125 C 
ATOM     14  C   UNL     1       6.979  -1.885  -6.034  0.00  0.00    +0.125 C 
ATOM     15  C   UNL     1       8.589  -1.212  -9.129  0.00  0.00    +0.099 A 
ATOM     16  C   UNL     1       8.428  -0.451 -10.282  0.00  0.00    +0.042 A 
ATOM     17  C   UNL     1       8.988  -0.895 -11.466  0.00  0.00    +0.005 A 
ATOM     18  C   UNL     1       9.694  -2.091 -11.457  0.00  0.00    +0.018 A 
ATOM     19  C   UNL     1       9.815  -2.796 -10.277  0.00  0.00    +0.084 A 
ATOM     20  N   UNL     1       9.274  -2.345  -9.161  0.00  0.00    -0.350 N 
ATOM     21  H   UNL     1       9.378  -2.858  -8.344  0.00  0.00    +0.166 HD
ENDBRANCH   4   9
BRANCH   1  25
ATOM     22  C   UNL     1      -0.026   1.393   0.011  0.00  0.00    -0.010 C 
ATOM     23  C   UNL     1       0.033  -0.138   0.006  0.00  0.00    -0.072 C 
ATOM     24  C   UNL     1       0.616  -0.628  -1.315  0.00  0.00    +0.009 C 
ATOM     25  C   UNL     1       2.125  -0.387  -1.353  0.00  0.00    +0.069 C 
ATOM     26  C   UNL     1       2.759  -1.154  -0.192  0.00  0.00    +0.009 C 
ATOM     27  C   UNL     1       2.192  -0.669   1.138  0.00  0.00    -0.072 C 
ATOM     28  N   UNL     1       0.740  -0.643   1.169  0.00  0.00    +0.386 N 
ATOM     29  C   UNL     1       2.780   0.703   1.483  0.00  0.00    -0.010 C 
ATOM     30  C   UNL     1       2.669  -1.654   2.230  0.00  0.00    -0.010 C 
ATOM     31  C   UNL     1      -1.425  -0.647   0.084  0.00  0.00    -0.010 C 
ATOM     32  H   UNL     1       0.446  -0.098   1.986  0.00  0.00    -0.084 HD
ATOM     33  H   UNL     1       0.407  -1.594   1.358  0.00  0.00    -0.084 HD
ENDBRANCH   1  25
BRANCH   3  34
ATOM     34  N   UNL     1       3.669  -1.908  -5.094  0.00  0.00    +0.063 N 
ATOM     35  O   UNL     1       2.775  -1.627  -5.858  0.00  0.00    -0.126 OA
ATOM     36  O   UNL     1       4.000  -3.061  -4.949  0.00  0.00    -0.126 OA
ENDBRANCH   3  34
TORSDOF 3
