REMARK  Name = ZINC39686149
REMARK  8 active torsions:
REMARK  status: ('A' for Active; 'I' for Inactive)
REMARK    1  A    between atoms: C_1  and  C_2
REMARK    2  A    between atoms: C_5  and  C_8
REMARK    3  A    between atoms: C_12  and  C_21
REMARK    4  A    between atoms: N_23  and  C_24
REMARK    5  A    between atoms: C_30  and  C_32
REMARK    6  A    between atoms: C_32  and  C_33
REMARK    7  A    between atoms: C_33  and  C_34
REMARK    8  A    between atoms: C_33  and  C_35
REMARK                            x       y       z     vdW  Elec       q    Type
REMARK                         _______ _______ _______ _____ _____    ______ ____
ROOT
ATOM      1  C   UNL     1       0.057  -4.258  -0.024  0.00  0.00    +0.247 C 
ATOM      2  O   UNL     1      -0.050  -4.863  -1.073  0.00  0.00    -0.270 OA
ATOM      3  N   UNL     1       0.174  -4.934   1.136  0.00  0.00    -0.296 N 
ATOM      4  C   UNL     1       0.186  -4.383   2.511  0.00  0.00    +0.121 C 
ATOM      5  C   UNL     1      -0.633  -5.396   3.344  0.00  0.00    +0.100 C 
ATOM      6  C   UNL     1      -0.539  -6.715   2.560  0.00  0.00    -0.004 C 
ATOM      7  C   UNL     1       0.314  -6.398   1.324  0.00  0.00    +0.115 C 
ATOM      8  C   UNL     1      -1.929  -7.175   2.131  0.00  0.00    -0.010 C 
ATOM      9  C   UNL     1      -1.815  -8.518   1.403  0.00  0.00    -0.082 C 
ATOM     10  N   UNL     1      -1.204  -9.510   2.296  0.00  0.00    +0.379 N 
ATOM     11  C   UNL     1       0.167  -9.105   2.630  0.00  0.00    -0.082 C 
ATOM     12  C   UNL     1       0.138  -7.787   3.409  0.00  0.00    -0.010 C 
ATOM     13  H   UNL     1      -1.748  -9.579   3.143  0.00  0.00    -0.086 HD
ATOM     14  H   UNL     1      -1.185 -10.408   1.836  0.00  0.00    -0.086 HD
ENDROOT
BRANCH   1  19
ATOM     15  C   UNL     1       0.061   1.497  -0.011  0.00  0.00    +0.044 C 
ATOM     16  C   UNL     1       0.060  -0.010  -0.014  0.00  0.00    -0.050 A 
ATOM     17  C   UNL     1      -0.547  -0.696  -1.052  0.00  0.00    +0.004 A 
ATOM     18  C   UNL     1      -0.551  -2.076  -1.061  0.00  0.00    +0.013 A 
ATOM     19  C   UNL     1       0.058  -2.779  -0.021  0.00  0.00    +0.037 A 
ATOM     20  C   UNL     1       0.669  -2.081   1.022  0.00  0.00    +0.013 A 
ATOM     21  C   UNL     1       0.671  -0.702   1.017  0.00  0.00    +0.004 A 
ENDBRANCH   1  19
BRANCH   5  22
ATOM     22  C   UNL     1      -2.068  -4.947   3.452  0.00  0.00    +0.218 C 
ATOM     23  O   UNL     1      -2.595  -4.375   2.522  0.00  0.00    -0.275 OA
ATOM     24  N   UNL     1      -2.764  -5.184   4.581  0.00  0.00    -0.312 N 
ATOM     25  H   UNL     1      -2.342  -5.642   5.324  0.00  0.00    +0.149 HD
BRANCH  24  26
ATOM     26  C   UNL     1      -4.159  -4.748   4.686  0.00  0.00    +0.076 C 
ATOM     27  C   UNL     1      -5.073  -5.812   4.072  0.00  0.00    +0.041 C 
ATOM     28  C   UNL     1      -6.527  -5.338   4.152  0.00  0.00    +0.109 C 
ATOM     29  N   UNL     1      -6.840  -5.006   5.549  0.00  0.00    -0.301 N 
ATOM     30  C   UNL     1      -5.970  -4.061   6.263  0.00  0.00    +0.109 C 
ATOM     31  C   UNL     1      -4.522  -4.550   6.159  0.00  0.00    +0.041 C 
ATOM     32  C   UNL     1      -7.906  -5.557   6.164  0.00  0.00    +0.216 C 
ATOM     33  O   UNL     1      -8.616  -6.335   5.564  0.00  0.00    -0.276 OA
BRANCH  32  34
ATOM     34  C   UNL     1      -8.213  -5.207   7.597  0.00  0.00    +0.099 C 
BRANCH  34  35
ATOM     35  C   UNL     1      -9.464  -5.964   8.049  0.00  0.00    -0.008 C 
ATOM     36  C   UNL     1      -9.705  -5.706   9.538  0.00  0.00    +0.008 C 
ATOM     37  C   UNL     1     -10.672  -5.479   7.245  0.00  0.00    +0.008 C 
ENDBRANCH  34  35
ENDBRANCH  32  34
ENDBRANCH  24  26
ENDBRANCH   5  22
TORSDOF 5
