REMARK  Name = ZINC08836502
REMARK  3 active torsions:
REMARK  status: ('A' for Active; 'I' for Inactive)
REMARK    1  A    between atoms: C_11  and  C_13
REMARK    2  A    between atoms: N_17  and  C_20
REMARK    3  A    between atoms: C_20  and  C_21
REMARK                            x       y       z     vdW  Elec       q    Type
REMARK                         _______ _______ _______ _____ _____    ______ ____
ROOT
ATOM      1  C   UNL     1       4.633  -5.704   0.017  0.00  0.00    +0.148 A 
ATOM      2  C   UNL     1       5.973  -6.089   0.136  0.00  0.00    +0.201 A 
ATOM      3  C   UNL     1       6.295  -7.458   0.258  0.00  0.00    +0.020 A 
ATOM      4  C   UNL     1       5.312  -8.380   0.262  0.00  0.00    +0.029 A 
ATOM      5  N   UNL     1       4.005  -8.001   0.135  0.00  0.00    -0.304 N 
ATOM      6  C   UNL     1       3.640  -6.715   0.024  0.00  0.00    +0.268 A 
ATOM      7  O   UNL     1       2.462  -6.418  -0.075  0.00  0.00    -0.267 OA
ATOM      8  C   UNL     1       5.582  -9.856   0.412  0.00  0.00    +0.054 C 
ATOM      9  C   UNL     1       7.043 -10.173   0.105  0.00  0.00    +0.006 C 
ATOM     10  C   UNL     1       7.924  -9.227   0.929  0.00  0.00    +0.005 C 
ATOM     11  C   UNL     1       7.755  -7.814   0.375  0.00  0.00    +0.041 C 
ATOM     12  O   UNL     1       6.952  -5.157   0.134  0.00  0.00    -0.287 OA
ENDROOT
BRANCH   1  23
ATOM     13  C   UNL     1      -0.005   1.370  -0.101  0.00  0.00    +0.002 A 
ATOM     14  C   UNL     1       1.169   2.110  -0.114  0.00  0.00    +0.001 A 
ATOM     15  C   UNL     1       2.385   1.450  -0.120  0.00  0.00    +0.017 A 
ATOM     16  C   UNL     1       2.411   0.078  -0.114  0.00  0.00    +0.041 A 
ATOM     17  C   UNL     1       1.236  -0.708  -0.100  0.00  0.00    +0.080 A 
ATOM     18  C   UNL     1       0.012   0.000  -0.094  0.00  0.00    +0.029 A 
ATOM     19  N   UNL     1       1.426  -2.045  -0.095  0.00  0.00    -0.225 NA
ATOM     20  C   UNL     1       2.622  -2.588  -0.102  0.00  0.00    +0.166 A 
ATOM     21  S   UNL     1       3.690  -1.155  -0.118  0.00  0.00    -0.052 S 
ATOM     22  N   UNL     1       2.967  -3.928  -0.097  0.00  0.00    -0.260 N 
ATOM     23  C   UNL     1       4.265  -4.290  -0.106  0.00  0.00    +0.259 C 
ATOM     24  O   UNL     1       5.132  -3.443  -0.216  0.00  0.00    -0.269 OA
ATOM     25  H   UNL     1       2.274  -4.607  -0.087  0.00  0.00    +0.157 HD
ENDBRANCH   1  23
BRANCH   5  26
ATOM     26  C   UNL     1       2.966  -9.034   0.126  0.00  0.00    +0.199 C 
BRANCH  26  27
ATOM     27  C   UNL     1       2.433  -9.222   1.523  0.00  0.00    +0.125 A 
ATOM     28  C   UNL     1       1.394  -8.562   2.064  0.00  0.00    +0.046 A 
ATOM     29  C   UNL     1       1.240  -9.048   3.382  0.00  0.00    +0.041 A 
ATOM     30  C   UNL     1       2.195  -9.976   3.569  0.00  0.00    +0.195 A 
ATOM     31  O   UNL     1       2.911 -10.082   2.437  0.00  0.00    -0.466 OA
ENDBRANCH  26  27
ENDBRANCH   5  26
TORSDOF 3
