REMARK  Name = ZINC39302131
REMARK  6 active torsions:
REMARK  status: ('A' for Active; 'I' for Inactive)
REMARK    1  A    between atoms: N_11  and  C_12
REMARK    2  A    between atoms: C_12  and  C_13
REMARK    3  A    between atoms: C_13  and  N_14
REMARK    4  A    between atoms: C_15  and  C_17
REMARK    5  A    between atoms: C_20  and  C_23
REMARK    6  A    between atoms: C_23  and  N_24
REMARK                            x       y       z     vdW  Elec       q    Type
REMARK                         _______ _______ _______ _____ _____    ______ ____
ROOT
ATOM      1  C   UNL     1       8.936   0.262   2.530  0.00  0.00    +0.037 A 
ATOM      2  C   UNL     1       9.609   0.420   1.317  0.00  0.00    +0.013 A 
ATOM      3  C   UNL     1      10.958   0.708   1.313  0.00  0.00    +0.006 A 
ATOM      4  C   UNL     1      11.644   0.841   2.508  0.00  0.00    -0.029 A 
ATOM      5  C   UNL     1      10.983   0.685   3.713  0.00  0.00    +0.006 A 
ATOM      6  C   UNL     1       9.633   0.403   3.731  0.00  0.00    +0.013 A 
ENDROOT
BRANCH   1   8
ATOM      7  N   UNL     1       6.820  -0.181   1.380  0.00  0.00    -0.310 N 
ATOM      8  C   UNL     1       7.490  -0.046   2.542  0.00  0.00    +0.244 C 
ATOM      9  O   UNL     1       6.905  -0.178   3.599  0.00  0.00    -0.270 OA
ATOM     10  H   UNL     1       7.287  -0.076   0.536  0.00  0.00    +0.149 HD
BRANCH   7  11
ATOM     11  C   UNL     1       5.388  -0.487   1.392  0.00  0.00    +0.126 C 
BRANCH  11  12
ATOM     12  C   UNL     1       4.875  -0.586  -0.046  0.00  0.00    +0.145 C 
BRANCH  12  23
ATOM     13  C   UNL     1      -0.017   1.377   0.010  0.00  0.00    +0.002 A 
ATOM     14  C   UNL     1       1.169   2.091   0.002  0.00  0.00    +0.002 A 
ATOM     15  C   UNL     1       2.381   1.429  -0.013  0.00  0.00    +0.028 A 
ATOM     16  C   UNL     1       2.410   0.043  -0.021  0.00  0.00    +0.070 A 
ATOM     17  C   UNL     1       1.214  -0.678  -0.013  0.00  0.00    +0.067 A 
ATOM     18  C   UNL     1       0.002  -0.004   0.002  0.00  0.00    +0.028 A 
ATOM     19  N   UNL     1       1.557  -2.028  -0.023  0.00  0.00    -0.306 N 
ATOM     20  H   UNL     1       0.934  -2.772  -0.021  0.00  0.00    +0.170 HD
ATOM     21  C   UNL     1       2.900  -2.124  -0.036  0.00  0.00    +0.328 A 
ATOM     22  O   UNL     1       3.528  -3.166  -0.047  0.00  0.00    -0.247 OA
ATOM     23  N   UNL     1       3.443  -0.892  -0.035  0.00  0.00    -0.291 N 
ENDBRANCH  12  23
ENDBRANCH  11  12
ENDBRANCH   7  11
ENDBRANCH   1   8
BRANCH   4  24
ATOM     24  C   UNL     1      13.118   1.155   2.496  0.00  0.00    +0.163 C 
BRANCH  24  25
ATOM     25  N   UNL     1      13.307   2.607   2.508  0.00  0.00    -0.214 N 
ATOM     26  C   UNL     1      13.293   3.386   1.412  0.00  0.00    +0.324 C 
ATOM     27  O   UNL     1      13.180   2.971   0.275  0.00  0.00    -0.251 OA
ATOM     28  N   UNL     1      13.419   4.673   1.736  0.00  0.00    -0.240 N 
ATOM     29  C   UNL     1      13.208   5.822   0.986  0.00  0.00    +0.081 C 
ATOM     30  C   UNL     1      12.651   6.855   1.658  0.00  0.00    +0.015 C 
ATOM     31  C   UNL     1      12.294   6.688   3.072  0.00  0.00    +0.000 C 
ATOM     32  C   UNL     1      12.802   5.701   3.812  0.00  0.00    +0.013 C 
ATOM     33  C   UNL     1      13.763   4.728   3.174  0.00  0.00    +0.191 C 
ATOM     34  N   UNL     1      13.517   3.353   3.637  0.00  0.00    -0.212 NA
ATOM     35  H   UNL     1      12.716   3.313   4.250  0.00  0.00    +0.147 HD
ENDBRANCH  24  25
ENDBRANCH   4  24
TORSDOF 6
