REMARK  Name = ZINC58980268
REMARK  7 active torsions:
REMARK  status: ('A' for Active; 'I' for Inactive)
REMARK    1  A    between atoms: C_1  and  C_2
REMARK    2  A    between atoms: C_5  and  S_8
REMARK    3  A    between atoms: S_8  and  N_11
REMARK    4  A    between atoms: C_14  and  C_17
REMARK    5  A    between atoms: N_19  and  N_20
REMARK    6  A    between atoms: C_21  and  C_22
REMARK    7  A    between atoms: C_31  and  O_32
REMARK                            x       y       z     vdW  Elec       q    Type
REMARK                         _______ _______ _______ _____ _____    ______ ____
ROOT
ATOM      1  C   UNL     1       4.498  -8.132  -0.077  0.00  0.00    +0.235 C 
ATOM      2  O   UNL     1       4.276  -8.895  -0.994  0.00  0.00    -0.274 OA
ATOM      3  N   UNL     1       5.316  -8.505   0.927  0.00  0.00    -0.207 N 
ATOM      4  H   UNL     1       5.493  -7.895   1.660  0.00  0.00    +0.177 HD
ENDROOT
BRANCH   1   8
ATOM      5  N   UNL     1       1.651  -4.999  -0.034  0.00  0.00    -0.177 NA
ATOM      6  C   UNL     1       2.364  -5.199  -1.304  0.00  0.00    +0.110 C 
ATOM      7  C   UNL     1       2.984  -6.599  -1.306  0.00  0.00    +0.030 C 
ATOM      8  C   UNL     1       3.858  -6.767  -0.061  0.00  0.00    +0.079 C 
ATOM      9  C   UNL     1       2.995  -6.624   1.194  0.00  0.00    +0.030 C 
ATOM     10  C   UNL     1       2.376  -5.218   1.225  0.00  0.00    +0.110 C 
BRANCH   5  11
ATOM     11  S   UNL     1       0.063  -4.530  -0.023  0.00  0.00    +0.061 S 
ATOM     12  O   UNL     1      -0.476  -4.950   1.223  0.00  0.00    -0.153 OA
ATOM     13  O   UNL     1      -0.490  -4.937  -1.267  0.00  0.00    -0.153 OA
BRANCH  11  18
ATOM     14  C   UNL     1      -0.018   1.503   0.010  0.00  0.00    +0.044 C 
ATOM     15  C   UNL     1       0.002  -0.004   0.002  0.00  0.00    -0.050 A 
ATOM     16  C   UNL     1       0.006  -0.689  -1.199  0.00  0.00    +0.005 A 
ATOM     17  C   UNL     1       0.025  -2.071  -1.206  0.00  0.00    +0.029 A 
ATOM     18  C   UNL     1       0.040  -2.768  -0.013  0.00  0.00    +0.105 A 
ATOM     19  C   UNL     1       0.037  -2.084   1.188  0.00  0.00    +0.029 A 
ATOM     20  C   UNL     1       0.023  -0.702   1.195  0.00  0.00    +0.005 A 
ENDBRANCH  11  18
ENDBRANCH   5  11
ENDBRANCH   1   8
BRANCH   3  21
ATOM     21  N   UNL     1       5.910  -9.773   0.912  0.00  0.00    -0.188 NA
ATOM     22  C   UNL     1       6.699 -10.133   1.880  0.00  0.00    +0.142 C 
BRANCH  22  23
ATOM     23  C   UNL     1       7.323 -11.464   1.864  0.00  0.00    +0.044 A 
ATOM     24  C   UNL     1       8.208 -11.886   2.948  0.00  0.00    -0.006 A 
ATOM     25  C   UNL     1       8.491 -11.045   4.031  0.00  0.00    +0.009 A 
ATOM     26  C   UNL     1       9.321 -11.478   5.021  0.00  0.00    +0.001 A 
ATOM     27  C   UNL     1       9.893 -12.747   4.971  0.00  0.00    +0.001 A 
ATOM     28  C   UNL     1       9.640 -13.590   3.933  0.00  0.00    +0.008 A 
ATOM     29  C   UNL     1       8.788 -13.177   2.894  0.00  0.00    -0.017 A 
ATOM     30  C   UNL     1       8.502 -14.021   1.806  0.00  0.00    +0.012 A 
ATOM     31  C   UNL     1       7.677 -13.612   0.807  0.00  0.00    +0.046 A 
ATOM     32  C   UNL     1       7.079 -12.353   0.818  0.00  0.00    +0.126 A 
BRANCH  32  33
ATOM     33  O   UNL     1       6.256 -11.988  -0.199  0.00  0.00    -0.506 OA
ATOM     34  H   UNL     1       6.709 -11.553  -0.935  0.00  0.00    +0.292 HD
ENDBRANCH  32  33
ENDBRANCH  22  23
ENDBRANCH   3  21
TORSDOF 6
