REMARK  Name = ZINC09725305
REMARK  12 active torsions:
REMARK  status: ('A' for Active; 'I' for Inactive)
REMARK    1  A    between atoms: C_1  and  C_2
REMARK    2  A    between atoms: C_2  and  N_3
REMARK    3  A    between atoms: N_3  and  C_4
REMARK    4  A    between atoms: N_3  and  S_6
REMARK    5  A    between atoms: C_4  and  C_5
REMARK    6  A    between atoms: S_6  and  C_9
REMARK    7  A    between atoms: C_12  and  C_15
REMARK    8  A    between atoms: C_15  and  N_17
REMARK    9  A    between atoms: N_19  and  C_31
REMARK   10  A    between atoms: C_23  and  S_27
REMARK   11  A    between atoms: S_27  and  N_30
REMARK   12  A    between atoms: C_31  and  C_32
REMARK                            x       y       z     vdW  Elec       q    Type
REMARK                         _______ _______ _______ _____ _____    ______ ____
ROOT
ATOM      1  N   UNL     1      -4.053   3.734   0.149  0.00  0.00    -0.152 NA
ATOM      2  C   UNL     1      -3.315   3.914  -0.941  0.00  0.00    +0.167 A 
ATOM      3  N   UNL     1      -1.980   3.706  -1.100  0.00  0.00    -0.317 N 
ATOM      4  C   UNL     1      -1.381   3.956  -2.320  0.00  0.00    +0.058 A 
ATOM      5  C   UNL     1      -0.032   3.798  -2.676  0.00  0.00    +0.029 A 
ATOM      6  C   UNL     1       0.398   4.090  -3.949  0.00  0.00    +0.030 A 
ATOM      7  C   UNL     1      -0.482   4.543  -4.918  0.00  0.00    +0.106 A 
ATOM      8  C   UNL     1      -1.818   4.703  -4.595  0.00  0.00    +0.045 A 
ATOM      9  C   UNL     1      -2.249   4.411  -3.323  0.00  0.00    +0.041 A 
ATOM     10  S   UNL     1      -3.822   4.470  -2.503  0.00  0.00    -0.052 S 
ENDROOT
BRANCH   7  11
ATOM     11  S   UNL     1       0.093   4.911  -6.542  0.00  0.00    +0.056 S 
ATOM     12  O   UNL     1       1.282   4.157  -6.732  0.00  0.00    -0.153 OA
ATOM     13  O   UNL     1      -1.029   4.795  -7.406  0.00  0.00    -0.153 OA
BRANCH  11  14
ATOM     14  N   UNL     1       0.537   6.506  -6.555  0.00  0.00    -0.204 NA
ATOM     15  H   UNL     1       1.245   6.808  -7.145  0.00  0.00    +0.144 HD
ATOM     16  H   UNL     1       0.089   7.139  -5.972  0.00  0.00    +0.144 HD
ENDBRANCH  11  14
ENDBRANCH   7  11
BRANCH   1  17
ATOM     17  C   UNL     1      -5.364   3.993   0.119  0.00  0.00    +0.269 C 
ATOM     18  O   UNL     1      -5.883   4.394  -0.908  0.00  0.00    -0.268 OA
BRANCH  17  22
ATOM     19  C   UNL     1      -7.725   3.416   3.606  0.00  0.00    +0.106 A 
ATOM     20  C   UNL     1      -8.316   3.872   2.441  0.00  0.00    +0.029 A 
ATOM     21  C   UNL     1      -7.555   4.061   1.306  0.00  0.00    +0.015 A 
ATOM     22  C   UNL     1      -6.187   3.792   1.335  0.00  0.00    +0.039 A 
ATOM     23  C   UNL     1      -5.598   3.327   2.510  0.00  0.00    +0.015 A 
ATOM     24  C   UNL     1      -6.369   3.146   3.640  0.00  0.00    +0.029 A 
BRANCH  19  25
ATOM     25  S   UNL     1      -8.704   3.176   5.051  0.00  0.00    +0.061 S 
ATOM     26  O   UNL     1      -7.819   3.264   6.160  0.00  0.00    -0.153 OA
ATOM     27  O   UNL     1      -9.841   4.017   4.916  0.00  0.00    -0.153 OA
BRANCH  25  28
ATOM     28  N   UNL     1      -9.261   1.617   5.013  0.00  0.00    -0.177 NA
BRANCH  28  30
ATOM     29  C   UNL     1      -8.978   0.301   7.055  0.00  0.00    +0.022 C 
ATOM     30  C   UNL     1      -8.477   0.544   5.630  0.00  0.00    +0.106 C 
ENDBRANCH  28  30
BRANCH  28  31
ATOM     31  C   UNL     1     -10.537   1.311   4.362  0.00  0.00    +0.106 C 
ATOM     32  C   UNL     1     -10.281   0.869   2.920  0.00  0.00    +0.022 C 
ENDBRANCH  28  31
ENDBRANCH  25  28
ENDBRANCH  19  25
ENDBRANCH  17  22
ENDBRANCH   1  17
BRANCH   3  33
ATOM     33  C   UNL     1      -1.176   3.222   0.025  0.00  0.00    +0.151 C 
BRANCH  33  34
ATOM     34  C   UNL     1      -1.156   1.715   0.017  0.00  0.00    -0.013 C 
ATOM     35  C   UNL     1      -0.013   1.076   0.008  0.00  0.00    +0.005 C 
ENDBRANCH  33  34
ENDBRANCH   3  33
TORSDOF 10
