REMARK  Name = ZINC39468287
REMARK  5 active torsions:
REMARK  status: ('A' for Active; 'I' for Inactive)
REMARK    1  A    between atoms: C_1  and  S_2
REMARK    2  A    between atoms: S_2  and  P_3
REMARK    3  A    between atoms: C_11  and  O_28
REMARK    4  A    between atoms: C_12  and  C_21
REMARK    5  A    between atoms: C_26  and  O_27
REMARK                            x       y       z     vdW  Elec       q    Type
REMARK                         _______ _______ _______ _____ _____    ______ ____
ROOT
ATOM      1  P   UNL     1       1.054  -0.512   1.771  0.00  0.00    +0.314 P 
ATOM      2  O   UNL     1       2.436   0.014   1.714  0.00  0.00    -0.262 OA
ATOM      3  N   UNL     1       1.070  -2.150   1.977  0.00  0.00    -0.283 NA
ATOM      4  N   UNL     1      -0.071  -2.747   2.469  0.00  0.00    +0.398 N 
ATOM      5  C   UNL     1       0.261  -4.168   2.656  0.00  0.00    -0.046 C 
ATOM      6  C   UNL     1      -0.939  -4.944   3.183  0.00  0.00    +0.008 C 
ATOM      7  C   UNL     1      -2.086  -4.862   2.212  0.00  0.00    +0.021 C 
ATOM      8  C   UNL     1      -3.331  -5.071   2.645  0.00  0.00    +0.121 C 
ATOM      9  C   UNL     1      -3.559  -5.393   4.074  0.00  0.00    +0.023 C 
ATOM     10  C   UNL     1      -2.632  -5.055   4.983  0.00  0.00    -0.011 C 
ATOM     11  C   UNL     1      -1.377  -4.351   4.526  0.00  0.00    +0.016 C 
ATOM     12  C   UNL     1      -1.678  -2.865   4.327  0.00  0.00    -0.003 C 
ATOM     13  C   UNL     1      -0.458  -2.142   3.745  0.00  0.00    -0.020 C 
ATOM     14  C   UNL     1      -0.849  -0.668   3.573  0.00  0.00    +0.157 C 
ATOM     15  O   UNL     1       0.280   0.074   3.076  0.00  0.00    -0.312 OA
ATOM     16  H   UNL     1       1.856  -2.675   1.759  0.00  0.00    +0.112 HD
ATOM     17  H   UNL     1      -0.822  -2.646   1.803  0.00  0.00    -0.055 HD
ENDROOT
BRANCH   9  18
ATOM     18  C   UNL     1      -4.802  -6.083   4.495  0.00  0.00    +0.027 A 
ATOM     19  C   UNL     1      -5.815  -5.371   5.134  0.00  0.00    +0.012 A 
ATOM     20  C   UNL     1      -6.970  -6.018   5.524  0.00  0.00    +0.001 A 
ATOM     21  C   UNL     1      -7.126  -7.372   5.283  0.00  0.00    +0.004 A 
ATOM     22  C   UNL     1      -6.127  -8.087   4.650  0.00  0.00    +0.046 A 
ATOM     23  C   UNL     1      -4.965  -7.449   4.247  0.00  0.00    +0.125 A 
BRANCH  23  24
ATOM     24  O   UNL     1      -3.985  -8.150   3.620  0.00  0.00    -0.506 OA
ATOM     25  H   UNL     1      -3.333  -8.539   4.219  0.00  0.00    +0.292 HD
ENDBRANCH  23  24
ENDBRANCH   9  18
BRANCH   1  27
ATOM     26  C   UNL     1      -0.022   1.810   0.012  0.00  0.00    +0.096 C 
ATOM     27  S   UNL     1       0.002  -0.004   0.002  0.00  0.00    -0.059 S 
ENDBRANCH   1  27
BRANCH   8  28
ATOM     28  O   UNL     1      -4.379  -4.989   1.784  0.00  0.00    -0.506 OA
ATOM     29  H   UNL     1      -4.127  -4.774   0.876  0.00  0.00    +0.292 HD
ENDBRANCH   8  28
TORSDOF 4
