REMARK  Name = ZINC39068006
REMARK  9 active torsions:
REMARK  status: ('A' for Active; 'I' for Inactive)
REMARK    1  A    between atoms: C_1  and  C_2
REMARK    2  A    between atoms: C_6  and  N_8
REMARK    3  A    between atoms: C_9  and  C_26
REMARK    4  A    between atoms: N_12  and  C_15
REMARK    5  A    between atoms: C_15  and  N_16
REMARK    6  A    between atoms: N_16  and  C_17
REMARK    7  A    between atoms: N_16  and  C_18
REMARK    8  A    between atoms: C_18  and  C_19
REMARK    9  A    between atoms: C_19  and  C_20
REMARK                            x       y       z     vdW  Elec       q    Type
REMARK                         _______ _______ _______ _____ _____    ______ ____
ROOT
ATOM      1  N   UNL     1       0.114  -2.794   2.499  0.00  0.00    -0.260 N 
ATOM      2  C   UNL     1      -0.027  -4.258   2.552  0.00  0.00    +0.198 C 
ATOM      3  N   UNL     1      -0.039  -4.570   3.995  0.00  0.00    -0.215 NA
ATOM      4  N   UNL     1       0.084  -3.374   4.644  0.00  0.00    -0.263 N 
ATOM      5  C   UNL     1       0.176  -2.362   3.772  0.00  0.00    +0.154 C 
ATOM      6  S   UNL     1       0.348  -0.719   4.221  0.00  0.00    -0.017 S 
ATOM      7  H   UNL     1      -0.895  -5.037   4.257  0.00  0.00    +0.147 HD
ENDROOT
BRANCH   2   8
ATOM      8  C   UNL     1       1.144  -4.925   1.876  0.00  0.00    +0.014 A 
ATOM      9  C   UNL     1       1.650  -6.274   2.141  0.00  0.00    +0.006 A 
ATOM     10  C   UNL     1       1.272  -7.299   3.009  0.00  0.00    +0.010 A 
ATOM     11  C   UNL     1       1.968  -8.475   3.015  0.00  0.00    +0.001 A 
ATOM     12  C   UNL     1       3.050  -8.658   2.164  0.00  0.00    +0.002 A 
ATOM     13  C   UNL     1       3.439  -7.659   1.298  0.00  0.00    +0.026 A 
ATOM     14  C   UNL     1       2.745  -6.455   1.276  0.00  0.00    +0.047 A 
ATOM     15  N   UNL     1       2.882  -5.295   0.546  0.00  0.00    -0.360 N 
ATOM     16  C   UNL     1       1.916  -4.398   0.914  0.00  0.00    +0.090 A 
ATOM     17  H   UNL     1       3.560  -5.139  -0.130  0.00  0.00    +0.165 HD
ENDBRANCH   2   8
BRANCH   1  23
ATOM     18  C   UNL     1      -1.915  -1.300  -1.722  0.00  0.00    +0.044 C 
ATOM     19  C   UNL     1      -0.793  -1.261  -0.717  0.00  0.00    -0.049 A 
ATOM     20  C   UNL     1       0.300  -0.442  -0.934  0.00  0.00    +0.003 A 
ATOM     21  C   UNL     1       1.332  -0.403  -0.014  0.00  0.00    +0.002 A 
ATOM     22  C   UNL     1       1.273  -1.181   1.125  0.00  0.00    +0.023 A 
ATOM     23  C   UNL     1       0.176  -2.004   1.346  0.00  0.00    +0.038 A 
ATOM     24  C   UNL     1      -0.861  -2.037   0.423  0.00  0.00    +0.027 A 
ENDBRANCH   1  23
BRANCH   4  25
ATOM     25  C   UNL     1       0.116  -3.220   6.100  0.00  0.00    +0.050 C 
BRANCH  25  26
ATOM     26  N   UNL     1       1.425  -3.652   6.609  0.00  0.00    +0.389 N 
ATOM     27  C   UNL     1       2.469  -2.753   6.100  0.00  0.00    -0.094 C 
ATOM     28  H   UNL     1       1.611  -4.594   6.300  0.00  0.00    -0.080 HD
BRANCH  26  29
ATOM     29  C   UNL     1       1.416  -3.611   8.078  0.00  0.00    -0.071 C 
BRANCH  29  30
ATOM     30  C   UNL     1       2.733  -4.178   8.611  0.00  0.00    +0.037 C 
BRANCH  30  31
ATOM     31  C   UNL     1       2.725  -4.136  10.118  0.00  0.00    +0.040 A 
ATOM     32  C   UNL     1       2.960  -5.294  10.835  0.00  0.00    +0.023 A 
ATOM     33  C   UNL     1       2.950  -5.244  12.220  0.00  0.00    +0.003 A 
ATOM     34  C   UNL     1       2.702  -4.026  12.835  0.00  0.00    +0.020 A 
ATOM     35  C   UNL     1       2.475  -2.910  12.052  0.00  0.00    +0.111 A 
ATOM     36  N   UNL     1       2.498  -2.994  10.736  0.00  0.00    -0.260 NA
ENDBRANCH  30  31
ENDBRANCH  29  30
ENDBRANCH  26  29
ENDBRANCH  25  26
ENDBRANCH   4  25
TORSDOF 7
