REMARK  Name = ZINC40237142
REMARK  6 active torsions:
REMARK  status: ('A' for Active; 'I' for Inactive)
REMARK    1  A    between atoms: C_1  and  C_2
REMARK    2  A    between atoms: C_2  and  C_3
REMARK    3  A    between atoms: C_3  and  N_4
REMARK    4  A    between atoms: N_4  and  C_5
REMARK    5  A    between atoms: C_5  and  C_7
REMARK    6  A    between atoms: C_5  and  C_16
REMARK                            x       y       z     vdW  Elec       q    Type
REMARK                         _______ _______ _______ _____ _____    ______ ____
ROOT
ATOM      1  C   UNL     1       1.472  -2.466   2.424  0.00  0.00    -0.003 C 
ENDROOT
BRANCH   1   2
ATOM      2  C   UNL     1       1.600  -3.966   2.354  0.00  0.00    -0.053 A 
ATOM      3  C   UNL     1       0.546  -4.727   1.883  0.00  0.00    +0.006 A 
ATOM      4  C   UNL     1       0.659  -6.104   1.817  0.00  0.00    +0.050 A 
ATOM      5  C   UNL     1       1.830  -6.724   2.223  0.00  0.00    +0.166 A 
ATOM      6  C   UNL     1       2.891  -5.957   2.697  0.00  0.00    +0.166 A 
ATOM      7  C   UNL     1       2.773  -4.578   2.755  0.00  0.00    +0.052 A 
ATOM      8  O   UNL     1       3.918  -6.793   3.030  0.00  0.00    -0.453 OA
ATOM      9  C   UNL     1       3.329  -8.101   3.140  0.00  0.00    +0.466 C 
ATOM     10  O   UNL     1       2.191  -8.039   2.259  0.00  0.00    -0.453 OA
ENDBRANCH   1   2
BRANCH   1  11
ATOM     11  C   UNL     1       0.701  -2.085   3.660  0.00  0.00    -0.019 A 
ATOM     12  C   UNL     1       1.165  -1.637   4.852  0.00  0.00    +0.011 A 
ATOM     13  C   UNL     1       0.262  -1.345   5.857  0.00  0.00    +0.023 A 
ATOM     14  C   UNL     1      -1.062  -1.516   5.621  0.00  0.00    +0.055 A 
ATOM     15  S   UNL     1      -1.064  -2.099   3.933  0.00  0.00    -0.088 S 
ATOM     16 BR   UNL     1      -2.527  -1.211   6.776  0.00  0.00    -0.043 Br
ENDBRANCH   1  11
BRANCH   1  17
ATOM     17  N   UNL     1       0.762  -1.980   1.234  0.00  0.00    +0.387 N 
ATOM     18  H   UNL     1      -0.185  -2.329   1.241  0.00  0.00    -0.085 HD
ATOM     19  H   UNL     1       1.234  -2.305   0.403  0.00  0.00    -0.085 HD
BRANCH  17  20
ATOM     20  C   UNL     1       0.742  -0.511   1.242  0.00  0.00    -0.082 C 
BRANCH  20  22
ATOM     21  C   UNL     1      -0.019   1.526   0.010  0.00  0.00    +0.002 C 
ATOM     22  C   UNL     1       0.002  -0.004   0.002  0.00  0.00    -0.022 C 
ENDBRANCH  20  22
ENDBRANCH  17  20
ENDBRANCH   1  17
TORSDOF 5
