REMARK  Name = ZINC08791743
REMARK  6 active torsions:
REMARK  status: ('A' for Active; 'I' for Inactive)
REMARK    1  A    between atoms: C_1  and  N_2
REMARK    2  A    between atoms: C_3  and  O_33
REMARK    3  A    between atoms: C_4  and  C_17
REMARK    4  A    between atoms: N_7  and  C_10
REMARK    5  A    between atoms: C_23  and  O_29
REMARK    6  A    between atoms: O_29  and  C_30
REMARK                            x       y       z     vdW  Elec       q    Type
REMARK                         _______ _______ _______ _____ _____    ______ ____
ROOT
ATOM      1  C   UNL     1       0.205   2.564   0.032  0.00  0.00    +0.157 C 
ATOM      2  N   UNL     1      -0.593   2.270   1.225  0.00  0.00    -0.267 N 
ATOM      3  C   UNL     1       0.022   1.806   2.360  0.00  0.00    +0.204 A 
ATOM      4  C   UNL     1      -0.727   1.536   3.466  0.00  0.00    +0.069 A 
ATOM      5  C   UNL     1      -2.118   1.740   3.417  0.00  0.00    +0.267 A 
ATOM      6  O   UNL     1      -2.807   1.506   4.394  0.00  0.00    -0.267 OA
ATOM      7  N   UNL     1      -2.682   2.198   2.282  0.00  0.00    -0.229 N 
ATOM      8  C   UNL     1      -1.925   2.464   1.202  0.00  0.00    +0.339 A 
ATOM      9  O   UNL     1      -2.452   2.880   0.189  0.00  0.00    -0.246 OA
ENDROOT
BRANCH   4  10
ATOM     10  C   UNL     1      -0.075   1.024   4.725  0.00  0.00    +0.018 C 
ATOM     11  C   UNL     1      -0.236   2.042   5.830  0.00  0.00    +0.011 A 
ATOM     12  C   UNL     1      -0.582   1.702   7.096  0.00  0.00    -0.022 A 
ATOM     13  C   UNL     1      -0.647   2.927   7.862  0.00  0.00    +0.006 A 
ATOM     14  C   UNL     1      -0.949   3.194   9.201  0.00  0.00    +0.056 A 
ATOM     15  C   UNL     1      -0.912   4.523   9.597  0.00  0.00    +0.121 A 
ATOM     16  C   UNL     1      -0.593   5.543   8.709  0.00  0.00    +0.047 A 
ATOM     17  C   UNL     1      -0.292   5.298   7.381  0.00  0.00    +0.030 A 
ATOM     18  C   UNL     1      -0.321   3.971   6.958  0.00  0.00    +0.047 A 
ATOM     19  N   UNL     1      -0.080   3.395   5.741  0.00  0.00    -0.359 N 
ATOM     20  H   UNL     1       0.166   3.876   4.935  0.00  0.00    +0.166 HD
ATOM     21  C   UNL     1      -0.832   0.283   7.539  0.00  0.00    +0.018 C 
ATOM     22  C   UNL     1      -0.256  -0.656   6.470  0.00  0.00    -0.076 C 
ATOM     23  N   UNL     1      -0.730  -0.237   5.135  0.00  0.00    +0.388 N 
ATOM     24  H   UNL     1      -0.508  -0.971   4.452  0.00  0.00    -0.084 HD
ATOM     25  H   UNL     1      -1.746  -0.095   5.167  0.00  0.00    -0.084 HD
BRANCH  15  26
ATOM     26  O   UNL     1      -1.198   4.837  10.889  0.00  0.00    -0.495 OA
ATOM     27  C   UNL     1      -1.148   6.219  11.248  0.00  0.00    +0.277 C 
ENDBRANCH  15  26
ENDBRANCH   4  10
BRANCH   7  28
ATOM     28  C   UNL     1      -4.067   2.403   2.228  0.00  0.00    +0.054 A 
ATOM     29  C   UNL     1      -4.603   3.633   2.586  0.00  0.00    +0.028 A 
ATOM     30  C   UNL     1      -5.968   3.835   2.526  0.00  0.00    +0.022 A 
ATOM     31  C   UNL     1      -6.803   2.808   2.121  0.00  0.00    +0.041 A 
ATOM     32  C   UNL     1      -6.272   1.580   1.769  0.00  0.00    +0.022 A 
ATOM     33  C   UNL     1      -4.907   1.375   1.821  0.00  0.00    +0.028 A 
ATOM     34 CL   UNL     1      -8.519   3.063   2.054  0.00  0.00    -0.084 Cl
ENDBRANCH   7  28
BRANCH   3  35
ATOM     35  O   UNL     1       1.359   1.619   2.381  0.00  0.00    -0.493 OA
ATOM     36  H   UNL     1       1.800   1.839   1.549  0.00  0.00    +0.294 HD
ENDBRANCH   3  35
TORSDOF 4
