REMARK  Name = ZINC20362764
REMARK  4 active torsions:
REMARK  status: ('A' for Active; 'I' for Inactive)
REMARK    1  A    between atoms: C_1  and  C_2
REMARK    2  A    between atoms: C_3  and  C_20
REMARK    3  A    between atoms: C_12  and  C_14
REMARK    4  A    between atoms: C_22  and  C_25
REMARK                            x       y       z     vdW  Elec       q    Type
REMARK                         _______ _______ _______ _____ _____    ______ ____
ROOT
ATOM      1  C   UNL     1      -1.927   1.686  -1.195  0.00  0.00    +0.066 C 
ATOM      2  C   UNL     1      -1.606   0.236  -0.938  0.00  0.00    +0.049 A 
ATOM      3  C   UNL     1      -1.389  -0.624  -2.010  0.00  0.00    +0.047 A 
ATOM      4  C   UNL     1      -1.088  -1.969  -1.755  0.00  0.00    -0.027 A 
ATOM      5  C   UNL     1      -1.015  -2.384  -0.444  0.00  0.00    -0.008 A 
ATOM      6  C   UNL     1      -1.251  -1.466   0.570  0.00  0.00    +0.116 A 
ATOM      7  N   UNL     1      -1.528  -0.206   0.300  0.00  0.00    -0.259 NA
ATOM      8  C   UNL     1      -0.671  -3.801  -0.066  0.00  0.00    +0.145 C 
ATOM      9  N   UNL     1      -0.725  -4.654  -1.260  0.00  0.00    -0.292 N 
ATOM     10  C   UNL     1      -0.101  -4.139  -2.490  0.00  0.00    +0.113 C 
ATOM     11  C   UNL     1      -0.869  -2.890  -2.922  0.00  0.00    +0.055 C 
ATOM     12  C   UNL     1      -1.322  -5.862  -1.230  0.00  0.00    +0.265 C 
ATOM     13  O   UNL     1      -1.327  -6.562  -2.225  0.00  0.00    -0.268 OA
ENDROOT
BRANCH  12  14
ATOM     14  C   UNL     1      -1.965  -6.332   0.002  0.00  0.00    +0.121 A 
ATOM     15  C   UNL     1      -2.944  -7.281   0.105  0.00  0.00    +0.143 A 
ATOM     16  N   UNL     1      -3.249  -7.413   1.396  0.00  0.00    -0.243 NA
ATOM     17  C   UNL     1      -2.514  -6.597   2.108  0.00  0.00    +0.197 A 
ATOM     18  N   UNL     1      -1.698  -5.909   1.290  0.00  0.00    -0.341 N 
ATOM     19  H   UNL     1      -1.047  -5.241   1.554  0.00  0.00    +0.167 HD
ENDBRANCH  12  14
BRANCH   3  20
ATOM     20  C   UNL     1      -1.476  -0.124  -3.405  0.00  0.00    +0.204 A 
ATOM     21  N   UNL     1      -0.893   0.990  -3.871  0.00  0.00    -0.187 NA
ATOM     22  C   UNL     1      -1.171   1.140  -5.149  0.00  0.00    +0.265 A 
ATOM     23  O   UNL     1      -1.948   0.110  -5.532  0.00  0.00    -0.332 OA
ATOM     24  N   UNL     1      -2.129  -0.703  -4.383  0.00  0.00    -0.056 NA
BRANCH  22  25
ATOM     25  C   UNL     1      -0.713   2.240  -6.007  0.00  0.00    +0.077 A 
ATOM     26  C   UNL     1      -0.969   2.464  -7.350  0.00  0.00    +0.021 A 
ATOM     27  C   UNL     1      -0.395   3.594  -7.887  0.00  0.00    +0.008 A 
ATOM     28  C   UNL     1       0.360   4.390  -7.093  0.00  0.00    +0.046 A 
ATOM     29  S   UNL     1       0.311   3.639  -5.591  0.00  0.00    -0.092 S 
ENDBRANCH  22  25
ENDBRANCH   3  20
TORSDOF 3
