REMARK  Name = ZINC16534189
REMARK  7 active torsions:
REMARK  status: ('A' for Active; 'I' for Inactive)
REMARK    1  A    between atoms: C_1  and  C_2
REMARK    2  A    between atoms: C_3  and  C_15
REMARK    3  A    between atoms: C_4  and  O_14
REMARK    4  A    between atoms: N_5  and  C_7
REMARK    5  A    between atoms: N_19  and  C_23
REMARK    6  A    between atoms: C_23  and  C_24
REMARK    7  A    between atoms: C_28  and  C_30
REMARK                            x       y       z     vdW  Elec       q    Type
REMARK                         _______ _______ _______ _____ _____    ______ ____
ROOT
ATOM      1  C   UNL     1       3.110  -0.962  -4.470  0.00  0.00    +0.043 C 
ATOM      2  C   UNL     1       3.178  -0.106  -3.413  0.00  0.00    +0.099 C 
ATOM      3  C   UNL     1       2.584  -0.278  -2.134  0.00  0.00    +0.269 C 
ATOM      4  O   UNL     1       1.912  -1.226  -1.770  0.00  0.00    -0.268 OA
ATOM      5  N   UNL     1       2.903   0.807  -1.402  0.00  0.00    -0.216 N 
ATOM      6  C   UNL     1       3.661   1.640  -2.134  0.00  0.00    +0.313 C 
ATOM      7  O   UNL     1       4.107   2.702  -1.745  0.00  0.00    -0.252 OA
ATOM      8  N   UNL     1       3.853   1.124  -3.363  0.00  0.00    -0.265 N 
ATOM      9  H   UNL     1       4.363   1.528  -4.082  0.00  0.00    +0.157 HD
ENDROOT
BRANCH   1  12
ATOM     10  C   UNL     1       5.055  -2.877  -6.083  0.00  0.00    +0.068 C 
ATOM     11  C   UNL     1       4.660  -1.472  -6.458  0.00  0.00    +0.071 A 
ATOM     12  C   UNL     1       3.789  -0.631  -5.724  0.00  0.00    +0.061 A 
ATOM     13  C   UNL     1       3.696   0.569  -6.426  0.00  0.00    +0.223 A 
ATOM     14  N   UNL     1       4.481   0.452  -7.518  0.00  0.00    -0.200 N 
ATOM     15  N   UNL     1       5.061  -0.821  -7.514  0.00  0.00    -0.168 NA
BRANCH  14  16
ATOM     16  C   UNL     1       4.676   1.437  -8.496  0.00  0.00    +0.069 A 
ATOM     17  C   UNL     1       3.632   2.281  -8.850  0.00  0.00    +0.031 A 
ATOM     18  C   UNL     1       3.827   3.255  -9.810  0.00  0.00    +0.040 A 
ATOM     19  C   UNL     1       5.061   3.383 -10.427  0.00  0.00    +0.124 A 
ATOM     20  C   UNL     1       6.101   2.538 -10.079  0.00  0.00    +0.040 A 
ATOM     21  C   UNL     1       5.911   1.567  -9.116  0.00  0.00    +0.031 A 
ATOM     22  F   UNL     1       5.248   4.332 -11.369  0.00  0.00    -0.205 F 
ENDBRANCH  14  16
BRANCH  13  23
ATOM     23  O   UNL     1       2.960   1.650  -6.076  0.00  0.00    -0.492 OA
ATOM     24  H   UNL     1       3.432   2.284  -5.519  0.00  0.00    +0.294 HD
ENDBRANCH  13  23
ENDBRANCH   1  12
BRANCH   5  25
ATOM     25  C   UNL     1       2.490   1.040  -0.016  0.00  0.00    +0.153 C 
BRANCH  25  26
ATOM     26  C   UNL     1       1.178   1.781   0.000  0.00  0.00    -0.028 A 
ATOM     27  C   UNL     1      -0.013   1.076   0.008  0.00  0.00    +0.005 A 
ATOM     28  C   UNL     1      -1.222   1.748   0.017  0.00  0.00    +0.002 A 
ATOM     29  C   UNL     1      -1.248   3.127   0.030  0.00  0.00    +0.019 A 
ATOM     30  C   UNL     1      -0.050   3.845   0.022  0.00  0.00    +0.052 A 
ATOM     31  C   UNL     1       1.167   3.160   0.007  0.00  0.00    +0.024 A 
BRANCH  30  32
ATOM     32  C   UNL     1      -0.070   5.277   0.028  0.00  0.00    +0.099 C 
ATOM     33  N   UNL     1      -0.085   6.413   0.033  0.00  0.00    -0.191 NA
ENDBRANCH  30  32
ENDBRANCH  25  26
ENDBRANCH   5  25
TORSDOF 6
