REMARK  Name = ZINC64915944
REMARK  7 active torsions:
REMARK  status: ('A' for Active; 'I' for Inactive)
REMARK    1  A    between atoms: C_1  and  C_2
REMARK    2  A    between atoms: C_4  and  N_15
REMARK    3  A    between atoms: C_9  and  C_11
REMARK    4  A    between atoms: N_15  and  C_16
REMARK    5  A    between atoms: N_19  and  C_21
REMARK    6  A    between atoms: C_21  and  C_22
REMARK    7  A    between atoms: C_21  and  C_23
REMARK                            x       y       z     vdW  Elec       q    Type
REMARK                         _______ _______ _______ _____ _____    ______ ____
ROOT
ATOM      1  N   UNL     1      -2.325  -2.827  -0.002  0.00  0.00    -0.328 N 
ATOM      2  H   UNL     1      -2.288  -3.796  -0.007  0.00  0.00    +0.148 HD
ENDROOT
BRANCH   1   6
ATOM      3  C   UNL     1      -0.018   1.503   0.010  0.00  0.00    +0.066 C 
ATOM      4  C   UNL     1       0.002  -0.004   0.002  0.00  0.00    +0.045 A 
ATOM      5  C   UNL     1      -1.197  -0.712   0.004  0.00  0.00    +0.066 A 
ATOM      6  C   UNL     1      -1.160  -2.093  -0.004  0.00  0.00    +0.126 A 
ATOM      7  N   UNL     1       0.055  -2.716  -0.013  0.00  0.00    -0.182 N 
ATOM      8  C   UNL     1       1.205  -1.979  -0.015  0.00  0.00    +0.255 A 
ATOM      9  N   UNL     1       1.153  -0.642  -0.012  0.00  0.00    -0.216 NA
ATOM     10  N   UNL     1       2.220  -2.837  -0.024  0.00  0.00    -0.186 NA
ATOM     11  C   UNL     1       1.756  -4.080  -0.028  0.00  0.00    +0.257 A 
ATOM     12  N   UNL     1       0.446  -4.061  -0.022  0.00  0.00    -0.138 NA
BRANCH  11  13
ATOM     13  C   UNL     1       2.607  -5.324  -0.038  0.00  0.00    +0.454 C 
ATOM     14  F   UNL     1       3.923  -4.992   0.299  0.00  0.00    -0.163 F 
ATOM     15  F   UNL     1       2.104  -6.241   0.892  0.00  0.00    -0.163 F 
ATOM     16  F   UNL     1       2.583  -5.895  -1.315  0.00  0.00    -0.163 F 
ENDBRANCH  11  13
ENDBRANCH   1   6
BRANCH   1  17
ATOM     17  C   UNL     1      -3.621  -2.143   0.009  0.00  0.00    +0.053 C 
ATOM     18  C   UNL     1      -4.137  -1.953   1.459  0.00  0.00    +0.002 C 
ATOM     19  C   UNL     1      -5.668  -1.887   1.278  0.00  0.00    -0.076 C 
ATOM     20  N   UNL     1      -5.985  -2.550  -0.001  0.00  0.00    +0.385 N 
ATOM     21  C   UNL     1      -4.726  -3.041  -0.602  0.00  0.00    -0.056 C 
ATOM     22  H   UNL     1      -6.425  -1.891  -0.625  0.00  0.00    -0.081 HD
BRANCH  20  23
ATOM     23  C   UNL     1      -6.892  -3.681   0.240  0.00  0.00    -0.041 C 
ATOM     24  C   UNL     1      -7.189  -4.387  -1.085  0.00  0.00    -0.008 C 
BRANCH  23  25
ATOM     25  C   UNL     1      -8.178  -3.175   0.840  0.00  0.00    -0.061 A 
ATOM     26  C   UNL     1      -8.743  -2.002   0.375  0.00  0.00    +0.002 A 
ATOM     27  C   UNL     1      -9.923  -1.537   0.925  0.00  0.00    +0.000 A 
ATOM     28  C   UNL     1     -10.539  -2.246   1.940  0.00  0.00    +0.000 A 
ATOM     29  C   UNL     1      -9.974  -3.420   2.404  0.00  0.00    +0.000 A 
ATOM     30  C   UNL     1      -8.796  -3.886   1.850  0.00  0.00    +0.002 A 
ENDBRANCH  23  25
ENDBRANCH  20  23
ENDBRANCH   1  17
TORSDOF 5
