REMARK  Name = ZINC64143905
REMARK  6 active torsions:
REMARK  status: ('A' for Active; 'I' for Inactive)
REMARK    1  A    between atoms: C_1  and  C_2
REMARK    2  A    between atoms: C_6  and  C_10
REMARK    3  A    between atoms: C_10  and  C_11
REMARK    4  A    between atoms: C_18  and  C_20
REMARK    5  A    between atoms: N_22  and  C_23
REMARK    6  A    between atoms: C_24  and  O_29
REMARK                            x       y       z     vdW  Elec       q    Type
REMARK                         _______ _______ _______ _____ _____    ______ ____
ROOT
ATOM      1  C   UNL     1      -0.018   1.503   0.010  0.00  0.00    +0.041 C 
ATOM      2  C   UNL     1       0.002  -0.004   0.002  0.00  0.00    -0.036 C 
ATOM      3  C   UNL     1       0.006  -0.691  -1.150  0.00  0.00    +0.071 C 
ATOM      4  C   UNL     1       0.026  -2.167  -1.069  0.00  0.00    +0.112 C 
ATOM      5  N   UNL     1       0.030  -2.895  -2.160  0.00  0.00    -0.227 NA
ATOM      6  C   UNL     1       0.016  -2.337  -3.360  0.00  0.00    +0.128 C 
ATOM      7  N   UNL     1      -0.003  -1.040  -3.554  0.00  0.00    -0.161 NA
ATOM      8  C   UNL     1      -0.008  -0.158  -2.549  0.00  0.00    +0.271 C 
ATOM      9  O   UNL     1      -0.026   1.042  -2.765  0.00  0.00    -0.268 OA
ATOM     10  S   UNL     1       0.040  -2.523   0.670  0.00  0.00    -0.088 S 
ATOM     11  C   UNL     1       0.025  -0.793   1.292  0.00  0.00    +0.165 C 
ENDROOT
BRANCH  11  12
ATOM     12  C   UNL     1       1.270  -0.492   2.086  0.00  0.00    +0.236 C 
ATOM     13  O   UNL     1       2.295  -0.185   1.514  0.00  0.00    -0.274 OA
ATOM     14  N   UNL     1       1.244  -0.564   3.432  0.00  0.00    -0.266 N 
ATOM     15  H   UNL     1       0.425  -0.809   3.889  0.00  0.00    +0.156 HD
BRANCH  14  16
ATOM     16  C   UNL     1       2.397  -0.285   4.167  0.00  0.00    +0.167 A 
ATOM     17  C   UNL     1       2.365  -0.362   5.559  0.00  0.00    +0.157 A 
ATOM     18  C   UNL     1       3.520  -0.082   6.276  0.00  0.00    +0.050 A 
ATOM     19  C   UNL     1       4.666   0.264   5.574  0.00  0.00    +0.023 A 
ATOM     20  C   UNL     1       4.624   0.319   4.195  0.00  0.00    +0.113 A 
ATOM     21  N   UNL     1       3.513   0.044   3.538  0.00  0.00    -0.237 NA
BRANCH  17  22
ATOM     22  O   UNL     1       1.218  -0.705   6.205  0.00  0.00    -0.503 OA
ATOM     23  H   UNL     1       1.118  -1.655   6.351  0.00  0.00    +0.292 HD
ENDBRANCH  17  22
ENDBRANCH  14  16
ENDBRANCH  11  12
BRANCH   6  24
ATOM     24  C   UNL     1       0.021  -3.239  -4.567  0.00  0.00    +0.108 C 
BRANCH  24  25
ATOM     25  C   UNL     1       0.002  -2.402  -5.820  0.00  0.00    -0.040 A 
ATOM     26  C   UNL     1      -1.203  -2.029  -6.385  0.00  0.00    +0.004 A 
ATOM     27  C   UNL     1      -1.220  -1.261  -7.534  0.00  0.00    +0.000 A 
ATOM     28  C   UNL     1      -0.032  -0.866  -8.119  0.00  0.00    +0.000 A 
ATOM     29  C   UNL     1       1.174  -1.237  -7.554  0.00  0.00    +0.000 A 
ATOM     30  C   UNL     1       1.191  -2.002  -6.402  0.00  0.00    +0.004 A 
ENDBRANCH  24  25
ENDBRANCH   6  24
TORSDOF 5
