REMARK  Name = ZINC13831067
REMARK  5 active torsions:
REMARK  status: ('A' for Active; 'I' for Inactive)
REMARK    1  A    between atoms: C_1  and  C_2
REMARK    2  A    between atoms: C_5  and  C_8
REMARK    3  A    between atoms: C_11  and  C_25
REMARK    4  A    between atoms: C_14  and  C_16
REMARK    5  A    between atoms: C_30  and  O_31
REMARK                            x       y       z     vdW  Elec       q    Type
REMARK                         _______ _______ _______ _____ _____    ______ ____
ROOT
ATOM      1  C   UNL     1       0.059  -4.275  -0.021  0.00  0.00    +0.081 C 
ATOM      2  N   UNL     1      -0.607  -4.773   1.187  0.00  0.00    +0.401 N 
ATOM      3  C   UNL     1      -0.733  -6.237   1.094  0.00  0.00    -0.028 C 
ATOM      4  C   UNL     1      -1.741  -6.563  -0.012  0.00  0.00    +0.044 C 
ATOM      5  C   UNL     1      -1.408  -5.763  -1.242  0.00  0.00    +0.040 C 
ATOM      6  N   UNL     1      -0.615  -4.757  -1.220  0.00  0.00    -0.299 NA
ATOM      7  H   UNL     1      -0.058  -4.532   1.999  0.00  0.00    -0.081 HD
ATOM      8  H   UNL     1      -1.524  -4.359   1.262  0.00  0.00    -0.081 HD
ENDROOT
BRANCH   5   9
ATOM      9  C   UNL     1      -2.019  -6.154  -2.525  0.00  0.00    -0.001 A 
ATOM     10  C   UNL     1      -2.893  -7.242  -2.583  0.00  0.00    +0.013 A 
ATOM     11  C   UNL     1      -3.464  -7.605  -3.783  0.00  0.00    +0.050 A 
ATOM     12  C   UNL     1      -3.173  -6.893  -4.939  0.00  0.00    +0.166 A 
ATOM     13  C   UNL     1      -2.302  -5.804  -4.888  0.00  0.00    +0.167 A 
ATOM     14  C   UNL     1      -1.731  -5.432  -3.687  0.00  0.00    +0.059 A 
ATOM     15  O   UNL     1      -2.185  -5.282  -6.144  0.00  0.00    -0.453 OA
ATOM     16  C   UNL     1      -2.669  -6.306  -7.033  0.00  0.00    +0.466 C 
ATOM     17  O   UNL     1      -3.601  -7.048  -6.225  0.00  0.00    -0.453 OA
ENDBRANCH   5   9
BRANCH   1  22
ATOM     18  C   UNL     1      -0.018   1.503   0.010  0.00  0.00    +0.044 C 
ATOM     19  C   UNL     1       0.002  -0.004   0.002  0.00  0.00    -0.050 A 
ATOM     20  C   UNL     1       0.006  -0.689  -1.199  0.00  0.00    +0.003 A 
ATOM     21  C   UNL     1       0.025  -2.071  -1.206  0.00  0.00    +0.004 A 
ATOM     22  C   UNL     1       0.040  -2.768  -0.013  0.00  0.00    -0.040 A 
ATOM     23  C   UNL     1       0.037  -2.084   1.188  0.00  0.00    +0.004 A 
ATOM     24  C   UNL     1       0.023  -0.702   1.195  0.00  0.00    +0.003 A 
ENDBRANCH   1  22
BRANCH   3  25
ATOM     25  C   UNL     1      -1.223  -6.789   2.408  0.00  0.00    -0.018 A 
ATOM     26  C   UNL     1      -1.958  -5.990   3.262  0.00  0.00    +0.020 A 
ATOM     27  C   UNL     1      -2.408  -6.496   4.468  0.00  0.00    +0.018 A 
ATOM     28  C   UNL     1      -2.124  -7.803   4.822  0.00  0.00    +0.019 A 
ATOM     29  C   UNL     1      -1.390  -8.606   3.970  0.00  0.00    +0.047 A 
ATOM     30  C   UNL     1      -0.942  -8.101   2.757  0.00  0.00    +0.119 A 
ATOM     31 BR   UNL     1      -3.414  -5.400   5.636  0.00  0.00    -0.050 Br
BRANCH  30  32
ATOM     32  O   UNL     1      -0.223  -8.891   1.916  0.00  0.00    -0.507 OA
ATOM     33  H   UNL     1       0.732  -8.855   2.063  0.00  0.00    +0.292 HD
ENDBRANCH  30  32
ENDBRANCH   3  25
TORSDOF 4
