REMARK  Name = ZINC39674546
REMARK  9 active torsions:
REMARK  status: ('A' for Active; 'I' for Inactive)
REMARK    1  A    between atoms: C_1  and  C_2
REMARK    2  A    between atoms: C_5  and  C_12
REMARK    3  A    between atoms: N_9  and  C_11
REMARK    4  A    between atoms: C_16  and  C_25
REMARK    5  A    between atoms: N_27  and  C_28
REMARK    6  A    between atoms: C_28  and  C_30
REMARK    7  A    between atoms: C_28  and  C_31
REMARK    8  A    between atoms: C_32  and  C_38
REMARK    9  A    between atoms: C_35  and  C_37
REMARK                            x       y       z     vdW  Elec       q    Type
REMARK                         _______ _______ _______ _____ _____    ______ ____
ROOT
ATOM      1  C   UNL     1      -0.251  -2.042  -4.274  0.00  0.00    +0.250 C 
ATOM      2  O   UNL     1      -0.227  -0.895  -4.676  0.00  0.00    -0.270 OA
ATOM      3  N   UNL     1       0.082  -3.053  -5.099  0.00  0.00    -0.296 N 
ATOM      4  C   UNL     1       0.018  -4.508  -4.826  0.00  0.00    +0.121 C 
ATOM      5  C   UNL     1      -0.486  -5.132  -6.146  0.00  0.00    +0.100 C 
ATOM      6  C   UNL     1      -0.103  -4.114  -7.233  0.00  0.00    -0.004 C 
ATOM      7  C   UNL     1       0.589  -2.962  -6.490  0.00  0.00    +0.115 C 
ATOM      8  C   UNL     1      -1.353  -3.601  -7.941  0.00  0.00    -0.010 C 
ATOM      9  C   UNL     1      -0.942  -2.634  -9.055  0.00  0.00    -0.082 C 
ATOM     10  N   UNL     1      -0.065  -3.325 -10.007  0.00  0.00    +0.379 N 
ATOM     11  C   UNL     1       1.177  -3.733  -9.339  0.00  0.00    -0.082 C 
ATOM     12  C   UNL     1       0.856  -4.747  -8.237  0.00  0.00    -0.010 C 
ATOM     13  H   UNL     1      -0.536  -4.141 -10.366  0.00  0.00    -0.086 HD
ATOM     14  H   UNL     1       0.155  -2.704 -10.771  0.00  0.00    -0.086 HD
ENDROOT
BRANCH   1  19
ATOM     15  C   UNL     1      -3.833  -0.158  -0.186  0.00  0.00    +0.068 C 
ATOM     16  C   UNL     1      -2.901  -1.321   0.040  0.00  0.00    +0.071 A 
ATOM     17  C   UNL     1      -1.959  -1.871  -0.930  0.00  0.00    +0.060 A 
ATOM     18  C   UNL     1      -1.626  -1.556  -2.251  0.00  0.00    +0.067 A 
ATOM     19  C   UNL     1      -0.645  -2.326  -2.880  0.00  0.00    +0.074 A 
ATOM     20  C   UNL     1      -0.041  -3.374  -2.171  0.00  0.00    +0.127 A 
ATOM     21  N   UNL     1      -0.377  -3.643  -0.932  0.00  0.00    -0.235 NA
ATOM     22  C   UNL     1      -1.304  -2.941  -0.287  0.00  0.00    +0.160 A 
ATOM     23  N   UNL     1      -1.825  -3.015   0.974  0.00  0.00    -0.249 N 
ATOM     24  N   UNL     1      -2.787  -2.014   1.137  0.00  0.00    -0.174 NA
ATOM     25  C   UNL     1      -1.433  -3.988   1.997  0.00  0.00    +0.174 C 
ATOM     26 CL   UNL     1      -2.407  -0.247  -3.082  0.00  0.00    -0.082 Cl
ENDBRANCH   1  19
BRANCH   5  27
ATOM     27  C   UNL     1       0.197  -6.452  -6.397  0.00  0.00    +0.219 C 
ATOM     28  O   UNL     1       1.308  -6.654  -5.955  0.00  0.00    -0.275 OA
ATOM     29  N   UNL     1      -0.428  -7.409  -7.112  0.00  0.00    -0.309 N 
ATOM     30  H   UNL     1      -1.317  -7.248  -7.465  0.00  0.00    +0.149 HD
BRANCH  29  31
ATOM     31  C   UNL     1       0.236  -8.692  -7.355  0.00  0.00    +0.100 C 
ATOM     32  C   UNL     1       1.142  -8.573  -8.582  0.00  0.00    +0.033 C 
BRANCH  31  33
ATOM     33  C   UNL     1      -0.802  -9.757  -7.600  0.00  0.00    -0.001 C 
ATOM     34  C   UNL     1      -0.954 -10.919  -6.962  0.00  0.00    +0.063 C 
ATOM     35  N   UNL     1      -2.002 -11.609  -7.465  0.00  0.00    -0.159 NA
ATOM     36  N   UNL     1      -2.593 -11.043  -8.387  0.00  0.00    -0.180 NA
ATOM     37  C   UNL     1      -1.923  -9.752  -8.624  0.00  0.00    +0.154 C 
ATOM     38  C   UNL     1      -1.358  -9.692 -10.044  0.00  0.00    +0.039 C 
ATOM     39  C   UNL     1      -0.076 -11.397  -5.834  0.00  0.00    +0.067 C 
ENDBRANCH  31  33
ENDBRANCH  29  31
ENDBRANCH   5  27
TORSDOF 4
