REMARK  Name = ZINC11377371
REMARK  6 active torsions:
REMARK  status: ('A' for Active; 'I' for Inactive)
REMARK    1  A    between atoms: C_1  and  C_2
REMARK    2  A    between atoms: C_5  and  C_8
REMARK    3  A    between atoms: C_8  and  C_28
REMARK    4  A    between atoms: N_11  and  C_15
REMARK    5  A    between atoms: C_15  and  C_16
REMARK    6  A    between atoms: C_19  and  C_21
REMARK                            x       y       z     vdW  Elec       q    Type
REMARK                         _______ _______ _______ _____ _____    ______ ____
ROOT
ATOM      1  C   UNL     1       1.729   5.714  -3.433  0.00  0.00    +0.135 C 
ATOM      2  C   UNL     1       1.070   5.605  -2.072  0.00  0.00    +0.251 C 
ATOM      3  O   UNL     1       0.072   6.181  -1.694  0.00  0.00    -0.272 OA
ATOM      4  N   UNL     1       1.824   4.736  -1.371  0.00  0.00    -0.215 N 
ATOM      5  C   UNL     1       2.860   4.290  -2.090  0.00  0.00    +0.310 C 
ATOM      6  O   UNL     1       3.683   3.500  -1.670  0.00  0.00    -0.252 OA
ATOM      7  N   UNL     1       2.886   4.809  -3.330  0.00  0.00    -0.281 N 
ATOM      8  C   UNL     1       2.186   7.150  -3.696  0.00  0.00    +0.047 C 
ATOM      9  H   UNL     1       3.542   4.626  -4.022  0.00  0.00    +0.152 HD
ENDROOT
BRANCH   1  14
ATOM     10  C   UNL     1      -1.877   3.939  -7.585  0.00  0.00    +0.044 C 
ATOM     11  C   UNL     1      -0.937   4.402  -6.502  0.00  0.00    -0.050 A 
ATOM     12  C   UNL     1       0.428   4.256  -6.664  0.00  0.00    +0.004 A 
ATOM     13  C   UNL     1       1.291   4.681  -5.670  0.00  0.00    +0.006 A 
ATOM     14  C   UNL     1       0.788   5.252  -4.516  0.00  0.00    -0.015 A 
ATOM     15  C   UNL     1      -0.577   5.393  -4.353  0.00  0.00    +0.006 A 
ATOM     16  C   UNL     1      -1.440   4.973  -5.348  0.00  0.00    +0.004 A 
ENDBRANCH   1  14
BRANCH   4  17
ATOM     17  C   UNL     1       1.548   4.335   0.011  0.00  0.00    +0.214 C 
BRANCH  17  18
ATOM     18  C   UNL     1       0.653   3.122   0.013  0.00  0.00    +0.214 A 
ATOM     19  N   UNL     1       1.058   1.884   0.002  0.00  0.00    -0.220 NA
ATOM     20  C   UNL     1      -0.013   1.076   0.008  0.00  0.00    +0.161 A 
ATOM     21  C   UNL     1      -1.118   1.863   0.017  0.00  0.00    +0.155 A 
ATOM     22  O   UNL     1      -0.687   3.144   0.025  0.00  0.00    -0.438 OA
BRANCH  21  23
ATOM     23  C   UNL     1      -2.525   1.408   0.019  0.00  0.00    +0.019 A 
ATOM     24  C   UNL     1      -2.819   0.043   0.007  0.00  0.00    +0.014 A 
ATOM     25  C   UNL     1      -4.133  -0.376   0.015  0.00  0.00    +0.039 A 
ATOM     26  C   UNL     1      -5.160   0.554   0.024  0.00  0.00    +0.123 A 
ATOM     27  C   UNL     1      -4.873   1.910   0.031  0.00  0.00    +0.039 A 
ATOM     28  C   UNL     1      -3.563   2.340   0.029  0.00  0.00    +0.014 A 
ATOM     29  F   UNL     1      -6.445   0.138   0.027  0.00  0.00    -0.205 F 
ENDBRANCH  21  23
ENDBRANCH  17  18
ENDBRANCH   4  17
TORSDOF 4
