REMARK  Name = ZINC11565513
REMARK  16 active torsions:
REMARK  status: ('A' for Active; 'I' for Inactive)
REMARK    1  A    between atoms: C_1  and  C_2
REMARK    2  A    between atoms: C_6  and  C_9
REMARK    3  A    between atoms: C_10  and  C_11
REMARK    4  A    between atoms: C_10  and  N_71
REMARK    5  A    between atoms: C_11  and  C_13
REMARK    6  A    between atoms: C_11  and  O_36
REMARK    7  A    between atoms: C_13  and  O_14
REMARK    8  A    between atoms: O_14  and  C_15
REMARK    9  A    between atoms: C_18  and  O_21
REMARK   10  A    between atoms: O_21  and  C_22
REMARK   11  A    between atoms: C_22  and  C_23
REMARK   12  A    between atoms: C_23  and  C_25
REMARK   13  A    between atoms: C_23  and  O_35
REMARK   14  A    between atoms: C_25  and  N_73
REMARK   15  A    between atoms: C_27  and  C_34
REMARK   16  A    between atoms: C_30  and  C_33
REMARK                            x       y       z     vdW  Elec       q    Type
REMARK                         _______ _______ _______ _____ _____    ______ ____
ROOT
ATOM      1  C   UNL     1       2.380   1.413  -0.014  0.00  0.00    +0.121 A 
ATOM      2  C   UNL     1       1.170   2.090   0.002  0.00  0.00    +0.049 A 
ATOM      3  C   UNL     1      -0.017   1.383   0.010  0.00  0.00    +0.049 A 
ATOM      4  C   UNL     1       0.002  -0.004   0.002  0.00  0.00    +0.121 A 
ATOM      5  C   UNL     1       1.212  -0.681  -0.013  0.00  0.00    +0.049 A 
ATOM      6  C   UNL     1       2.399   0.026  -0.021  0.00  0.00    +0.049 A 
ENDROOT
BRANCH   1   7
ATOM      7  O   UNL     1       3.549   2.108  -0.022  0.00  0.00    -0.489 OA
BRANCH   7   8
ATOM      8  C   UNL     1       3.454   3.534  -0.013  0.00  0.00    +0.258 C 
BRANCH   8   9
ATOM      9  C   UNL     1       4.860   4.138  -0.024  0.00  0.00    +0.135 C 
BRANCH   9  10
ATOM     10  O   UNL     1       5.511   3.809  -1.253  0.00  0.00    -0.390 OA
ATOM     11  H   UNL     1       5.053   4.137  -2.040  0.00  0.00    +0.210 HD
ENDBRANCH   9  10
BRANCH   9  12
ATOM     12  C   UNL     1       4.763   5.659   0.110  0.00  0.00    -0.044 C 
BRANCH  12  20
ATOM     13  C   UNL     1       7.430   9.790  -0.116  0.00  0.00    +0.036 C 
ATOM     14  C   UNL     1       7.480   8.261  -0.079  0.00  0.00    +0.099 C 
ATOM     15  C   UNL     1       6.056   7.704  -0.012  0.00  0.00    -0.047 C 
ATOM     16  C   UNL     1       6.868   5.837   1.295  0.00  0.00    -0.047 C 
ATOM     17  C   UNL     1       8.284   6.412   1.215  0.00  0.00    +0.099 C 
ATOM     18  O   UNL     1       8.209   7.834   1.075  0.00  0.00    -0.378 OA
ATOM     19  C   UNL     1       9.051   6.065   2.492  0.00  0.00    +0.036 C 
ATOM     20  N   UNL     1       6.127   6.230   0.079  0.00  0.00    +0.385 N 
ATOM     21  H   UNL     1       6.621   5.868  -0.745  0.00  0.00    -0.081 HD
ENDBRANCH  12  20
ENDBRANCH   9  12
ENDBRANCH   8   9
ENDBRANCH   7   8
ENDBRANCH   1   7
BRANCH   4  22
ATOM     22  O   UNL     1      -1.166  -0.700   0.010  0.00  0.00    -0.489 OA
BRANCH  22  23
ATOM     23  C   UNL     1      -1.072  -2.126   0.001  0.00  0.00    +0.258 C 
BRANCH  23  24
ATOM     24  C   UNL     1      -2.478  -2.730   0.012  0.00  0.00    +0.135 C 
BRANCH  24  25
ATOM     25  O   UNL     1      -3.152  -2.388  -1.200  0.00  0.00    -0.390 OA
ATOM     26  H   UNL     1      -2.711  -2.707  -1.999  0.00  0.00    +0.210 HD
ENDBRANCH  24  25
BRANCH  24  27
ATOM     27  C   UNL     1      -2.378  -4.252   0.129  0.00  0.00    -0.044 C 
BRANCH  27  35
ATOM     28  C   UNL     1      -4.459  -4.442   1.353  0.00  0.00    -0.047 C 
ATOM     29  C   UNL     1      -5.877  -5.017   1.295  0.00  0.00    +0.099 C 
ATOM     30  O   UNL     1      -5.804  -6.437   1.139  0.00  0.00    -0.378 OA
ATOM     31  C   UNL     1      -5.099  -6.852  -0.034  0.00  0.00    +0.099 C 
ATOM     32  C   UNL     1      -3.673  -6.295   0.011  0.00  0.00    -0.047 C 
ATOM     33  C   UNL     1      -5.049  -8.380  -0.086  0.00  0.00    +0.036 C 
ATOM     34  C   UNL     1      -6.626  -4.410   0.106  0.00  0.00    +0.036 C 
ATOM     35  N   UNL     1      -3.742  -4.823   0.118  0.00  0.00    +0.385 N 
ATOM     36  H   UNL     1      -4.253  -4.452  -0.692  0.00  0.00    -0.081 HD
ENDBRANCH  27  35
ENDBRANCH  24  27
ENDBRANCH  23  24
ENDBRANCH  22  23
ENDBRANCH   4  22
TORSDOF 12
