REMARK  Name = ZINC49697756
REMARK  8 active torsions:
REMARK  status: ('A' for Active; 'I' for Inactive)
REMARK    1  A    between atoms: C_1  and  C_2
REMARK    2  A    between atoms: C_2  and  C_3
REMARK    3  A    between atoms: C_9  and  C_10
REMARK    4  A    between atoms: C_12  and  C_24
REMARK    5  A    between atoms: N_13  and  C_16
REMARK    6  A    between atoms: C_14  and  C_15
REMARK    7  A    between atoms: C_20  and  O_22
REMARK    8  A    between atoms: O_22  and  C_23
REMARK                            x       y       z     vdW  Elec       q    Type
REMARK                         _______ _______ _______ _____ _____    ______ ____
ROOT
ATOM      1  C   UNL     1       4.997  -0.006  -1.358  0.00  0.00    +0.100 C 
ATOM      2  N   UNL     1       4.870   0.537  -2.535  0.00  0.00    -0.169 NA
ATOM      3  N   UNL     1       4.422  -0.194  -3.615  0.00  0.00    -0.154 N 
ATOM      4  C   UNL     1       4.333   0.270  -4.945  0.00  0.00    +0.132 C 
ATOM      5  N   UNL     1       5.033   1.273  -5.404  0.00  0.00    -0.385 N 
ATOM      6  C   UNL     1       3.362  -0.498  -5.774  0.00  0.00    +0.079 C 
ATOM      7  C   UNL     1       2.633   0.102  -6.780  0.00  0.00    +0.026 C 
ATOM      8  C   UNL     1       3.222  -1.940  -5.461  0.00  0.00    +0.273 C 
ATOM      9  O   UNL     1       2.841  -2.732  -6.307  0.00  0.00    -0.268 OA
ATOM     10  N   UNL     1       3.529  -2.351  -4.214  0.00  0.00    -0.152 NA
ATOM     11  C   UNL     1       4.056  -1.500  -3.371  0.00  0.00    +0.181 C 
ATOM     12  S   UNL     1       4.472  -1.688  -1.657  0.00  0.00    -0.038 S 
ATOM     13  H   UNL     1       5.588   1.793  -4.802  0.00  0.00    +0.157 HD
ATOM     14  H   UNL     1       4.998   1.498  -6.347  0.00  0.00    +0.157 HD
ENDROOT
BRANCH   7  15
ATOM     15  C   UNL     1       2.665   1.511  -6.936  0.00  0.00    -0.003 A 
ATOM     16  C   UNL     1       2.807   2.517  -5.874  0.00  0.00    +0.031 A 
ATOM     17  C   UNL     1       2.787   3.716  -6.480  0.00  0.00    +0.022 A 
ATOM     18  N   UNL     1       2.645   3.536  -7.829  0.00  0.00    -0.317 N 
ATOM     19  C   UNL     1       2.576   2.222  -8.122  0.00  0.00    +0.028 A 
ATOM     20  C   UNL     1       2.425   1.629  -9.499  0.00  0.00    +0.064 C 
ATOM     21  C   UNL     1       2.902   5.048  -5.785  0.00  0.00    +0.064 C 
BRANCH  18  22
ATOM     22  C   UNL     1       2.585   4.570  -8.772  0.00  0.00    +0.050 A 
ATOM     23  C   UNL     1       1.421   4.782  -9.499  0.00  0.00    +0.026 A 
ATOM     24  C   UNL     1       1.361   5.802 -10.428  0.00  0.00    +0.006 A 
ATOM     25  C   UNL     1       2.459   6.614 -10.637  0.00  0.00    +0.046 A 
ATOM     26  C   UNL     1       3.626   6.407  -9.914  0.00  0.00    +0.122 A 
ATOM     27  C   UNL     1       3.687   5.388  -8.977  0.00  0.00    +0.071 A 
BRANCH  26  28
ATOM     28  O   UNL     1       4.705   7.207 -10.121  0.00  0.00    -0.495 OA
ATOM     29  C   UNL     1       4.569   8.240 -11.098  0.00  0.00    +0.277 C 
ENDBRANCH  26  28
ENDBRANCH  18  22
ENDBRANCH   7  15
BRANCH   1  31
ATOM     30  C   UNL     1       5.811   2.094  -0.320  0.00  0.00    +0.011 C 
ATOM     31  C   UNL     1       5.472   0.622  -0.073  0.00  0.00    +0.061 C 
ENDBRANCH   1  31
TORSDOF 4
