REMARK  Name = ZINC08761876
REMARK  5 active torsions:
REMARK  status: ('A' for Active; 'I' for Inactive)
REMARK    1  A    between atoms: C_1  and  C_2
REMARK    2  A    between atoms: C_15  and  C_17
REMARK    3  A    between atoms: C_17  and  N_18
REMARK    4  A    between atoms: N_18  and  C_19
REMARK    5  A    between atoms: C_20  and  C_22
REMARK                            x       y       z     vdW  Elec       q    Type
REMARK                         _______ _______ _______ _____ _____    ______ ____
ROOT
ATOM      1  C   UNL     1      -0.358   6.311   2.447  0.00  0.00    +0.029 C 
ATOM      2  C   UNL     1      -1.292   6.028   1.269  0.00  0.00    +0.087 C 
ATOM      3  C   UNL     1      -2.387   5.057   1.710  0.00  0.00    +0.118 C 
ATOM      4  C   UNL     1      -3.066   4.459   0.506  0.00  0.00    +0.219 C 
ATOM      5  O   UNL     1      -4.169   4.845   0.183  0.00  0.00    -0.275 OA
ATOM      6  N   UNL     1      -2.453   3.497  -0.216  0.00  0.00    -0.284 N 
ATOM      7  C   UNL     1      -1.143   3.110   0.085  0.00  0.00    +0.055 A 
ATOM      8  C   UNL     1      -0.808   1.771   0.211  0.00  0.00    +0.025 A 
ATOM      9  C   UNL     1       0.498   1.411   0.486  0.00  0.00    +0.002 A 
ATOM     10  C   UNL     1       1.474   2.382   0.625  0.00  0.00    +0.002 A 
ATOM     11  C   UNL     1       1.147   3.720   0.504  0.00  0.00    +0.025 A 
ATOM     12  C   UNL     1      -0.162   4.090   0.243  0.00  0.00    +0.058 A 
ATOM     13  N   UNL     1      -0.521   5.442   0.170  0.00  0.00    -0.265 N 
ATOM     14  C   UNL     1      -0.164   6.191  -0.893  0.00  0.00    +0.237 C 
ATOM     15  O   UNL     1      -0.481   7.360  -0.945  0.00  0.00    -0.274 OA
ATOM     16  H   UNL     1      -2.925   3.070  -0.949  0.00  0.00    +0.155 HD
ENDROOT
BRANCH  14  17
ATOM     17  C   UNL     1       0.629   5.574  -2.016  0.00  0.00    +0.204 C 
BRANCH  17  18
ATOM     18  N   UNL     1       0.889   6.586  -3.043  0.00  0.00    -0.292 N 
ATOM     19  C   UNL     1       2.098   7.410  -2.970  0.00  0.00    +0.133 C 
ATOM     20  C   UNL     1       0.016   6.758  -4.056  0.00  0.00    +0.247 C 
ATOM     21  O   UNL     1      -1.046   6.166  -4.050  0.00  0.00    -0.270 OA
BRANCH  20  22
ATOM     22  C   UNL     1       0.350   7.666  -5.173  0.00  0.00    +0.037 A 
ATOM     23  C   UNL     1       1.679   8.012  -5.421  0.00  0.00    +0.014 A 
ATOM     24  C   UNL     1       1.985   8.857  -6.467  0.00  0.00    +0.021 A 
ATOM     25  C   UNL     1       0.975   9.369  -7.265  0.00  0.00    +0.041 A 
ATOM     26  C   UNL     1      -0.346   9.033  -7.021  0.00  0.00    +0.021 A 
ATOM     27  C   UNL     1      -0.664   8.186  -5.980  0.00  0.00    +0.014 A 
ATOM     28 CL   UNL     1       1.367  10.438  -8.576  0.00  0.00    -0.084 Cl
ENDBRANCH  20  22
ENDBRANCH  17  18
ENDBRANCH  14  17
TORSDOF 3
