REMARK  Name = ZINC14991531
REMARK  9 active torsions:
REMARK  status: ('A' for Active; 'I' for Inactive)
REMARK    1  A    between atoms: C_1  and  N_2
REMARK    2  A    between atoms: C_5  and  C_9
REMARK    3  A    between atoms: C_5  and  C_18
REMARK    4  A    between atoms: C_9  and  C_10
REMARK    5  A    between atoms: C_14  and  O_16
REMARK    6  A    between atoms: O_16  and  C_17
REMARK    7  A    between atoms: C_23  and  C_24
REMARK    8  A    between atoms: C_23  and  N_60
REMARK    9  A    between atoms: C_29  and  O_30
REMARK                            x       y       z     vdW  Elec       q    Type
REMARK                         _______ _______ _______ _____ _____    ______ ____
ROOT
ATOM      1  C   UNL     1      -2.391   4.926  -1.284  0.00  0.00    +0.143 C 
ATOM      2  N   UNL     1      -1.978   3.520  -1.244  0.00  0.00    -0.227 N 
ATOM      3  C   UNL     1      -0.697   3.106  -1.304  0.00  0.00    +0.247 C 
ATOM      4  O   UNL     1       0.293   3.799  -1.396  0.00  0.00    -0.273 OA
ATOM      5  C   UNL     1      -0.753   1.593  -1.232  0.00  0.00    +0.119 C 
ATOM      6  N   UNL     1      -2.193   1.303  -1.129  0.00  0.00    -0.284 N 
ATOM      7  C   UNL     1      -2.826   2.490  -1.145  0.00  0.00    +0.309 C 
ATOM      8  O   UNL     1      -4.034   2.613  -1.076  0.00  0.00    -0.252 OA
ATOM      9  H   UNL     1      -2.606   0.428  -1.064  0.00  0.00    +0.151 HD
ENDROOT
BRANCH   5  10
ATOM     10  C   UNL     1      -0.164   0.971  -2.500  0.00  0.00    +0.018 C 
ATOM     11  C   UNL     1       1.341   1.247  -2.553  0.00  0.00    -0.013 C 
ATOM     12  C   UNL     1       1.913   0.677  -3.854  0.00  0.00    -0.078 C 
ATOM     13  C   UNL     1      -0.198   1.008  -4.996  0.00  0.00    -0.078 C 
ATOM     14  C   UNL     1      -0.834   1.589  -3.731  0.00  0.00    -0.013 C 
ATOM     15  N   UNL     1       1.244   1.329  -5.000  0.00  0.00    +0.382 N 
ATOM     16  H   UNL     1       1.359   2.346  -4.917  0.00  0.00    -0.081 HD
BRANCH  15  17
ATOM     17  C   UNL     1       1.859   0.878  -6.265  0.00  0.00    -0.039 C 
BRANCH  17  18
ATOM     18  C   UNL     1       3.268   1.409  -6.337  0.00  0.00    -0.022 A 
ATOM     19  C   UNL     1       3.543   2.540  -7.081  0.00  0.00    +0.005 A 
ATOM     20  C   UNL     1       4.834   3.030  -7.143  0.00  0.00    +0.000 A 
ATOM     21  C   UNL     1       5.855   2.384  -6.470  0.00  0.00    +0.004 A 
ATOM     22  C   UNL     1       5.585   1.249  -5.730  0.00  0.00    +0.045 A 
ATOM     23  C   UNL     1       4.289   0.758  -5.661  0.00  0.00    +0.118 A 
BRANCH  23  24
ATOM     24  O   UNL     1       4.022  -0.358  -4.934  0.00  0.00    -0.507 OA
ATOM     25  H   UNL     1       4.096  -1.181  -5.435  0.00  0.00    +0.292 HD
ENDBRANCH  23  24
ENDBRANCH  17  18
ENDBRANCH  15  17
ENDBRANCH   5  10
BRANCH   5  26
ATOM     26  C   UNL     1      -0.013   1.086   0.008  0.00  0.00    +0.070 C 
BRANCH  26  27
ATOM     27  C   UNL     1      -0.718   1.572   1.248  0.00  0.00    -0.041 A 
ATOM     28  C   UNL     1      -0.359   2.779   1.818  0.00  0.00    +0.004 A 
ATOM     29  C   UNL     1      -1.008   3.231   2.953  0.00  0.00    +0.004 A 
ATOM     30  C   UNL     1      -2.010   2.470   3.525  0.00  0.00    +0.045 A 
ATOM     31  C   UNL     1      -2.368   1.256   2.958  0.00  0.00    +0.120 A 
ATOM     32  C   UNL     1      -1.718   0.808   1.817  0.00  0.00    +0.049 A 
BRANCH  31  33
ATOM     33  O   UNL     1      -3.352   0.506   3.520  0.00  0.00    -0.495 OA
ATOM     34  C   UNL     1      -3.976   1.030   4.694  0.00  0.00    +0.277 C 
ENDBRANCH  31  33
ENDBRANCH  26  27
ENDBRANCH   5  26
TORSDOF 7
