REMARK  Name = ZINC37447383
REMARK  11 active torsions:
REMARK  status: ('A' for Active; 'I' for Inactive)
REMARK    1  A    between atoms: C_1  and  C_2
REMARK    2  A    between atoms: C_2  and  C_3
REMARK    3  A    between atoms: N_9  and  C_10
REMARK    4  A    between atoms: C_10  and  C_11
REMARK    5  A    between atoms: C_11  and  C_12
REMARK    6  A    between atoms: C_12  and  N_13
REMARK    7  A    between atoms: C_14  and  C_16
REMARK    8  A    between atoms: C_22  and  C_27
REMARK    9  A    between atoms: C_22  and  C_28
REMARK   10  A    between atoms: N_23  and  C_26
REMARK   11  A    between atoms: N_30  and  C_31
REMARK                            x       y       z     vdW  Elec       q    Type
REMARK                         _______ _______ _______ _____ _____    ______ ____
ROOT
ATOM      1  C   UNL     1      -3.481   5.785  -5.464  0.00  0.00    +0.148 A 
ATOM      2  C   UNL     1      -3.905   7.117  -5.676  0.00  0.00    +0.067 A 
ATOM      3  C   UNL     1      -4.741   7.057  -6.737  0.00  0.00    +0.124 A 
ATOM      4  N   UNL     1      -4.808   5.738  -7.136  0.00  0.00    -0.256 N 
ATOM      5  N   UNL     1      -4.062   5.030  -6.381  0.00  0.00    -0.166 NA
ATOM      6  C   UNL     1      -5.642   5.334  -8.275  0.00  0.00    +0.179 C 
ATOM      7  C   UNL     1      -6.844   6.272  -8.377  0.00  0.00    +0.130 C 
ATOM      8  N   UNL     1      -6.469   7.678  -8.286  0.00  0.00    -0.284 N 
ATOM      9  C   UNL     1      -5.501   8.105  -7.439  0.00  0.00    +0.265 C 
ATOM     10  O   UNL     1      -5.272   9.287  -7.268  0.00  0.00    -0.268 OA
ATOM     11  C   UNL     1      -7.157   8.656  -9.133  0.00  0.00    +0.133 C 
ATOM     12  C   UNL     1      -7.545   6.033  -9.715  0.00  0.00    +0.044 C 
ENDROOT
BRANCH   1  14
ATOM     13  N   UNL     1      -2.227   4.016  -4.328  0.00  0.00    -0.310 N 
ATOM     14  C   UNL     1      -2.551   5.322  -4.412  0.00  0.00    +0.264 C 
ATOM     15  O   UNL     1      -2.080   6.117  -3.624  0.00  0.00    -0.268 OA
ATOM     16  H   UNL     1      -2.603   3.381  -4.957  0.00  0.00    +0.149 HD
BRANCH  13  17
ATOM     17  C   UNL     1      -1.305   3.557  -3.286  0.00  0.00    +0.103 C 
BRANCH  17  18
ATOM     18  C   UNL     1      -1.107   2.045  -3.411  0.00  0.00    +0.000 C 
BRANCH  18  19
ATOM     19  C   UNL     1      -0.145   1.565  -2.322  0.00  0.00    -0.077 C 
BRANCH  19  25
ATOM     20  C   UNL     1       0.869  -0.365  -1.325  0.00  0.00    -0.069 C 
ATOM     21  C   UNL     1       1.002  -1.888  -1.401  0.00  0.00    -0.015 C 
ATOM     22  C   UNL     1       1.666  -2.271  -2.727  0.00  0.00    -0.003 C 
ATOM     23  C   UNL     1       0.838  -1.703  -3.883  0.00  0.00    -0.019 C 
ATOM     24  C   UNL     1       0.711  -0.187  -3.716  0.00  0.00    -0.078 C 
ATOM     25  N   UNL     1       0.045   0.113  -2.442  0.00  0.00    +0.382 N 
ATOM     26  H   UNL     1      -0.853  -0.345  -2.417  0.00  0.00    -0.081 HD
BRANCH  20  28
ATOM     27  C   UNL     1       1.093  -0.424   1.163  0.00  0.00    +0.002 C 
ATOM     28  C   UNL     1       0.207   0.023  -0.002  0.00  0.00    -0.019 C 
ENDBRANCH  20  28
ENDBRANCH  19  25
ENDBRANCH  18  19
ENDBRANCH  17  18
ENDBRANCH  13  17
ENDBRANCH   1  14
BRANCH   7  29
ATOM     29  C   UNL     1      -7.806   5.952  -7.262  0.00  0.00    +0.238 C 
ATOM     30  O   UNL     1      -7.816   4.845  -6.769  0.00  0.00    -0.273 OA
ATOM     31  N   UNL     1      -8.656   6.898  -6.813  0.00  0.00    -0.311 N 
ATOM     32  H   UNL     1      -8.648   7.784  -7.208  0.00  0.00    +0.149 HD
BRANCH  31  33
ATOM     33  C   UNL     1      -9.591   6.587  -5.730  0.00  0.00    +0.073 C 
ATOM     34  C   UNL     1     -10.895   6.000  -6.310  0.00  0.00    +0.022 C 
ATOM     35  C   UNL     1     -12.009   6.585  -5.407  0.00  0.00    +0.002 C 
ATOM     36  C   UNL     1     -11.511   8.026  -5.139  0.00  0.00    +0.002 C 
ATOM     37  C   UNL     1      -9.983   7.875  -4.986  0.00  0.00    +0.022 C 
ENDBRANCH  31  33
ENDBRANCH   7  29
TORSDOF 8
