REMARK  Name = ZINC09044635
REMARK  10 active torsions:
REMARK  status: ('A' for Active; 'I' for Inactive)
REMARK    1  A    between atoms: C_1  and  C_2
REMARK    2  A    between atoms: C_11  and  O_13
REMARK    3  A    between atoms: O_13  and  C_14
REMARK    4  A    between atoms: C_14  and  C_16
REMARK    5  A    between atoms: C_14  and  C_17
REMARK    6  A    between atoms: N_19  and  C_20
REMARK    7  A    between atoms: C_20  and  C_21
REMARK    8  A    between atoms: C_21  and  C_22
REMARK    9  A    between atoms: C_25  and  S_28
REMARK   10  A    between atoms: S_28  and  N_31
REMARK                            x       y       z     vdW  Elec       q    Type
REMARK                         _______ _______ _______ _____ _____    ______ ____
ROOT
ATOM      1  C   UNL     1      -0.391  -3.011   7.100  0.00  0.00    +0.254 C 
ATOM      2  O   UNL     1      -0.777  -4.144   6.902  0.00  0.00    -0.272 OA
ATOM      3  N   UNL     1      -0.487  -2.471   8.331  0.00  0.00    -0.312 N 
ATOM      4  H   UNL     1      -0.178  -1.565   8.488  0.00  0.00    +0.149 HD
ENDROOT
BRANCH   1   5
ATOM      5  C   UNL     1       0.198  -2.208   5.968  0.00  0.00    +0.255 C 
ATOM      6  C   UNL     1       1.673  -1.924   6.258  0.00  0.00    +0.062 C 
BRANCH   5   7
ATOM      7  O   UNL     1       0.086  -2.948   4.751  0.00  0.00    -0.480 OA
BRANCH   7  18
ATOM      8  C   UNL     1      -0.243  -0.684  -1.337  0.00  0.00    +0.045 C 
ATOM      9  C   UNL     1      -0.006  -0.018  -0.006  0.00  0.00    -0.033 A 
ATOM     10  C   UNL     1       0.187   1.325   0.077  0.00  0.00    +0.096 A 
ATOM     11  C   UNL     1       0.406   1.925   1.334  0.00  0.00    +0.337 A 
ATOM     12  O   UNL     1       0.578   3.129   1.395  0.00  0.00    -0.245 OA
ATOM     13  O   UNL     1       0.429   1.203   2.466  0.00  0.00    -0.422 OA
ATOM     14  C   UNL     1       0.244  -0.134   2.453  0.00  0.00    +0.143 A 
ATOM     15  C   UNL     1       0.015  -0.798   1.233  0.00  0.00    +0.021 A 
ATOM     16  C   UNL     1      -0.182  -2.183   1.216  0.00  0.00    +0.015 A 
ATOM     17  C   UNL     1      -0.157  -2.886   2.385  0.00  0.00    +0.046 A 
ATOM     18  C   UNL     1       0.064  -2.234   3.596  0.00  0.00    +0.125 A 
ATOM     19  C   UNL     1       0.272  -0.865   3.631  0.00  0.00    +0.092 A 
ENDBRANCH   7  18
ENDBRANCH   5   7
ENDBRANCH   1   5
BRANCH   3  20
ATOM     20  C   UNL     1      -1.060  -3.251   9.430  0.00  0.00    +0.109 C 
BRANCH  20  21
ATOM     21  C   UNL     1      -1.053  -2.412  10.709  0.00  0.00    +0.054 C 
BRANCH  21  22
ATOM     22  C   UNL     1      -1.642  -3.214  11.840  0.00  0.00    -0.046 A 
ATOM     23  C   UNL     1      -3.001  -3.169  12.086  0.00  0.00    +0.005 A 
ATOM     24  C   UNL     1      -3.541  -3.905  13.124  0.00  0.00    +0.029 A 
ATOM     25  C   UNL     1      -2.722  -4.688  13.916  0.00  0.00    +0.105 A 
ATOM     26  C   UNL     1      -1.362  -4.734  13.669  0.00  0.00    +0.029 A 
ATOM     27  C   UNL     1      -0.823  -4.001  12.629  0.00  0.00    +0.005 A 
BRANCH  25  28
ATOM     28  S   UNL     1      -3.410  -5.626  15.239  0.00  0.00    +0.056 S 
ATOM     29  O   UNL     1      -2.358  -5.848  16.169  0.00  0.00    -0.153 OA
ATOM     30  O   UNL     1      -4.625  -4.985  15.602  0.00  0.00    -0.153 OA
BRANCH  28  31
ATOM     31  N   UNL     1      -3.821  -7.109  14.627  0.00  0.00    -0.204 NA
ATOM     32  H   UNL     1      -3.662  -7.307  13.690  0.00  0.00    +0.144 HD
ATOM     33  H   UNL     1      -4.220  -7.778  15.204  0.00  0.00    +0.144 HD
ENDBRANCH  28  31
ENDBRANCH  25  28
ENDBRANCH  21  22
ENDBRANCH  20  21
ENDBRANCH   3  20
TORSDOF 8
