REMARK  Name = ZINC37375867
REMARK  4 active torsions:
REMARK  status: ('A' for Active; 'I' for Inactive)
REMARK    1  A    between atoms: C_4  and  S_8
REMARK    2  A    between atoms: S_8  and  N_11
REMARK    3  A    between atoms: C_14  and  C_17
REMARK    4  A    between atoms: C_17  and  C_18
REMARK                            x       y       z     vdW  Elec       q    Type
REMARK                         _______ _______ _______ _____ _____    ______ ____
ROOT
ATOM      1  S   UNL     1       3.934  -0.833  -0.040  0.00  0.00    +0.102 S 
ATOM      2  O   UNL     1       4.736  -0.255   0.980  0.00  0.00    -0.146 OA
ATOM      3  O   UNL     1       3.624  -2.219  -0.072  0.00  0.00    -0.146 OA
ENDROOT
BRANCH   1   7
ATOM      4  C   UNL     1      -0.017   1.379   0.010  0.00  0.00    +0.021 A 
ATOM      5  C   UNL     1       1.171   2.086   0.002  0.00  0.00    +0.023 A 
ATOM      6  C   UNL     1       2.378   1.411  -0.013  0.00  0.00    +0.068 A 
ATOM      7  C   UNL     1       2.397   0.028  -0.021  0.00  0.00    +0.132 A 
ATOM      8  C   UNL     1       1.210  -0.680  -0.013  0.00  0.00    +0.050 A 
ATOM      9  C   UNL     1       0.002  -0.004   0.002  0.00  0.00    +0.043 A 
ATOM     10 CL   UNL     1      -1.489  -0.892   0.012  0.00  0.00    -0.083 Cl
ATOM     11 CL   UNL     1       3.869   2.300  -0.023  0.00  0.00    -0.082 Cl
ENDBRANCH   1   7
BRANCH   1  12
ATOM     12  N   UNL     1       4.674  -0.480  -1.480  0.00  0.00    -0.103 NA
ATOM     13  C   UNL     1       5.846  -0.996  -1.757  0.00  0.00    +0.192 A 
ATOM     14  N   UNL     1       6.629  -0.831  -2.879  0.00  0.00    -0.336 N 
ATOM     15  C   UNL     1       7.828  -1.480  -2.937  0.00  0.00    +0.035 A 
ATOM     16  C   UNL     1       8.221  -2.254  -1.925  0.00  0.00    +0.070 A 
ATOM     17  S   UNL     1       6.861  -2.093  -0.779  0.00  0.00    -0.057 S 
ATOM     18  H   UNL     1       6.335  -0.267  -3.611  0.00  0.00    +0.168 HD
BRANCH  15  19
ATOM     19  C   UNL     1       8.710  -1.323  -4.149  0.00  0.00    +0.178 C 
BRANCH  19  20
ATOM     20  C   UNL     1       8.287  -2.308  -5.209  0.00  0.00    +0.362 C 
ATOM     21  O   UNL     1       7.357  -3.067  -4.999  0.00  0.00    -0.246 OA
ATOM     22  O   UNL     1       8.877  -2.345  -6.276  0.00  0.00    -0.246 OA
ENDBRANCH  19  20
ENDBRANCH  15  19
ENDBRANCH   1  12
TORSDOF 4
