REMARK  Name = ZINC09274902
REMARK  11 active torsions:
REMARK  status: ('A' for Active; 'I' for Inactive)
REMARK    1  A    between atoms: C_1  and  C_2
REMARK    2  A    between atoms: C_2  and  N_60
REMARK    3  A    between atoms: C_3  and  C_4
REMARK    4  A    between atoms: C_3  and  N_60
REMARK    5  A    between atoms: C_5  and  C_6
REMARK    6  A    between atoms: C_5  and  N_60
REMARK    7  A    between atoms: C_6  and  C_7
REMARK    8  A    between atoms: C_7  and  N_8
REMARK    9  A    between atoms: C_9  and  C_27
REMARK   10  A    between atoms: C_12  and  C_13
REMARK   11  A    between atoms: C_12  and  O_22
REMARK                            x       y       z     vdW  Elec       q    Type
REMARK                         _______ _______ _______ _____ _____    ______ ____
ROOT
ATOM      1  N   UNL     1       3.213   2.322  -0.749  0.00  0.00    -0.284 N 
ATOM      2  C   UNL     1       2.411   1.382   0.040  0.00  0.00    +0.145 C 
ATOM      3  C   UNL     1       3.021   1.346   1.422  0.00  0.00    +0.074 C 
ATOM      4  C   UNL     1       2.591   0.593   2.503  0.00  0.00    +0.168 C 
ATOM      5  C   UNL     1       4.109   2.230   1.390  0.00  0.00    +0.249 C 
ATOM      6  O   UNL     1       4.857   2.476   2.320  0.00  0.00    -0.282 OA
ATOM      7  C   UNL     1       4.194   2.814   0.026  0.00  0.00    +0.288 C 
ATOM      8  O   UNL     1       5.029   3.618  -0.336  0.00  0.00    -0.266 OA
ENDROOT
BRANCH   4   9
ATOM      9  C   UNL     1       3.362   0.592   3.746  0.00  0.00    +0.171 A 
ATOM     10  C   UNL     1       2.841   0.753   4.995  0.00  0.00    +0.061 A 
ATOM     11  C   UNL     1       3.926   0.686   5.904  0.00  0.00    +0.021 A 
ATOM     12  C   UNL     1       4.030   0.780   7.297  0.00  0.00    +0.011 A 
ATOM     13  C   UNL     1       5.253   0.673   7.894  0.00  0.00    +0.001 A 
ATOM     14  C   UNL     1       6.395   0.471   7.131  0.00  0.00    +0.004 A 
ATOM     15  C   UNL     1       6.316   0.376   5.758  0.00  0.00    +0.047 A 
ATOM     16  C   UNL     1       5.082   0.482   5.127  0.00  0.00    +0.136 A 
ATOM     17  O   UNL     1       4.699   0.425   3.835  0.00  0.00    -0.452 OA
ENDBRANCH   4   9
BRANCH   2  18
ATOM     18  C   UNL     1       0.984   1.860   0.118  0.00  0.00    -0.021 A 
ATOM     19  C   UNL     1      -0.055   0.951   0.037  0.00  0.00    +0.006 A 
ATOM     20  C   UNL     1      -1.364   1.389   0.104  0.00  0.00    +0.001 A 
ATOM     21  C   UNL     1      -1.635   2.736   0.262  0.00  0.00    +0.015 A 
ATOM     22  C   UNL     1      -0.597   3.645   0.343  0.00  0.00    +0.018 A 
ATOM     23  C   UNL     1       0.714   3.206   0.272  0.00  0.00    +0.021 A 
ATOM     24 BR   UNL     1      -0.967   5.487   0.552  0.00  0.00    -0.050 Br
ENDBRANCH   2  18
BRANCH   4  25
ATOM     25  O   UNL     1       1.460  -0.141   2.408  0.00  0.00    -0.503 OA
ATOM     26  H   UNL     1       1.299  -0.618   3.271  0.00  0.00    +0.292 HD
ENDBRANCH   4  25
BRANCH   1  27
ATOM     27  C   UNL     1       2.982   2.668  -2.153  0.00  0.00    +0.107 C 
BRANCH  27  28
ATOM     28  C   UNL     1       2.037   3.868  -2.234  0.00  0.00    +0.000 C 
BRANCH  28  29
ATOM     29  C   UNL     1       1.795   4.230  -3.701  0.00  0.00    -0.077 C 
BRANCH  29  30
ATOM     30  N   UNL     1       0.865   5.377  -3.763  0.00  0.00    +0.379 N 
ATOM     31  H   UNL     1       0.035   5.164  -3.196  0.00  0.00    -0.082 HD
BRANCH  30  33
ATOM     32  C   UNL     1       2.734   6.966  -4.070  0.00  0.00    -0.017 C 
ATOM     33  C   UNL     1       1.518   6.587  -3.221  0.00  0.00    -0.082 C 
ENDBRANCH  30  33
BRANCH  30  34
ATOM     34  C   UNL     1       0.445   5.612  -5.160  0.00  0.00    -0.082 C 
ATOM     35  C   UNL     1      -0.766   6.547  -5.159  0.00  0.00    -0.017 C 
ENDBRANCH  30  34
ENDBRANCH  29  30
ENDBRANCH  28  29
ENDBRANCH  27  28
ENDBRANCH   1  27
TORSDOF 9
