REMARK  Name = ZINC67470607
REMARK  7 active torsions:
REMARK  status: ('A' for Active; 'I' for Inactive)
REMARK    1  A    between atoms: C_1  and  C_2
REMARK    2  A    between atoms: C_2  and  C_3
REMARK    3  A    between atoms: C_2  and  C_4
REMARK    4  A    between atoms: C_2  and  N_12
REMARK    5  A    between atoms: C_4  and  C_5
REMARK    6  A    between atoms: N_15  and  N_16
REMARK    7  A    between atoms: C_17  and  C_19
REMARK                            x       y       z     vdW  Elec       q    Type
REMARK                         _______ _______ _______ _____ _____    ______ ____
ROOT
ATOM      1  N   UNL     1       0.688  -0.476  -1.203  0.00  0.00    -0.293 N 
ATOM      2  C   UNL     1       1.972  -0.132  -1.427  0.00  0.00    +0.316 C 
ATOM      3  O   UNL     1       2.561   0.570  -0.628  0.00  0.00    -0.251 OA
ATOM      4  N   UNL     1       2.602  -0.567  -2.536  0.00  0.00    -0.218 N 
ATOM      5  H   UNL     1       0.218  -1.037  -1.840  0.00  0.00    +0.151 HD
ATOM      6  H   UNL     1       3.526  -0.319  -2.697  0.00  0.00    +0.174 HD
ENDROOT
BRANCH   4   7
ATOM      7  N   UNL     1       1.924  -1.377  -3.456  0.00  0.00    -0.231 N 
ATOM      8  C   UNL     1       2.554  -1.811  -4.565  0.00  0.00    +0.258 C 
ATOM      9  O   UNL     1       3.710  -1.501  -4.766  0.00  0.00    -0.271 OA
ATOM     10  H   UNL     1       1.000  -1.624  -3.295  0.00  0.00    +0.173 HD
BRANCH   8  11
ATOM     11  C   UNL     1       1.825  -2.682  -5.555  0.00  0.00    +0.205 C 
ATOM     12  C   UNL     1       0.681  -1.885  -6.232  0.00  0.00    +0.043 C 
ATOM     13  C   UNL     1       0.527  -2.666  -7.565  0.00  0.00    +0.031 C 
ATOM     14  C   UNL     1       1.979  -3.098  -7.862  0.00  0.00    +0.161 C 
ATOM     15  O   UNL     1       2.703  -3.065  -6.625  0.00  0.00    -0.367 OA
ENDBRANCH   8  11
ENDBRANCH   4   7
BRANCH   1  17
ATOM     16  C   UNL     1      -0.019   1.526   0.010  0.00  0.00    +0.031 C 
ATOM     17  C   UNL     1       0.002  -0.004   0.002  0.00  0.00    +0.034 C 
ATOM     18  C   UNL     1       0.742  -0.511   1.242  0.00  0.00    +0.031 C 
BRANCH  17  19
ATOM     19  C   UNL     1      -1.433  -0.534   0.013  0.00  0.00    +0.060 C 
BRANCH  19  20
ATOM     20  C   UNL     1      -2.139  -0.048   1.253  0.00  0.00    -0.045 A 
ATOM     21  C   UNL     1      -2.093  -0.798   2.413  0.00  0.00    +0.005 A 
ATOM     22  C   UNL     1      -2.739  -0.352   3.550  0.00  0.00    +0.015 A 
ATOM     23  C   UNL     1      -3.432   0.845   3.528  0.00  0.00    +0.018 A 
ATOM     24  C   UNL     1      -3.478   1.595   2.367  0.00  0.00    +0.015 A 
ATOM     25  C   UNL     1      -2.827   1.151   1.231  0.00  0.00    +0.005 A 
ATOM     26 BR   UNL     1      -4.317   1.454   5.084  0.00  0.00    -0.050 Br
ENDBRANCH  19  20
ENDBRANCH  17  19
ENDBRANCH   1  17
TORSDOF 5
