REMARK  Name = ZINC39639152
REMARK  10 active torsions:
REMARK  status: ('A' for Active; 'I' for Inactive)
REMARK    1  A    between atoms: C_1  and  O_2
REMARK    2  A    between atoms: O_2  and  C_3
REMARK    3  A    between atoms: C_5  and  O_39
REMARK    4  A    between atoms: C_6  and  C_11
REMARK    5  A    between atoms: C_7  and  O_9
REMARK    6  A    between atoms: O_9  and  C_10
REMARK    7  A    between atoms: C_11  and  N_12
REMARK    8  A    between atoms: C_13  and  C_15
REMARK    9  A    between atoms: C_26  and  C_28
REMARK   10  A    between atoms: O_39  and  C_40
REMARK                            x       y       z     vdW  Elec       q    Type
REMARK                         _______ _______ _______ _____ _____    ______ ____
ROOT
ATOM      1  C   UNL     1       6.188  -3.518  -4.686  0.00  0.00    +0.100 C 
ATOM      2  C   UNL     1       6.346  -4.373  -3.409  0.00  0.00    +0.121 C 
ATOM      3  N   UNL     1       6.502  -5.761  -3.904  0.00  0.00    -0.297 N 
ATOM      4  C   UNL     1       7.356  -5.628  -5.109  0.00  0.00    +0.115 C 
ATOM      5  C   UNL     1       6.855  -4.344  -5.799  0.00  0.00    -0.004 C 
ATOM      6  C   UNL     1       8.028  -3.574  -6.397  0.00  0.00    -0.010 C 
ATOM      7  C   UNL     1       8.639  -4.390  -7.540  0.00  0.00    -0.082 C 
ATOM      8  N   UNL     1       7.618  -4.640  -8.565  0.00  0.00    +0.379 N 
ATOM      9  C   UNL     1       6.537  -5.461  -8.005  0.00  0.00    -0.082 C 
ATOM     10  C   UNL     1       5.838  -4.690  -6.882  0.00  0.00    -0.010 C 
ATOM     11  C   UNL     1       5.986  -6.889  -3.377  0.00  0.00    +0.260 C 
ATOM     12  O   UNL     1       6.207  -7.960  -3.902  0.00  0.00    -0.271 OA
ATOM     13  H   UNL     1       7.240  -3.761  -8.883  0.00  0.00    -0.086 HD
ATOM     14  H   UNL     1       8.037  -5.125  -9.344  0.00  0.00    -0.086 HD
ENDROOT
BRANCH  11  15
ATOM     15  C   UNL     1       5.135  -6.819  -2.135  0.00  0.00    +0.296 C 
ATOM     16  C   UNL     1       5.986  -6.347  -0.950  0.00  0.00    +0.283 C 
ATOM     17  O   UNL     1       5.152  -6.306   0.213  0.00  0.00    -0.484 OA
ATOM     18  C   UNL     1       4.354  -7.387   0.432  0.00  0.00    +0.162 A 
ATOM     19  C   UNL     1       3.805  -7.584   1.690  0.00  0.00    +0.049 A 
ATOM     20  C   UNL     1       2.990  -8.675   1.926  0.00  0.00    +0.004 A 
ATOM     21  C   UNL     1       2.720  -9.572   0.910  0.00  0.00    +0.004 A 
ATOM     22  C   UNL     1       3.265  -9.382  -0.346  0.00  0.00    +0.049 A 
ATOM     23  C   UNL     1       4.085  -8.290  -0.589  0.00  0.00    +0.163 A 
ATOM     24  O   UNL     1       4.621  -8.120  -1.829  0.00  0.00    -0.473 OA
ENDBRANCH  11  15
BRANCH   1  26
ATOM     25  N   UNL     1       4.336  -2.195  -5.656  0.00  0.00    -0.311 N 
ATOM     26  C   UNL     1       4.729  -3.303  -4.996  0.00  0.00    +0.218 C 
ATOM     27  O   UNL     1       3.907  -4.126  -4.651  0.00  0.00    -0.275 OA
ATOM     28  H   UNL     1       4.993  -1.537  -5.932  0.00  0.00    +0.149 HD
BRANCH  25  29
ATOM     29  C   UNL     1       2.918  -1.986  -5.957  0.00  0.00    +0.147 C 
BRANCH  29  33
ATOM     30  C   UNL     1       2.434   1.714  -8.055  0.00  0.00    +0.127 A 
ATOM     31  C   UNL     1       2.650   0.540  -8.761  0.00  0.00    +0.091 A 
ATOM     32  C   UNL     1       2.807  -0.658  -8.081  0.00  0.00    +0.132 A 
ATOM     33  C   UNL     1       2.748  -0.683  -6.696  0.00  0.00    +0.053 A 
ATOM     34  C   UNL     1       2.533   0.491  -5.990  0.00  0.00    +0.132 A 
ATOM     35  C   UNL     1       2.381   1.690  -6.670  0.00  0.00    +0.091 A 
BRANCH  30  37
ATOM     36  C   UNL     1       2.348   2.839 -10.148  0.00  0.00    +0.277 C 
ATOM     37  O   UNL     1       2.281   2.889  -8.721  0.00  0.00    -0.495 OA
ENDBRANCH  30  37
BRANCH  34  38
ATOM     38  O   UNL     1       2.475   0.467  -4.633  0.00  0.00    -0.495 OA
ATOM     39  C   UNL     1       2.250   1.714  -3.971  0.00  0.00    +0.277 C 
ENDBRANCH  34  38
BRANCH  32  40
ATOM     40  O   UNL     1       3.018  -1.809  -8.773  0.00  0.00    -0.495 OA
ATOM     41  C   UNL     1       3.067  -1.710 -10.197  0.00  0.00    +0.277 C 
ENDBRANCH  32  40
ENDBRANCH  29  33
ENDBRANCH  25  29
ENDBRANCH   1  26
TORSDOF 7
