REMARK  Name = ZINC05557488
REMARK  3 active torsions:
REMARK  status: ('A' for Active; 'I' for Inactive)
REMARK    1  A    between atoms: C_7  and  C_19
REMARK    2  A    between atoms: N_9  and  C_10
REMARK    3  A    between atoms: C_10  and  C_11
REMARK                            x       y       z     vdW  Elec       q    Type
REMARK                         _______ _______ _______ _____ _____    ______ ____
ROOT
ATOM      1  C   UNL     1      -1.429   5.588   3.919  0.00  0.00    +0.001 A 
ATOM      2  C   UNL     1      -0.733   5.672   2.721  0.00  0.00    +0.002 A 
ATOM      3  C   UNL     1      -0.734   4.619   1.834  0.00  0.00    +0.026 A 
ATOM      4  C   UNL     1      -1.433   3.454   2.139  0.00  0.00    +0.050 A 
ATOM      5  C   UNL     1      -2.141   3.374   3.348  0.00  0.00    +0.007 A 
ATOM      6  C   UNL     1      -2.132   4.447   4.236  0.00  0.00    +0.010 A 
ATOM      7  C   UNL     1      -2.768   2.038   3.363  0.00  0.00    +0.001 A 
ATOM      8  C   UNL     1      -2.408   1.429   2.194  0.00  0.00    +0.095 A 
ATOM      9  N   UNL     1      -1.622   2.265   1.466  0.00  0.00    -0.342 N 
ENDROOT
BRANCH   7  10
ATOM     10  C   UNL     1      -3.608   1.476   4.421  0.00  0.00    +0.030 C 
ATOM     11  C   UNL     1      -4.383   0.387   4.168  0.00  0.00    +0.078 C 
ATOM     12  C   UNL     1      -5.360  -0.284   5.037  0.00  0.00    +0.256 C 
ATOM     13  O   UNL     1      -5.584   0.113   6.167  0.00  0.00    -0.269 OA
ATOM     14  N   UNL     1      -5.987  -1.337   4.540  0.00  0.00    -0.261 N 
ATOM     15  C   UNL     1      -5.718  -1.772   3.258  0.00  0.00    +0.158 C 
ATOM     16  N   UNL     1      -6.239  -2.782   2.617  0.00  0.00    -0.279 NA
ATOM     17  S   UNL     1      -4.491  -0.608   2.687  0.00  0.00    -0.049 S 
ATOM     18  H   UNL     1      -6.728  -1.875   5.150  0.00  0.00    +0.157 HD
ATOM     19  H   UNL     1      -6.998  -3.411   3.106  0.00  0.00    +0.189 HD
ENDBRANCH   7  10
BRANCH   9  20
ATOM     20  C   UNL     1      -1.050   1.945   0.156  0.00  0.00    +0.157 C 
BRANCH  20  21
ATOM     21  C   UNL     1       0.349   1.414   0.334  0.00  0.00    -0.026 A 
ATOM     22  C   UNL     1       1.424   2.284   0.327  0.00  0.00    +0.007 A 
ATOM     23  C   UNL     1       2.708   1.797   0.484  0.00  0.00    +0.022 A 
ATOM     24  C   UNL     1       2.918   0.440   0.649  0.00  0.00    +0.059 A 
ATOM     25  C   UNL     1       1.842  -0.431   0.655  0.00  0.00    +0.060 A 
ATOM     26  C   UNL     1       0.557   0.058   0.498  0.00  0.00    +0.026 A 
ATOM     27 CL   UNL     1       2.104  -2.134   0.862  0.00  0.00    -0.082 Cl
ATOM     28 CL   UNL     1       4.531  -0.172   0.846  0.00  0.00    -0.082 Cl
ENDBRANCH  20  21
ENDBRANCH   9  20
TORSDOF 3
