REMARK  Name = ZINC39367457
REMARK  4 active torsions:
REMARK  status: ('A' for Active; 'I' for Inactive)
REMARK    1  A    between atoms: C_8  and  C_12
REMARK    2  A    between atoms: C_12  and  S_13
REMARK    3  A    between atoms: S_13  and  C_14
REMARK    4  A    between atoms: C_17  and  N_20
REMARK                            x       y       z     vdW  Elec       q    Type
REMARK                         _______ _______ _______ _____ _____    ______ ____
ROOT
ATOM      1  C   UNL     1      -0.019   1.528   0.010  0.00  0.00    +0.002 C 
ATOM      2  C   UNL     1       1.399   2.094  -0.000  0.00  0.00    +0.004 C 
ATOM      3  C   UNL     1       2.127   1.690  -1.290  0.00  0.00    +0.033 C 
ATOM      4  C   UNL     1       2.011   0.171  -1.399  0.00  0.00    -0.042 C 
ATOM      5  C   UNL     1       3.041  -0.663  -1.540  0.00  0.00    +0.071 C 
ATOM      6  C   UNL     1       2.783  -2.124  -1.440  0.00  0.00    +0.111 C 
ATOM      7  N   UNL     1       3.743  -3.015  -1.522  0.00  0.00    -0.227 NA
ATOM      8  C   UNL     1       4.986  -2.570  -1.706  0.00  0.00    +0.134 C 
ATOM      9  N   UNL     1       5.334  -1.314  -1.809  0.00  0.00    -0.160 NA
ATOM     10  C   UNL     1       4.478  -0.278  -1.740  0.00  0.00    +0.271 C 
ATOM     11  O   UNL     1       4.841   0.883  -1.833  0.00  0.00    -0.268 OA
ATOM     12  S   UNL     1       1.037  -2.258  -1.218  0.00  0.00    -0.097 S 
ATOM     13  C   UNL     1       0.626  -0.473  -1.314  0.00  0.00    +0.079 C 
ATOM     14  C   UNL     1       0.002  -0.004   0.002  0.00  0.00    +0.019 C 
ENDROOT
BRANCH   8  15
ATOM     15  C   UNL     1       6.081  -3.601  -1.802  0.00  0.00    +0.150 C 
BRANCH  15  16
ATOM     16  S   UNL     1       7.674  -2.769  -2.050  0.00  0.00    -0.090 S 
BRANCH  16  17
ATOM     17  C   UNL     1       8.836  -4.091  -2.141  0.00  0.00    +0.151 C 
ATOM     18  N   UNL     1       8.605  -5.365  -2.058  0.00  0.00    -0.171 NA
ATOM     19  N   UNL     1       9.594  -6.319  -2.144  0.00  0.00    -0.241 N 
ATOM     20  C   UNL     1      10.964  -5.792  -2.341  0.00  0.00    +0.219 C 
ATOM     21  S   UNL     1      10.603  -3.988  -2.378  0.00  0.00    -0.058 S 
ATOM     22  H   UNL     1       9.407  -7.269  -2.079  0.00  0.00    +0.171 HD
BRANCH  20  23
ATOM     23  N   UNL     1      11.839  -6.145  -1.215  0.00  0.00    -0.303 NA
ATOM     24  H   UNL     1      12.771  -5.784  -1.354  0.00  0.00    +0.121 HD
ATOM     25  H   UNL     1      11.453  -5.821  -0.341  0.00  0.00    +0.121 HD
ENDBRANCH  20  23
ENDBRANCH  16  17
ENDBRANCH  15  16
ENDBRANCH   8  15
TORSDOF 4
