REMARK  Name = ZINC01211764
REMARK  5 active torsions:
REMARK  status: ('A' for Active; 'I' for Inactive)
REMARK    1  A    between atoms: C_4  and  C_7
REMARK    2  A    between atoms: C_10  and  C_12
REMARK    3  A    between atoms: C_10  and  O_16
REMARK    4  A    between atoms: C_17  and  C_19
REMARK    5  A    between atoms: C_23  and  N_25
REMARK                            x       y       z     vdW  Elec       q    Type
REMARK                         _______ _______ _______ _____ _____    ______ ____
ROOT
ATOM      1  C   UNL     1       4.559   4.545   0.202  0.00  0.00    +0.071 C 
ATOM      2  N   UNL     1       3.605   3.686   0.101  0.00  0.00    -0.178 NA
ATOM      3  N   UNL     1       2.330   4.248   0.104  0.00  0.00    -0.148 N 
ATOM      4  C   UNL     1       2.454   5.709   0.221  0.00  0.00    +0.257 C 
ATOM      5  C   UNL     1       3.977   5.938   0.295  0.00  0.00    +0.124 C 
ATOM      6  C   UNL     1       1.172   3.564   0.009  0.00  0.00    +0.269 C 
ATOM      7  O   UNL     1       0.116   4.164  -0.052  0.00  0.00    -0.268 OA
ENDROOT
BRANCH   1  11
ATOM      8  C   UNL     1       8.700   3.613   0.260  0.00  0.00    +0.000 A 
ATOM      9  C   UNL     1       7.766   2.597   0.148  0.00  0.00    +0.001 A 
ATOM     10  C   UNL     1       6.419   2.893   0.129  0.00  0.00    +0.010 A 
ATOM     11  C   UNL     1       5.998   4.221   0.222  0.00  0.00    -0.002 A 
ATOM     12  C   UNL     1       6.946   5.242   0.330  0.00  0.00    +0.010 A 
ATOM     13  C   UNL     1       8.289   4.931   0.353  0.00  0.00    +0.001 A 
ENDBRANCH   1  11
BRANCH   6  14
ATOM     14  C   UNL     1       1.186   2.087  -0.019  0.00  0.00    +0.041 A 
ATOM     15  C   UNL     1       2.399   1.398  -0.073  0.00  0.00    +0.013 A 
ATOM     16  C   UNL     1       2.405   0.019  -0.100  0.00  0.00    +0.003 A 
ATOM     17  C   UNL     1       1.212  -0.682  -0.074  0.00  0.00    +0.033 A 
ATOM     18  C   UNL     1       0.006  -0.005  -0.021  0.00  0.00    +0.127 A 
ATOM     19  C   UNL     1      -0.014   1.374   0.006  0.00  0.00    +0.045 A 
BRANCH  18  20
ATOM     20  N   UNL     1      -1.265  -0.763   0.006  0.00  0.00    +0.056 N 
ATOM     21  O   UNL     1      -2.327  -0.169   0.052  0.00  0.00    -0.126 OA
ATOM     22  O   UNL     1      -1.249  -1.981  -0.018  0.00  0.00    -0.126 OA
ENDBRANCH  18  20
ENDBRANCH   6  14
BRANCH   4  23
ATOM     23  C   UNL     1       1.864   6.400  -1.010  0.00  0.00    +0.438 C 
ATOM     24  F   UNL     1       0.502   6.095  -1.107  0.00  0.00    -0.166 F 
ATOM     25  F   UNL     1       2.024   7.785  -0.889  0.00  0.00    -0.166 F 
ATOM     26  F   UNL     1       2.525   5.952  -2.159  0.00  0.00    -0.166 F 
ENDBRANCH   4  23
BRANCH   4  27
ATOM     27  O   UNL     1       1.819   6.174   1.413  0.00  0.00    -0.363 OA
ATOM     28  H   UNL     1       0.870   5.994   1.450  0.00  0.00    +0.212 HD
ENDBRANCH   4  27
TORSDOF 5
