REMARK  Name = ZINC04815173
REMARK  3 active torsions:
REMARK  status: ('A' for Active; 'I' for Inactive)
REMARK    1  A    between atoms: C_4  and  C_7
REMARK    2  A    between atoms: C_8  and  C_9
REMARK    3  A    between atoms: N_11  and  C_12
REMARK                            x       y       z     vdW  Elec       q    Type
REMARK                         _______ _______ _______ _____ _____    ______ ____
ROOT
ATOM      1  C   UNL     1      -2.331  -4.237  -0.088  0.00  0.00    +0.061 A 
ATOM      2  C   UNL     1      -1.171  -4.957  -0.098  0.00  0.00    +0.025 A 
ATOM      3  C   UNL     1      -1.176  -6.347  -0.193  0.00  0.00    +0.004 A 
ATOM      4  C   UNL     1      -2.332  -7.056  -0.281  0.00  0.00    +0.030 A 
ATOM      5  C   UNL     1      -3.570  -6.380  -0.278  0.00  0.00    +0.092 A 
ATOM      6  C   UNL     1      -3.574  -4.916  -0.172  0.00  0.00    +0.111 A 
ATOM      7  N   UNL     1      -4.720  -4.248  -0.173  0.00  0.00    -0.242 NA
ATOM      8  C   UNL     1      -5.867  -4.915  -0.257  0.00  0.00    +0.090 A 
ATOM      9  C   UNL     1      -7.105  -4.237  -0.253  0.00  0.00    +0.030 A 
ATOM     10  C   UNL     1      -8.258  -4.948  -0.340  0.00  0.00    +0.002 A 
ATOM     11  C   UNL     1      -8.256  -6.341  -0.435  0.00  0.00    +0.002 A 
ATOM     12  C   UNL     1      -7.101  -7.054  -0.445  0.00  0.00    +0.030 A 
ATOM     13  C   UNL     1      -5.865  -6.379  -0.357  0.00  0.00    +0.090 A 
ATOM     14  N   UNL     1      -4.716  -7.047  -0.363  0.00  0.00    -0.244 NA
ENDROOT
BRANCH   1  17
ATOM     15  C   UNL     1      -1.297  -2.157  -0.578  0.00  0.00    +0.241 C 
ATOM     16  O   UNL     1      -0.384  -2.750  -1.122  0.00  0.00    -0.270 OA
ATOM     17  N   UNL     1      -2.295  -2.847   0.009  0.00  0.00    -0.280 N 
ATOM     18  H   UNL     1      -2.987  -2.377   0.499  0.00  0.00    +0.155 HD
BRANCH  15  20
ATOM     19  C   UNL     1      -0.313  -0.003  -1.149  0.00  0.00    +0.013 C 
ATOM     20  C   UNL     1      -1.312  -0.693  -0.562  0.00  0.00    +0.068 C 
BRANCH  19  24
ATOM     21  C   UNL     1      -0.356   4.239  -1.102  0.00  0.00    +0.000 A 
ATOM     22  C   UNL     1       0.684   3.568  -1.721  0.00  0.00    +0.001 A 
ATOM     23  C   UNL     1       0.705   2.189  -1.740  0.00  0.00    +0.008 A 
ATOM     24  C   UNL     1      -0.328   1.469  -1.133  0.00  0.00    -0.025 A 
ATOM     25  C   UNL     1      -1.378   2.155  -0.514  0.00  0.00    +0.008 A 
ATOM     26  C   UNL     1      -1.382   3.534  -0.498  0.00  0.00    +0.001 A 
ENDBRANCH  19  24
ENDBRANCH  15  20
ENDBRANCH   1  17
TORSDOF 3
