REMARK  Name = ZINC20635448
REMARK  1 active torsions:
REMARK  status: ('A' for Active; 'I' for Inactive)
REMARK    1  A    between atoms: C_6  and  C_7
REMARK                            x       y       z     vdW  Elec       q    Type
REMARK                         _______ _______ _______ _____ _____    ______ ____
ROOT
ATOM      1  C   UNL     1      -1.293  -0.775   0.011  0.00  0.00    +0.090 C 
ATOM      2  C   UNL     1      -1.374  -1.611  -1.230  0.00  0.00    +0.044 A 
ATOM      3  C   UNL     1      -1.703  -1.036  -2.455  0.00  0.00    +0.127 A 
ATOM      4  N   UNL     1      -1.761  -1.812  -3.535  0.00  0.00    -0.199 NA
ATOM      5  C   UNL     1      -1.512  -3.110  -3.453  0.00  0.00    +0.221 A 
ATOM      6  N   UNL     1      -1.198  -3.689  -2.304  0.00  0.00    -0.199 NA
ATOM      7  C   UNL     1      -1.123  -2.975  -1.185  0.00  0.00    +0.134 A 
ATOM      8  N   UNL     1      -0.803  -3.574   0.022  0.00  0.00    -0.302 N 
ATOM      9  C   UNL     1      -1.102  -2.954   1.205  0.00  0.00    +0.017 C 
ATOM     10  C   UNL     1      -1.350  -1.630   1.252  0.00  0.00    +0.024 C 
ATOM     11  C   UNL     1      -1.674  -0.999   2.466  0.00  0.00    +0.162 C 
ATOM     12  O   UNL     1      -1.885   0.198   2.477  0.00  0.00    -0.292 OA
ATOM     13  C   UNL     1      -1.764  -1.775   3.751  0.00  0.00    +0.080 C 
ATOM     14  C   UNL     1      -2.161  -3.220   3.434  0.00  0.00    +0.014 C 
ATOM     15  C   UNL     1      -1.139  -3.797   2.457  0.00  0.00    +0.051 C 
ATOM     16  N   UNL     1      -1.582  -3.883  -4.599  0.00  0.00    -0.300 N 
ATOM     17  C   UNL     1      -1.317  -5.327  -4.546  0.00  0.00    +0.108 C 
ATOM     18  C   UNL     1      -2.503  -6.069  -5.171  0.00  0.00    +0.019 C 
ATOM     19  C   UNL     1      -2.752  -5.527  -6.581  0.00  0.00    +0.003 C 
ATOM     20  C   UNL     1      -3.100  -4.039  -6.503  0.00  0.00    +0.019 C 
ATOM     21  C   UNL     1      -1.927  -3.275  -5.892  0.00  0.00    +0.108 C 
ATOM     22  N   UNL     1      -1.965   0.322  -2.548  0.00  0.00    -0.343 N 
ATOM     23  H   UNL     1      -0.364  -4.439   0.029  0.00  0.00    +0.153 HD
ATOM     24  H   UNL     1      -1.920   0.880  -1.756  0.00  0.00    +0.144 HD
ATOM     25  H   UNL     1      -2.193   0.715  -3.405  0.00  0.00    +0.144 HD
ENDROOT
BRANCH   1  31
ATOM     26  C   UNL     1      -0.017   1.378   0.010  0.00  0.00    +0.006 A 
ATOM     27  C   UNL     1       1.171   2.086   0.002  0.00  0.00    +0.020 A 
ATOM     28  C   UNL     1       2.378   1.410  -0.013  0.00  0.00    +0.041 A 
ATOM     29  C   UNL     1       2.396   0.027  -0.021  0.00  0.00    +0.020 A 
ATOM     30  C   UNL     1       1.208  -0.679  -0.013  0.00  0.00    +0.006 A 
ATOM     31  C   UNL     1       0.002  -0.004   0.002  0.00  0.00    -0.035 A 
ATOM     32 CL   UNL     1       3.870   2.298  -0.023  0.00  0.00    -0.084 Cl
ENDBRANCH   1  31
TORSDOF 1
