REMARK  Name = ZINC12450237
REMARK  10 active torsions:
REMARK  status: ('A' for Active; 'I' for Inactive)
REMARK    1  A    between atoms: C_1  and  C_2
REMARK    2  A    between atoms: C_2  and  C_3
REMARK    3  A    between atoms: C_2  and  C_4
REMARK    4  A    between atoms: C_2  and  N_58
REMARK    5  A    between atoms: C_4  and  O_5
REMARK    6  A    between atoms: C_6  and  C_7
REMARK    7  A    between atoms: C_6  and  N_58
REMARK    8  A    between atoms: N_15  and  C_18
REMARK    9  A    between atoms: C_18  and  C_19
REMARK   10  A    between atoms: C_23  and  C_25
REMARK                            x       y       z     vdW  Elec       q    Type
REMARK                         _______ _______ _______ _____ _____    ______ ____
ROOT
ATOM      1  C   UNL     1      -1.338   6.531  -3.285  0.00  0.00    +0.001 A 
ATOM      2  C   UNL     1      -0.202   6.793  -3.978  0.00  0.00    +0.017 A 
ATOM      3  C   UNL     1       1.086   6.569  -3.319  0.00  0.00    -0.001 A 
ATOM      4  C   UNL     1       2.291   6.820  -3.980  0.00  0.00    +0.014 A 
ATOM      5  C   UNL     1       3.482   6.615  -3.336  0.00  0.00    -0.043 A 
ATOM      6  C   UNL     1       3.501   6.143  -2.029  0.00  0.00    -0.042 A 
ATOM      7  C   UNL     1       2.321   5.885  -1.361  0.00  0.00    +0.030 A 
ATOM      8  C   UNL     1       1.101   6.096  -1.994  0.00  0.00    +0.053 A 
ATOM      9  N   UNL     1      -0.089   5.844  -1.346  0.00  0.00    -0.304 N 
ATOM     10  C   UNL     1      -1.268   6.052  -1.959  0.00  0.00    +0.253 A 
ATOM     11  O   UNL     1      -2.301   5.822  -1.355  0.00  0.00    -0.267 OA
ATOM     12  C   UNL     1       4.935   5.996  -1.564  0.00  0.00    +0.036 C 
ATOM     13  C   UNL     1       5.782   6.003  -2.853  0.00  0.00    +0.009 C 
ATOM     14  C   UNL     1       4.900   6.813  -3.827  0.00  0.00    +0.036 C 
ENDROOT
BRANCH   1  15
ATOM     15  C   UNL     1      -2.681   6.751  -3.933  0.00  0.00    -0.040 C 
BRANCH  15  16
ATOM     16  N   UNL     1      -3.153   5.478  -4.511  0.00  0.00    +0.387 N 
ATOM     17  H   UNL     1      -2.477   5.153  -5.212  0.00  0.00    -0.085 HD
ATOM     18  H   UNL     1      -3.237   4.778  -3.765  0.00  0.00    -0.085 HD
BRANCH  16  20
ATOM     19  C   UNL     1      -5.484   6.144  -4.116  0.00  0.00    -0.008 C 
ATOM     20  C   UNL     1      -4.468   5.665  -5.154  0.00  0.00    -0.050 C 
ATOM     21  C   UNL     1      -4.351   6.703  -6.271  0.00  0.00    -0.008 C 
BRANCH  20  22
ATOM     22  C   UNL     1      -4.931   4.331  -5.743  0.00  0.00    +0.143 C 
BRANCH  22  23
ATOM     23  O   UNL     1      -6.205   4.503  -6.368  0.00  0.00    -0.396 OA
ATOM     24  H   UNL     1      -6.560   3.696  -6.764  0.00  0.00    +0.209 HD
ENDBRANCH  22  23
ENDBRANCH  20  22
ENDBRANCH  16  20
ENDBRANCH  15  16
ENDBRANCH   1  15
BRANCH   9  25
ATOM     25  C   UNL     1      -0.070   5.347   0.032  0.00  0.00    +0.160 C 
BRANCH  25  26
ATOM     26  C   UNL     1      -0.050   3.840   0.023  0.00  0.00    -0.027 A 
ATOM     27  C   UNL     1       1.157   3.165   0.008  0.00  0.00    +0.005 A 
ATOM     28  C   UNL     1       1.175   1.783   0.000  0.00  0.00    +0.001 A 
ATOM     29  C   UNL     1      -0.013   1.076   0.008  0.00  0.00    +0.012 A 
ATOM     30  C   UNL     1      -1.219   1.750   0.017  0.00  0.00    +0.055 A 
ATOM     31  C   UNL     1      -1.238   3.133   0.029  0.00  0.00    +0.017 A 
BRANCH  30  32
ATOM     32  C   UNL     1      -2.514   0.979   0.019  0.00  0.00    +0.417 C 
ATOM     33  F   UNL     1      -2.239  -0.392   0.010  0.00  0.00    -0.166 F 
ATOM     34  F   UNL     1      -3.246   1.301   1.167  0.00  0.00    -0.166 F 
ATOM     35  F   UNL     1      -3.257   1.314  -1.118  0.00  0.00    -0.166 F 
ENDBRANCH  30  32
ENDBRANCH  25  26
ENDBRANCH   9  25
TORSDOF 8
