REMARK  Name = ZINC39935999
REMARK  7 active torsions:
REMARK  status: ('A' for Active; 'I' for Inactive)
REMARK    1  A    between atoms: C_1  and  N_2
REMARK    2  A    between atoms: C_3  and  C_25
REMARK    3  A    between atoms: C_7  and  S_8
REMARK    4  A    between atoms: S_8  and  C_9
REMARK    5  A    between atoms: C_11  and  N_21
REMARK    6  A    between atoms: N_21  and  C_22
REMARK    7  A    between atoms: C_25  and  C_26
REMARK                            x       y       z     vdW  Elec       q    Type
REMARK                         _______ _______ _______ _____ _____    ______ ____
ROOT
ATOM      1  C   UNL     1       2.462   0.021   0.261  0.00  0.00    +0.184 C 
ATOM      2  C   UNL     1       3.833  -0.412  -0.224  0.00  0.00    +0.036 C 
ATOM      3  C   UNL     1       4.713  -0.932   0.736  0.00  0.00    +0.014 A 
ATOM      4  C   UNL     1       6.004  -1.357   0.373  0.00  0.00    +0.011 A 
ATOM      5  C   UNL     1       6.840  -1.857   1.325  0.00  0.00    +0.001 A 
ATOM      6  C   UNL     1       6.442  -1.958   2.653  0.00  0.00    +0.002 A 
ATOM      7  C   UNL     1       5.204  -1.563   3.064  0.00  0.00    +0.024 A 
ATOM      8  C   UNL     1       4.292  -1.036   2.134  0.00  0.00    +0.042 A 
ATOM      9  N   UNL     1       3.075  -0.648   2.540  0.00  0.00    -0.284 N 
ATOM     10  C   UNL     1       2.164  -0.145   1.734  0.00  0.00    +0.236 C 
ATOM     11  O   UNL     1       1.080   0.187   2.176  0.00  0.00    -0.274 OA
ATOM     12  H   UNL     1       2.853  -0.741   3.480  0.00  0.00    +0.155 HD
ENDROOT
BRANCH   2  13
ATOM     13  N   UNL     1       4.186  -0.303  -1.512  0.00  0.00    -0.342 N 
ATOM     14  H   UNL     1       5.071  -0.580  -1.797  0.00  0.00    +0.146 HD
BRANCH  13  15
ATOM     15  C   UNL     1       3.236   0.235  -2.489  0.00  0.00    +0.070 C 
ATOM     16  C   UNL     1       3.639   0.189  -3.965  0.00  0.00    +0.024 C 
ATOM     17  C   UNL     1       3.625   1.524  -3.217  0.00  0.00    +0.024 C 
ENDBRANCH  13  15
ENDBRANCH   2  13
BRANCH   1  18
ATOM     18  S   UNL     1       2.251   1.774  -0.156  0.00  0.00    -0.070 S 
BRANCH  18  24
ATOM     19  C   UNL     1       0.579   4.558  -0.460  0.00  0.00    +0.133 C 
ATOM     20  N   UNL     1      -0.051   3.332   0.038  0.00  0.00    -0.292 N 
ATOM     21  C   UNL     1      -1.455   3.168   0.449  0.00  0.00    +0.177 C 
ATOM     22  N   UNL     1      -1.542   1.755   0.857  0.00  0.00    -0.246 N 
ATOM     23  N   UNL     1      -0.263   1.216   0.670  0.00  0.00    -0.163 NA
ATOM     24  C   UNL     1       0.558   2.098   0.209  0.00  0.00    +0.176 C 
ATOM     25  H   UNL     1      -2.327   1.292   1.188  0.00  0.00    +0.170 HD
BRANCH  21  26
ATOM     26  C   UNL     1      -2.395   3.450  -0.725  0.00  0.00    +0.048 C 
BRANCH  26  27
ATOM     27  C   UNL     1      -3.843   3.454  -0.230  0.00  0.00    +0.015 C 
ATOM     28  C   UNL     1      -4.262   2.026   0.160  0.00  0.00    +0.028 C 
ATOM     29  C   UNL     1      -5.796   1.961   0.352  0.00  0.00    +0.166 C 
ATOM     30  S   UNL     1      -6.401   3.287  -0.770  0.00  0.00    -0.031 S 
ATOM     31  O   UNL     1      -7.048   4.288   0.004  0.00  0.00    -0.174 OA
ATOM     32  O   UNL     1      -7.090   2.692  -1.860  0.00  0.00    -0.174 OA
ATOM     33  C   UNL     1      -4.785   3.942  -1.367  0.00  0.00    +0.169 C 
ENDBRANCH  26  27
ENDBRANCH  21  26
ENDBRANCH  18  24
ENDBRANCH   1  18
TORSDOF 6
