REMARK  Name = ZINC27546697
REMARK  9 active torsions:
REMARK  status: ('A' for Active; 'I' for Inactive)
REMARK    1  A    between atoms: C_1  and  C_2
REMARK    2  A    between atoms: N_4  and  C_24
REMARK    3  A    between atoms: C_8  and  C_9
REMARK    4  A    between atoms: N_13  and  C_14
REMARK    5  A    between atoms: C_17  and  S_20
REMARK    6  A    between atoms: S_20  and  N_23
REMARK    7  A    between atoms: C_27  and  C_30
REMARK    8  A    between atoms: C_30  and  O_32
REMARK    9  A    between atoms: O_32  and  C_33
REMARK                            x       y       z     vdW  Elec       q    Type
REMARK                         _______ _______ _______ _____ _____    ______ ____
ROOT
ATOM      1  C   UNL     1       3.495   0.925   0.274  0.00  0.00    +0.068 C 
ATOM      2  C   UNL     1       2.099   0.732  -0.260  0.00  0.00    +0.069 C 
ATOM      3  N   UNL     1       1.315   1.663  -0.712  0.00  0.00    -0.177 NA
ATOM      4  N   UNL     1       0.091   1.138  -1.127  0.00  0.00    -0.156 N 
ATOM      5  C   UNL     1       0.072  -0.197  -0.937  0.00  0.00    +0.272 C 
ATOM      6  O   UNL     1      -0.843  -0.961  -1.193  0.00  0.00    -0.268 OA
ATOM      7  C   UNL     1       1.378  -0.544  -0.361  0.00  0.00    +0.063 C 
ATOM      8  C   UNL     1       1.834  -1.807   0.007  0.00  0.00    +0.041 C 
ENDROOT
BRANCH   4   9
ATOM      9  C   UNL     1      -0.959   1.884  -1.664  0.00  0.00    +0.060 A 
ATOM     10  C   UNL     1      -2.067   1.236  -2.201  0.00  0.00    +0.026 A 
ATOM     11  C   UNL     1      -3.107   1.969  -2.727  0.00  0.00    +0.017 A 
ATOM     12  C   UNL     1      -3.043   3.366  -2.732  0.00  0.00    +0.059 A 
ATOM     13  C   UNL     1      -1.925   4.013  -2.197  0.00  0.00    +0.017 A 
ATOM     14  C   UNL     1      -0.892   3.274  -1.668  0.00  0.00    +0.026 A 
BRANCH  12  15
ATOM     15  C   UNL     1      -4.153   4.154  -3.299  0.00  0.00    +0.339 C 
ATOM     16  O   UNL     1      -4.056   5.362  -3.389  0.00  0.00    -0.245 OA
BRANCH  15  17
ATOM     17  O   UNL     1      -5.274   3.535  -3.718  0.00  0.00    -0.464 OA
ATOM     18  C   UNL     1      -6.325   4.374  -4.265  0.00  0.00    +0.280 C 
ENDBRANCH  15  17
ENDBRANCH  12  15
ENDBRANCH   4   9
BRANCH   8  19
ATOM     19  C   UNL     1       0.961  -2.905  -0.027  0.00  0.00    +0.047 A 
ATOM     20  C   UNL     1       1.151  -4.087  -0.734  0.00  0.00    +0.027 A 
ATOM     21  C   UNL     1       0.045  -4.897  -0.482  0.00  0.00    +0.020 A 
ATOM     22  C   UNL     1      -0.792  -4.221   0.346  0.00  0.00    +0.092 A 
ATOM     23  N   UNL     1      -0.250  -3.010   0.631  0.00  0.00    -0.316 N 
BRANCH  23  24
ATOM     24  C   UNL     1      -0.821  -2.031   1.454  0.00  0.00    +0.047 A 
ATOM     25  C   UNL     1      -0.110  -1.531   2.537  0.00  0.00    +0.028 A 
ATOM     26  C   UNL     1      -0.673  -0.561   3.343  0.00  0.00    +0.030 A 
ATOM     27  C   UNL     1      -1.949  -0.097   3.080  0.00  0.00    +0.105 A 
ATOM     28  C   UNL     1      -2.662  -0.598   2.006  0.00  0.00    +0.030 A 
ATOM     29  C   UNL     1      -2.102  -1.563   1.192  0.00  0.00    +0.028 A 
BRANCH  27  30
ATOM     30  S   UNL     1      -2.667   1.135   4.114  0.00  0.00    +0.056 S 
ATOM     31  O   UNL     1      -1.593   1.907   4.633  0.00  0.00    -0.153 OA
ATOM     32  O   UNL     1      -3.735   1.714   3.376  0.00  0.00    -0.153 OA
BRANCH  30  33
ATOM     33  N   UNL     1      -3.353   0.353   5.403  0.00  0.00    -0.204 NA
ATOM     34  H   UNL     1      -3.815   1.090   6.076  0.00  0.00    +0.144 HD
ATOM     35  H   UNL     1      -2.578  -0.206   5.948  0.00  0.00    +0.144 HD
ENDBRANCH  30  33
ENDBRANCH  27  30
ENDBRANCH  23  24
ENDBRANCH   8  19
TORSDOF 7
