REMARK  Name = ZINC15085446
REMARK  12 active torsions:
REMARK  status: ('A' for Active; 'I' for Inactive)
REMARK    1  A    between atoms: C_1  and  C_2
REMARK    2  A    between atoms: C_2  and  C_4
REMARK    3  A    between atoms: C_4  and  C_5
REMARK    4  A    between atoms: C_6  and  C_18
REMARK    5  A    between atoms: C_7  and  O_16
REMARK    6  A    between atoms: C_10  and  O_11
REMARK    7  A    between atoms: O_11  and  C_12
REMARK    8  A    between atoms: O_16  and  C_17
REMARK    9  A    between atoms: C_20  and  C_33
REMARK   10  A    between atoms: C_21  and  N_32
REMARK   11  A    between atoms: C_28  and  C_30
REMARK   12  A    between atoms: C_28  and  C_31
REMARK                            x       y       z     vdW  Elec       q    Type
REMARK                         _______ _______ _______ _____ _____    ______ ____
ROOT
ATOM      1  C   UNL     1       5.445   3.313  -0.322  0.00  0.00    +0.105 C 
ATOM      2  C   UNL     1       4.481   3.460  -1.466  0.00  0.00    +0.098 C 
ATOM      3  C   UNL     1       4.896   3.269  -2.741  0.00  0.00    +0.198 C 
ATOM      4  O   UNL     1       6.167   2.942  -3.021  0.00  0.00    -0.445 OA
ATOM      5  C   UNL     1       7.140   3.219  -2.132  0.00  0.00    +0.115 C 
ATOM      6  C   UNL     1       6.865   3.399  -0.827  0.00  0.00    +0.046 C 
ATOM      7  C   UNL     1       7.884   3.675   0.104  0.00  0.00    +0.164 C 
ATOM      8  O   UNL     1       7.595   3.849   1.271  0.00  0.00    -0.292 OA
ATOM      9  C   UNL     1       9.326   3.758  -0.320  0.00  0.00    +0.086 C 
ATOM     10  C   UNL     1       9.531   2.871  -1.552  0.00  0.00    -0.021 C 
ATOM     11  C   UNL     1       8.558   3.322  -2.642  0.00  0.00    +0.081 C 
ATOM     12  C   UNL     1       9.254   1.411  -1.187  0.00  0.00    +0.012 C 
ATOM     13  C   UNL     1      10.969   3.010  -2.056  0.00  0.00    +0.012 C 
ENDROOT
BRANCH   1  15
ATOM     14  C   UNL     1       5.585   0.814  -0.314  0.00  0.00    +0.007 A 
ATOM     15  C   UNL     1       5.231   1.978   0.344  0.00  0.00    +0.018 A 
ATOM     16  C   UNL     1       4.685   1.919   1.616  0.00  0.00    +0.170 A 
ATOM     17  C   UNL     1       4.481   0.689   2.229  0.00  0.00    +0.211 A 
ATOM     18  C   UNL     1       4.837  -0.481   1.569  0.00  0.00    +0.211 A 
ATOM     19  C   UNL     1       5.390  -0.415   0.295  0.00  0.00    +0.169 A 
ATOM     20  O   UNL     1       4.546  -1.545   2.375  0.00  0.00    -0.449 OA
ATOM     21  C   UNL     1       3.634  -1.037   3.367  0.00  0.00    +0.467 C 
ATOM     22  O   UNL     1       3.966   0.361   3.452  0.00  0.00    -0.449 OA
BRANCH  19  23
ATOM     23  O   UNL     1       5.739  -1.559  -0.355  0.00  0.00    -0.491 OA
ATOM     24  C   UNL     1       7.099  -1.982  -0.237  0.00  0.00    +0.277 C 
ENDBRANCH  19  23
BRANCH  16  25
ATOM     25  O   UNL     1       4.343   3.067   2.263  0.00  0.00    -0.491 OA
ATOM     26  C   UNL     1       2.979   3.483   2.169  0.00  0.00    +0.277 C 
ENDBRANCH  16  25
BRANCH  14  27
ATOM     27  C   UNL     1       6.184   0.883  -1.695  0.00  0.00    +0.058 C 
BRANCH  27  29
ATOM     28  C   UNL     1       6.064  -0.035  -4.016  0.00  0.00    +0.025 C 
ATOM     29  C   UNL     1       5.407  -0.042  -2.635  0.00  0.00    +0.082 C 
ATOM     30 CL   UNL     1       3.705   0.537  -2.776  0.00  0.00    -0.122 Cl
ENDBRANCH  27  29
ENDBRANCH  14  27
ENDBRANCH   1  15
BRANCH   3  31
ATOM     31  N   UNL     1       3.997   3.412  -3.769  0.00  0.00    -0.328 N 
ATOM     32  H   UNL     1       3.087   3.692  -3.583  0.00  0.00    +0.145 HD
ATOM     33  H   UNL     1       4.272   3.233  -4.682  0.00  0.00    +0.145 HD
ENDBRANCH   3  31
BRANCH   2  34
ATOM     34  C   UNL     1       3.115   3.804  -1.205  0.00  0.00    +0.101 C 
ATOM     35  N   UNL     1       2.032   4.077  -0.999  0.00  0.00    -0.191 NA
ENDBRANCH   2  34
TORSDOF 7
