REMARK  Name = ZINC39678568
REMARK  7 active torsions:
REMARK  status: ('A' for Active; 'I' for Inactive)
REMARK    1  A    between atoms: C_3  and  C_11
REMARK    2  A    between atoms: C_5  and  O_7
REMARK    3  A    between atoms: O_7  and  C_8
REMARK    4  A    between atoms: C_11  and  N_12
REMARK    5  A    between atoms: C_13  and  C_15
REMARK    6  A    between atoms: C_26  and  C_28
REMARK    7  A    between atoms: C_31  and  C_33
REMARK                            x       y       z     vdW  Elec       q    Type
REMARK                         _______ _______ _______ _____ _____    ______ ____
ROOT
ATOM      1  C   UNL     1       5.686   3.366   3.014  0.00  0.00    +0.100 C 
ATOM      2  C   UNL     1       4.716   4.342   3.717  0.00  0.00    +0.121 C 
ATOM      3  N   UNL     1       5.586   5.187   4.568  0.00  0.00    -0.294 N 
ATOM      4  C   UNL     1       6.792   5.427   3.739  0.00  0.00    +0.115 C 
ATOM      5  C   UNL     1       7.047   4.082   3.030  0.00  0.00    -0.004 C 
ATOM      6  C   UNL     1       8.067   3.259   3.811  0.00  0.00    -0.010 C 
ATOM      7  C   UNL     1       9.426   3.963   3.765  0.00  0.00    -0.082 C 
ATOM      8  N   UNL     1       9.854   4.114   2.369  0.00  0.00    +0.379 N 
ATOM      9  C   UNL     1       8.916   4.982   1.648  0.00  0.00    -0.082 C 
ATOM     10  C   UNL     1       7.535   4.322   1.605  0.00  0.00    -0.010 C 
ATOM     11  C   UNL     1       5.338   5.636   5.815  0.00  0.00    +0.282 C 
ATOM     12  O   UNL     1       6.160   6.327   6.387  0.00  0.00    -0.267 OA
ATOM     13  H   UNL     1      10.776   4.522   2.343  0.00  0.00    -0.086 HD
ATOM     14  H   UNL     1       9.878   3.207   1.926  0.00  0.00    -0.086 HD
ENDROOT
BRANCH  11  15
ATOM     15  C   UNL     1       4.079   5.292   6.480  0.00  0.00    +0.190 A 
ATOM     16  C   UNL     1       3.698   5.686   7.744  0.00  0.00    +0.055 A 
ATOM     17  C   UNL     1       2.434   5.135   7.975  0.00  0.00    +0.050 A 
ATOM     18  C   UNL     1       2.092   4.431   6.855  0.00  0.00    +0.136 A 
ATOM     19  O   UNL     1       3.088   4.537   5.960  0.00  0.00    -0.450 OA
BRANCH  18  20
ATOM     20  C   UNL     1       0.835   3.683   6.660  0.00  0.00    +0.017 A 
ATOM     21  C   UNL     1      -0.131   3.659   7.668  0.00  0.00    +0.014 A 
ATOM     22  C   UNL     1      -1.304   2.959   7.480  0.00  0.00    +0.039 A 
ATOM     23  C   UNL     1      -1.525   2.279   6.292  0.00  0.00    +0.123 A 
ATOM     24  C   UNL     1      -0.570   2.299   5.288  0.00  0.00    +0.039 A 
ATOM     25  C   UNL     1       0.604   3.000   5.463  0.00  0.00    +0.014 A 
ATOM     26  F   UNL     1      -2.676   1.595   6.113  0.00  0.00    -0.205 F 
ENDBRANCH  18  20
ENDBRANCH  11  15
BRANCH   1  28
ATOM     27  N   UNL     1       5.534   1.944   0.996  0.00  0.00    -0.311 N 
ATOM     28  C   UNL     1       5.242   3.115   1.596  0.00  0.00    +0.218 C 
ATOM     29  O   UNL     1       4.621   3.966   0.996  0.00  0.00    -0.275 OA
ATOM     30  H   UNL     1       6.030   1.263   1.476  0.00  0.00    +0.149 HD
BRANCH  27  31
ATOM     31  C   UNL     1       5.102   1.700  -0.383  0.00  0.00    +0.139 C 
BRANCH  31  34
ATOM     32  C   UNL     1       5.139  -2.025  -1.004  0.00  0.00    +0.004 A 
ATOM     33  C   UNL     1       4.730  -0.764  -0.609  0.00  0.00    +0.005 A 
ATOM     34  C   UNL     1       5.551   0.328  -0.815  0.00  0.00    -0.027 A 
ATOM     35  C   UNL     1       6.784   0.163  -1.417  0.00  0.00    +0.051 A 
ATOM     36  C   UNL     1       7.197  -1.100  -1.814  0.00  0.00    +0.127 A 
ATOM     37  C   UNL     1       6.371  -2.195  -1.605  0.00  0.00    +0.046 A 
BRANCH  36  38
ATOM     38  O   UNL     1       8.409  -1.265  -2.406  0.00  0.00    -0.434 OA
BRANCH  38  39
ATOM     39  C   UNL     1       8.769  -2.594  -2.789  0.00  0.00    +0.541 C 
ATOM     40  F   UNL     1       8.789  -3.416  -1.657  0.00  0.00    -0.166 F 
ATOM     41  F   UNL     1       7.833  -3.084  -3.706  0.00  0.00    -0.166 F 
ENDBRANCH  38  39
ENDBRANCH  36  38
ENDBRANCH  31  34
ENDBRANCH  27  31
ENDBRANCH   1  28
TORSDOF 7
