REMARK  Name = ZINC43221378
REMARK  9 active torsions:
REMARK  status: ('A' for Active; 'I' for Inactive)
REMARK    1  A    between atoms: C_1  and  C_2
REMARK    2  A    between atoms: C_2  and  C_3
REMARK    3  A    between atoms: C_7  and  C_34
REMARK    4  A    between atoms: C_8  and  N_9
REMARK    5  A    between atoms: C_14  and  C_26
REMARK    6  A    between atoms: C_17  and  C_22
REMARK    7  A    between atoms: C_17  and  C_23
REMARK    8  A    between atoms: C_31  and  O_32
REMARK    9  A    between atoms: C_34  and  C_35
REMARK                            x       y       z     vdW  Elec       q    Type
REMARK                         _______ _______ _______ _____ _____    ______ ____
ROOT
ATOM      1  N   UNL     1      -1.637  -0.690  -2.714  0.00  0.00    -0.209 N 
ATOM      2  C   UNL     1      -1.732   0.615  -3.129  0.00  0.00    +0.229 C 
ATOM      3  O   UNL     1      -2.210   1.550  -2.523  0.00  0.00    -0.275 OA
ATOM      4  C   UNL     1      -1.140   0.628  -4.443  0.00  0.00    +0.077 C 
ATOM      5  C   UNL     1      -0.534   1.562  -5.408  0.00  0.00    -0.023 C 
ATOM      6  N   UNL     1       0.042   0.625  -6.434  0.00  0.00    +0.395 N 
ATOM      7  C   UNL     1       0.253  -0.699  -5.776  0.00  0.00    +0.045 C 
ATOM      8  C   UNL     1       0.015  -0.439  -4.280  0.00  0.00    +0.086 C 
ATOM      9  C   UNL     1      -0.795  -1.431  -3.494  0.00  0.00    +0.229 C 
ATOM     10  O   UNL     1      -0.717  -2.640  -3.544  0.00  0.00    -0.275 OA
ATOM     11  C   UNL     1      -0.738  -1.728  -6.324  0.00  0.00    +0.002 C 
ATOM     12  H   UNL     1      -0.602   0.524  -7.204  0.00  0.00    -0.083 HD
ATOM     13  H   UNL     1       0.923   0.985  -6.769  0.00  0.00    -0.083 HD
ENDROOT
BRANCH   5  14
ATOM     14  C   UNL     1      -1.582   2.454  -6.022  0.00  0.00    -0.018 A 
ATOM     15  C   UNL     1      -2.213   2.076  -7.192  0.00  0.00    +0.020 A 
ATOM     16  C   UNL     1      -3.175   2.895  -7.756  0.00  0.00    +0.018 A 
ATOM     17  C   UNL     1      -3.506   4.094  -7.151  0.00  0.00    +0.019 A 
ATOM     18  C   UNL     1      -2.878   4.476  -5.981  0.00  0.00    +0.047 A 
ATOM     19  C   UNL     1      -1.917   3.653  -5.411  0.00  0.00    +0.119 A 
ATOM     20 BR   UNL     1      -4.037   2.375  -9.357  0.00  0.00    -0.050 Br
BRANCH  19  21
ATOM     21  O   UNL     1      -1.301   4.025  -4.258  0.00  0.00    -0.507 OA
ATOM     22  H   UNL     1      -0.497   4.545  -4.392  0.00  0.00    +0.292 HD
ENDBRANCH  19  21
ENDBRANCH   5  14
BRANCH   1  28
ATOM     23  C   UNL     1      -1.744  -1.163  -0.346  0.00  0.00    -0.026 A 
ATOM     24  C   UNL     1      -2.426  -1.666   0.745  0.00  0.00    +0.005 A 
ATOM     25  C   UNL     1      -3.684  -2.218   0.581  0.00  0.00    +0.001 A 
ATOM     26  C   UNL     1      -4.262  -2.267  -0.674  0.00  0.00    +0.005 A 
ATOM     27  C   UNL     1      -3.585  -1.765  -1.768  0.00  0.00    -0.026 A 
ATOM     28  C   UNL     1      -2.324  -1.206  -1.606  0.00  0.00    +0.050 A 
BRANCH  23  30
ATOM     29  C   UNL     1      -0.500   0.954   0.001  0.00  0.00    +0.009 C 
ATOM     30  C   UNL     1      -0.374  -0.561  -0.166  0.00  0.00    +0.033 C 
ENDBRANCH  23  30
BRANCH  27  31
ATOM     31  C   UNL     1      -4.216  -1.819  -3.136  0.00  0.00    +0.033 C 
ATOM     32  C   UNL     1      -3.733  -3.071  -3.871  0.00  0.00    +0.009 C 
ENDBRANCH  27  31
ENDBRANCH   1  28
BRANCH   7  33
ATOM     33  C   UNL     1       1.669  -1.169  -5.992  0.00  0.00    +0.346 C 
ATOM     34  O   UNL     1       2.440  -0.496  -6.655  0.00  0.00    -0.248 OA
ATOM     35  O   UNL     1       2.042  -2.223  -5.506  0.00  0.00    -0.248 OA
ENDBRANCH   7  33
TORSDOF 6
