REMARK  Name = ZINC13810543
REMARK  13 active torsions:
REMARK  status: ('A' for Active; 'I' for Inactive)
REMARK    1  A    between atoms: C_1  and  C_2
REMARK    2  A    between atoms: C_2  and  C_3
REMARK    3  A    between atoms: C_3  and  C_4
REMARK    4  A    between atoms: C_4  and  S_5
REMARK    5  A    between atoms: S_5  and  C_6
REMARK    6  A    between atoms: C_6  and  S_29
REMARK    7  A    between atoms: C_7  and  C_27
REMARK    8  A    between atoms: C_14  and  C_21
REMARK    9  A    between atoms: C_16  and  C_19
REMARK   10  A    between atoms: S_29  and  C_30
REMARK   11  A    between atoms: C_30  and  C_31
REMARK   12  A    between atoms: C_31  and  C_32
REMARK   13  A    between atoms: C_32  and  C_33
REMARK                            x       y       z     vdW  Elec       q    Type
REMARK                         _______ _______ _______ _____ _____    ______ ____
ROOT
ATOM      1  C   UNL     1       3.110   0.290   0.522  0.00  0.00    +0.157 C 
ATOM      2  C   UNL     1       2.530   1.559  -0.102  0.00  0.00    +0.148 C 
ATOM      3  C   UNL     1       2.804   2.864   0.572  0.00  0.00    -0.029 C 
ATOM      4  C   UNL     1       1.861   3.789   0.514  0.00  0.00    -0.011 C 
ATOM      5  C   UNL     1       2.050   5.166   1.103  0.00  0.00    +0.049 C 
ATOM      6  C   UNL     1       3.172   5.175   2.137  0.00  0.00    +0.006 C 
ATOM      7  C   UNL     1       4.413   4.536   1.500  0.00  0.00    +0.005 C 
ATOM      8  C   UNL     1       4.116   3.054   1.281  0.00  0.00    +0.034 C 
ATOM      9  C   UNL     1       0.262   2.249  -0.679  0.00  0.00    +0.113 C 
ATOM     10  C   UNL     1       1.024   1.241   0.153  0.00  0.00    +0.156 C 
ATOM     11  C   UNL     1       0.966  -0.210  -0.178  0.00  0.00    +0.092 C 
ATOM     12  N   UNL     1      -0.133  -0.880  -0.647  0.00  0.00    -0.347 N 
ATOM     13  H   UNL     1      -0.966  -0.404  -0.790  0.00  0.00    +0.143 HD
ATOM     14  H   UNL     1      -0.078  -1.829  -0.837  0.00  0.00    +0.143 HD
ATOM     15  N   UNL     1       0.568   3.630  -0.114  0.00  0.00    -0.401 NA
ATOM     16  H   UNL     1       0.510   4.306  -0.885  0.00  0.00    +0.124 HD
ATOM     17  H   UNL     1      -0.148   3.849   0.588  0.00  0.00    +0.124 HD
ATOM     18  N   UNL     1       2.144  -0.750   0.052  0.00  0.00    -0.351 N 
ATOM     19  H   UNL     1       2.368  -1.744  -0.074  0.00  0.00    +0.163 HD
ENDROOT
BRANCH   9  20
ATOM     20  C   UNL     1      -1.222   2.017  -0.555  0.00  0.00    -0.027 A 
ATOM     21  C   UNL     1      -1.886   2.394   0.597  0.00  0.00    +0.005 A 
ATOM     22  C   UNL     1      -3.248   2.184   0.709  0.00  0.00    +0.000 A 
ATOM     23  C   UNL     1      -3.944   1.591  -0.327  0.00  0.00    +0.000 A 
ATOM     24  C   UNL     1      -3.278   1.209  -1.477  0.00  0.00    +0.000 A 
ATOM     25  C   UNL     1      -1.917   1.421  -1.591  0.00  0.00    +0.005 A 
ENDBRANCH   9  20
BRANCH  10  26
ATOM     26  C   UNL     1       0.711   1.437   1.578  0.00  0.00    +0.081 C 
ATOM     27  N   UNL     1       0.470   1.589   2.678  0.00  0.00    -0.195 NA
ENDBRANCH  10  26
BRANCH   2  28
ATOM     28  C   UNL     1       2.825   1.626  -1.543  0.00  0.00    +0.080 C 
ATOM     29  N   UNL     1       3.053   1.678  -2.655  0.00  0.00    -0.195 NA
ENDBRANCH   2  28
BRANCH   1  30
ATOM     30  S   UNL     1       3.121   0.393   2.333  0.00  0.00    -0.120 S 
BRANCH  30  31
ATOM     31  C   UNL     1       2.509  -1.229   2.869  0.00  0.00    +0.072 C 
BRANCH  31  32
ATOM     32  C   UNL     1       2.487  -1.286   4.398  0.00  0.00    +0.010 C 
BRANCH  32  34
ATOM     33  C   UNL     1       1.949  -2.711   6.378  0.00  0.00    +0.004 C 
ATOM     34  C   UNL     1       1.970  -2.653   4.850  0.00  0.00    -0.003 C 
ENDBRANCH  32  34
ENDBRANCH  31  32
ENDBRANCH  30  31
ENDBRANCH   1  30
BRANCH   1  35
ATOM     35  S   UNL     1       4.774  -0.044  -0.117  0.00  0.00    -0.120 S 
BRANCH  35  36
ATOM     36  C   UNL     1       5.333  -1.478   0.844  0.00  0.00    +0.072 C 
BRANCH  36  37
ATOM     37  C   UNL     1       6.688  -1.951   0.313  0.00  0.00    +0.010 C 
BRANCH  37  38
ATOM     38  C   UNL     1       7.159  -3.160   1.123  0.00  0.00    -0.003 C 
ATOM     39  C   UNL     1       8.514  -3.632   0.593  0.00  0.00    +0.004 C 
ENDBRANCH  37  38
ENDBRANCH  36  37
ENDBRANCH  35  36
ENDBRANCH   1  35
TORSDOF 11
