REMARK  Name = ZINC40685741
REMARK  4 active torsions:
REMARK  status: ('A' for Active; 'I' for Inactive)
REMARK    1  A    between atoms: C_6  and  C_7
REMARK    2  A    between atoms: N_10  and  C_15
REMARK    3  A    between atoms: C_15  and  C_16
REMARK    4  A    between atoms: N_18  and  C_19
REMARK                            x       y       z     vdW  Elec       q    Type
REMARK                         _______ _______ _______ _____ _____    ______ ____
ROOT
ATOM      1  C   UNL     1      -0.022   1.379   0.032  0.00  0.00    +0.019 A 
ATOM      2  C   UNL     1       1.157   2.091   0.017  0.00  0.00    +0.048 A 
ATOM      3  C   UNL     1       2.373   1.423  -0.006  0.00  0.00    +0.143 A 
ATOM      4  C   UNL     1       2.405   0.025  -0.013  0.00  0.00    +0.080 A 
ATOM      5  C   UNL     1       1.229  -0.695   0.002  0.00  0.00    +0.042 A 
ATOM      6  C   UNL     1       0.003  -0.020   0.025  0.00  0.00    +0.065 A 
ATOM      7  N   UNL     1       3.645  -0.631  -0.036  0.00  0.00    -0.256 N 
ATOM      8  C   UNL     1       4.761   0.068   0.266  0.00  0.00    +0.258 C 
ATOM      9  O   UNL     1       5.847  -0.470   0.224  0.00  0.00    -0.271 OA
ATOM     10  C   UNL     1       4.651   1.520   0.656  0.00  0.00    +0.325 C 
ATOM     11  O   UNL     1       3.540   2.116  -0.019  0.00  0.00    -0.481 OA
ENDROOT
BRANCH   6  12
ATOM     12  C   UNL     1      -1.258  -0.780   0.041  0.00  0.00    +0.387 C 
ATOM     13  O   UNL     1      -2.329  -0.189   0.061  0.00  0.00    -0.241 OA
ATOM     14  O   UNL     1      -1.235  -2.003   0.035  0.00  0.00    -0.241 OA
ENDBRANCH   6  12
BRANCH   7  15
ATOM     15  C   UNL     1       3.728  -2.052  -0.382  0.00  0.00    +0.209 C 
BRANCH  15  16
ATOM     16  C   UNL     1       3.912  -2.196  -1.871  0.00  0.00    +0.235 C 
ATOM     17  O   UNL     1       3.969  -1.209  -2.574  0.00  0.00    -0.274 OA
ATOM     18  N   UNL     1       4.015  -3.422  -2.421  0.00  0.00    -0.284 N 
ATOM     19  H   UNL     1       4.037  -4.209  -1.854  0.00  0.00    +0.155 HD
BRANCH  18  20
ATOM     20  C   UNL     1       4.089  -3.561  -3.812  0.00  0.00    +0.036 A 
ATOM     21  C   UNL     1       3.488  -4.646  -4.435  0.00  0.00    +0.043 A 
ATOM     22  C   UNL     1       3.562  -4.781  -5.809  0.00  0.00    +0.044 A 
ATOM     23  C   UNL     1       4.234  -3.835  -6.563  0.00  0.00    +0.040 A 
ATOM     24  C   UNL     1       4.834  -2.752  -5.944  0.00  0.00    +0.044 A 
ATOM     25  C   UNL     1       4.758  -2.610  -4.571  0.00  0.00    +0.043 A 
ATOM     26 CL   UNL     1       5.677  -1.568  -6.893  0.00  0.00    -0.083 Cl
ATOM     27 CL   UNL     1       2.811  -6.138  -6.590  0.00  0.00    -0.083 Cl
ENDBRANCH  18  20
ENDBRANCH  15  16
ENDBRANCH   7  15
TORSDOF 4
