REMARK  Name = ZINC63315319
REMARK  7 active torsions:
REMARK  status: ('A' for Active; 'I' for Inactive)
REMARK    1  A    between atoms: C_7  and  C_10
REMARK    2  A    between atoms: C_10  and  C_11
REMARK    3  A    between atoms: N_13  and  C_14
REMARK    4  A    between atoms: C_14  and  C_15
REMARK    5  A    between atoms: C_15  and  N_16
REMARK    6  A    between atoms: C_17  and  C_19
REMARK    7  A    between atoms: N_24  and  C_26
REMARK                            x       y       z     vdW  Elec       q    Type
REMARK                         _______ _______ _______ _____ _____    ______ ____
ROOT
ATOM      1  C   UNL     1      -1.579  -6.323  -3.059  0.00  0.00    +0.123 C 
ENDROOT
BRANCH   1   2
ATOM      2  N   UNL     1      -1.786  -6.776  -4.437  0.00  0.00    -0.314 N 
ATOM      3  C   UNL     1      -2.594  -7.826  -4.687  0.00  0.00    +0.218 C 
ATOM      4  O   UNL     1      -3.148  -8.396  -3.772  0.00  0.00    -0.275 OA
ATOM      5  H   UNL     1      -1.342  -6.320  -5.170  0.00  0.00    +0.149 HD
BRANCH   3   6
ATOM      6  C   UNL     1      -2.807  -8.292  -6.104  0.00  0.00    +0.101 C 
ATOM      7  C   UNL     1      -1.490  -8.823  -6.716  0.00  0.00    +0.110 C 
ATOM      8  C   UNL     1      -1.529 -10.311  -6.447  0.00  0.00    +0.221 C 
ATOM      9  O   UNL     1      -0.573 -11.054  -6.512  0.00  0.00    -0.275 OA
ATOM     10  N   UNL     1      -2.777 -10.690  -6.124  0.00  0.00    -0.271 N 
ATOM     11  C   UNL     1      -3.703  -9.549  -6.144  0.00  0.00    +0.127 C 
BRANCH  10  12
ATOM     12  C   UNL     1      -3.148 -12.002  -5.808  0.00  0.00    +0.036 A 
ATOM     13  C   UNL     1      -2.225 -13.033  -5.925  0.00  0.00    +0.025 A 
ATOM     14  C   UNL     1      -2.593 -14.327  -5.613  0.00  0.00    +0.022 A 
ATOM     15  C   UNL     1      -3.881 -14.597  -5.185  0.00  0.00    +0.041 A 
ATOM     16  C   UNL     1      -4.803 -13.571  -5.067  0.00  0.00    +0.022 A 
ATOM     17  C   UNL     1      -4.438 -12.275  -5.372  0.00  0.00    +0.025 A 
ATOM     18 CL   UNL     1      -4.340 -16.224  -4.794  0.00  0.00    -0.084 Cl
ENDBRANCH  10  12
ENDBRANCH   3   6
ENDBRANCH   1   2
BRANCH   1  19
ATOM     19  C   UNL     1      -0.627  -5.125  -3.054  0.00  0.00    +0.123 C 
BRANCH  19  22
ATOM     20  C   UNL     1       0.388  -3.623  -1.426  0.00  0.00    +0.217 C 
ATOM     21  O   UNL     1       0.943  -3.053  -2.342  0.00  0.00    -0.275 OA
ATOM     22  N   UNL     1      -0.420  -4.673  -1.676  0.00  0.00    -0.314 N 
ATOM     23  H   UNL     1      -0.864  -5.128  -0.944  0.00  0.00    +0.149 HD
BRANCH  20  24
ATOM     24  C   UNL     1       0.601  -3.157  -0.009  0.00  0.00    +0.129 C 
BRANCH  24  31
ATOM     25  C   UNL     1      -0.119   1.375   0.002  0.00  0.00    +0.001 A 
ATOM     26  C   UNL     1       1.062   2.132   0.005  0.00  0.00    +0.002 A 
ATOM     27  C   UNL     1       2.288   1.569   0.006  0.00  0.00    +0.026 A 
ATOM     28  C   UNL     1       2.430   0.154   0.003  0.00  0.00    +0.043 A 
ATOM     29  N   UNL     1       3.490  -0.618   0.003  0.00  0.00    -0.380 N 
ATOM     30  C   UNL     1       3.050  -2.017  -0.002  0.00  0.00    +0.145 C 
ATOM     31  C   UNL     1       1.539  -1.977  -0.004  0.00  0.00    -0.033 C 
ATOM     32  C   UNL     1       1.198  -0.668  -0.001  0.00  0.00    -0.001 A 
ATOM     33  C   UNL     1      -0.097   0.023  -0.001  0.00  0.00    +0.010 A 
ATOM     34  H   UNL     1       4.411  -0.314   0.004  0.00  0.00    +0.160 HD
ENDBRANCH  24  31
ENDBRANCH  20  24
ENDBRANCH  19  22
ENDBRANCH   1  19
TORSDOF 7
