REMARK  Name = ZINC09685675
REMARK  6 active torsions:
REMARK  status: ('A' for Active; 'I' for Inactive)
REMARK    1  A    between atoms: C_1  and  C_2
REMARK    2  A    between atoms: C_7  and  S_8
REMARK    3  A    between atoms: S_8  and  N_11
REMARK    4  A    between atoms: N_11  and  C_12
REMARK    5  A    between atoms: C_16  and  S_18
REMARK    6  A    between atoms: S_18  and  C_19
REMARK                            x       y       z     vdW  Elec       q    Type
REMARK                         _______ _______ _______ _____ _____    ______ ____
ROOT
ATOM      1  C   UNL     1      -5.925   0.122   0.502  0.00  0.00    +0.046 C 
ATOM      2  C   UNL     1      -7.150  -0.565   1.048  0.00  0.00    -0.023 A 
ATOM      3  C   UNL     1      -7.622  -1.708   0.441  0.00  0.00    +0.016 A 
ATOM      4  C   UNL     1      -8.757  -2.340   0.941  0.00  0.00    +0.011 A 
ATOM      5  C   UNL     1      -9.415  -1.812   2.067  0.00  0.00    +0.049 A 
ATOM      6  C   UNL     1      -8.919  -0.661   2.668  0.00  0.00    +0.055 A 
ATOM      7  C   UNL     1      -7.794  -0.047   2.161  0.00  0.00    +0.113 A 
ATOM      8  N   UNL     1     -10.498  -2.626   2.346  0.00  0.00    -0.357 N 
ATOM      9  H   UNL     1     -11.120  -2.486   3.077  0.00  0.00    +0.166 HD
ATOM     10  C   UNL     1     -10.571  -3.633   1.466  0.00  0.00    +0.028 A 
ATOM     11  C   UNL     1      -9.523  -3.530   0.564  0.00  0.00    +0.046 A 
ATOM     12  C   UNL     1      -9.325  -4.458  -0.487  0.00  0.00    +0.165 C 
ATOM     13  O   UNL     1      -8.420  -4.321  -1.285  0.00  0.00    -0.292 OA
ATOM     14  C   UNL     1     -10.281  -5.628  -0.580  0.00  0.00    +0.080 C 
ATOM     15  C   UNL     1     -11.664  -5.214  -0.076  0.00  0.00    +0.014 C 
ATOM     16  C   UNL     1     -11.588  -4.748   1.383  0.00  0.00    +0.054 C 
ENDROOT
BRANCH   7  17
ATOM     17  S   UNL     1      -7.173   1.412   2.929  0.00  0.00    +0.073 S 
ATOM     18  O   UNL     1      -5.781   1.206   3.128  0.00  0.00    -0.150 OA
ATOM     19  O   UNL     1      -8.058   1.716   3.999  0.00  0.00    -0.150 OA
BRANCH  17  20
ATOM     20  N   UNL     1      -7.317   2.643   1.831  0.00  0.00    -0.216 N 
ATOM     21  H   UNL     1      -6.523   3.053   1.455  0.00  0.00    +0.174 HD
BRANCH  20  22
ATOM     22  C   UNL     1      -8.583   3.090   1.446  0.00  0.00    +0.049 A 
ATOM     23  C   UNL     1      -9.573   2.174   1.109  0.00  0.00    +0.024 A 
ATOM     24  C   UNL     1     -10.825   2.615   0.729  0.00  0.00    +0.003 A 
ATOM     25  C   UNL     1     -11.101   3.968   0.687  0.00  0.00    +0.015 A 
ATOM     26  C   UNL     1     -10.115   4.891   1.017  0.00  0.00    +0.009 A 
ATOM     27  C   UNL     1      -8.855   4.450   1.400  0.00  0.00    +0.039 A 
BRANCH  26  28
ATOM     28  S   UNL     1     -10.465   6.616   0.956  0.00  0.00    -0.129 S 
ATOM     29  C   UNL     1     -12.195   6.694   0.415  0.00  0.00    +0.090 C 
ENDBRANCH  26  28
ENDBRANCH  20  22
ENDBRANCH  17  20
ENDBRANCH   7  17
TORSDOF 4
