REMARK  Name = ZINC35375159
REMARK  7 active torsions:
REMARK  status: ('A' for Active; 'I' for Inactive)
REMARK    1  A    between atoms: C_1  and  C_2
REMARK    2  A    between atoms: C_2  and  C_3
REMARK    3  A    between atoms: C_3  and  C_5
REMARK    4  A    between atoms: C_3  and  N_6
REMARK    5  A    between atoms: C_11  and  C_29
REMARK    6  A    between atoms: C_29  and  C_30
REMARK    7  A    between atoms: C_33  and  O_36
REMARK                            x       y       z     vdW  Elec       q    Type
REMARK                         _______ _______ _______ _____ _____    ______ ____
ROOT
ATOM      1  N   UNL     1      -2.082  -0.162   1.273  0.00  0.00    -0.239 N 
ATOM      2  C   UNL     1      -1.623  -0.545   2.501  0.00  0.00    +0.227 C 
ATOM      3  O   UNL     1      -0.523  -0.980   2.769  0.00  0.00    -0.275 OA
ATOM      4  C   UNL     1      -2.765  -0.315   3.453  0.00  0.00    +0.107 C 
ATOM      5  C   UNL     1      -2.483   0.317   4.822  0.00  0.00    +0.072 C 
ATOM      6  N   UNL     1      -3.712   1.143   5.063  0.00  0.00    -0.295 NA
ATOM      7  C   UNL     1      -4.266   1.518   3.725  0.00  0.00    +0.136 C 
ATOM      8  C   UNL     1      -3.311   0.986   2.739  0.00  0.00    +0.122 C 
ATOM      9  C   UNL     1      -3.212   0.614   1.346  0.00  0.00    +0.228 C 
ATOM     10  O   UNL     1      -3.962   0.918   0.444  0.00  0.00    -0.275 OA
ATOM     11  C   UNL     1      -5.653   0.948   3.579  0.00  0.00    +0.004 A 
ATOM     12  C   UNL     1      -6.146  -0.338   3.551  0.00  0.00    +0.023 A 
ATOM     13  C   UNL     1      -7.504  -0.555   3.398  0.00  0.00    +0.018 A 
ATOM     14  C   UNL     1      -8.364   0.522   3.274  0.00  0.00    +0.017 A 
ATOM     15  C   UNL     1      -7.873   1.811   3.303  0.00  0.00    +0.025 A 
ATOM     16  C   UNL     1      -6.507   2.038   3.456  0.00  0.00    +0.039 A 
ATOM     17  N   UNL     1      -5.782   3.229   3.516  0.00  0.00    -0.283 N 
ATOM     18  C   UNL     1      -4.463   3.014   3.673  0.00  0.00    +0.243 C 
ATOM     19  O   UNL     1      -3.598   3.860   3.756  0.00  0.00    -0.273 OA
ATOM     20 BR   UNL     1      -8.183  -2.320   3.357  0.00  0.00    -0.050 Br
ATOM     21  H   UNL     1      -4.392   0.631   5.605  0.00  0.00    +0.124 HD
ATOM     22  H   UNL     1      -6.182   4.111   3.452  0.00  0.00    +0.155 HD
ENDROOT
BRANCH   1  23
ATOM     23  C   UNL     1      -1.433  -0.534   0.013  0.00  0.00    +0.081 C 
ATOM     24  C   UNL     1      -1.416  -2.058  -0.121  0.00  0.00    +0.028 C 
BRANCH  23  26
ATOM     25  C   UNL     1      -0.019   1.526   0.010  0.00  0.00    +0.006 C 
ATOM     26  C   UNL     1       0.002  -0.004   0.002  0.00  0.00    +0.019 C 
ENDBRANCH  23  26
ENDBRANCH   1  23
BRANCH   5  27
ATOM     27  C   UNL     1      -2.330  -0.761   5.897  0.00  0.00    +0.054 C 
BRANCH  27  28
ATOM     28  C   UNL     1      -1.934  -0.118   7.201  0.00  0.00    -0.046 A 
ATOM     29  C   UNL     1      -0.596   0.057   7.506  0.00  0.00    +0.007 A 
ATOM     30  C   UNL     1      -0.231   0.646   8.701  0.00  0.00    +0.045 A 
ATOM     31  C   UNL     1      -1.206   1.062   9.595  0.00  0.00    +0.117 A 
ATOM     32  C   UNL     1      -2.547   0.886   9.286  0.00  0.00    +0.045 A 
ATOM     33  C   UNL     1      -2.908   0.301   8.088  0.00  0.00    +0.007 A 
BRANCH  31  34
ATOM     34  O   UNL     1      -0.849   1.641  10.771  0.00  0.00    -0.507 OA
ATOM     35  H   UNL     1      -0.760   2.603  10.725  0.00  0.00    +0.292 HD
ENDBRANCH  31  34
ENDBRANCH  27  28
ENDBRANCH   5  27
TORSDOF 5
