REMARK  Name = ZINC39629869
REMARK  6 active torsions:
REMARK  status: ('A' for Active; 'I' for Inactive)
REMARK    1  A    between atoms: C_3  and  C_9
REMARK    2  A    between atoms: C_13  and  C_22
REMARK    3  A    between atoms: N_24  and  C_25
REMARK    4  A    between atoms: C_25  and  C_26
REMARK    5  A    between atoms: C_26  and  C_27
REMARK    6  A    between atoms: C_27  and  N_28
REMARK                            x       y       z     vdW  Elec       q    Type
REMARK                         _______ _______ _______ _____ _____    ______ ____
ROOT
ATOM      1  C   UNL     1       3.460   2.111   0.056  0.00  0.00    +0.248 C 
ATOM      2  O   UNL     1       4.498   1.480   0.065  0.00  0.00    -0.270 OA
ATOM      3  N   UNL     1       3.487   3.451  -0.091  0.00  0.00    -0.296 N 
ATOM      4  C   UNL     1       2.346   4.395  -0.023  0.00  0.00    +0.121 C 
ATOM      5  C   UNL     1       2.904   5.626   0.727  0.00  0.00    +0.100 C 
ATOM      6  C   UNL     1       4.424   5.567   0.503  0.00  0.00    -0.004 C 
ATOM      7  C   UNL     1       4.665   4.313  -0.350  0.00  0.00    +0.115 C 
ATOM      8  C   UNL     1       5.150   5.437   1.838  0.00  0.00    -0.010 C 
ATOM      9  C   UNL     1       6.662   5.438   1.593  0.00  0.00    -0.082 C 
ATOM     10  N   UNL     1       7.050   6.684   0.922  0.00  0.00    +0.379 N 
ATOM     11  C   UNL     1       6.419   6.757  -0.402  0.00  0.00    -0.082 C 
ATOM     12  C   UNL     1       4.897   6.812  -0.242  0.00  0.00    -0.010 C 
ATOM     13  H   UNL     1       6.753   7.471   1.478  0.00  0.00    -0.086 HD
ATOM     14  H   UNL     1       8.053   6.710   0.816  0.00  0.00    -0.086 HD
ENDROOT
BRANCH   1  17
ATOM     15  C   UNL     1      -0.160   1.201  -0.347  0.00  0.00    +0.021 A 
ATOM     16  C   UNL     1       1.043   1.859  -0.490  0.00  0.00    +0.016 A 
ATOM     17  C   UNL     1       2.168   1.410   0.204  0.00  0.00    +0.055 A 
ATOM     18  C   UNL     1       2.067   0.294   1.040  0.00  0.00    +0.054 A 
ATOM     19  C   UNL     1       0.857  -0.356   1.174  0.00  0.00    +0.040 A 
ATOM     20  C   UNL     1      -0.255   0.095   0.482  0.00  0.00    +0.042 A 
ATOM     21 CL   UNL     1      -1.773  -0.728   0.656  0.00  0.00    -0.083 Cl
ATOM     22 CL   UNL     1       3.460  -0.272   1.907  0.00  0.00    -0.083 Cl
ENDBRANCH   1  17
BRANCH   5  23
ATOM     23  C   UNL     1       2.334   6.895   0.147  0.00  0.00    +0.218 C 
ATOM     24  O   UNL     1       2.041   6.947  -1.029  0.00  0.00    -0.275 OA
ATOM     25  N   UNL     1       2.151   7.973   0.935  0.00  0.00    -0.315 N 
ATOM     26  H   UNL     1       2.385   7.932   1.875  0.00  0.00    +0.149 HD
BRANCH  25  27
ATOM     27  C   UNL     1       1.597   9.207   0.371  0.00  0.00    +0.106 C 
BRANCH  27  28
ATOM     28  C   UNL     1       1.492  10.267   1.470  0.00  0.00    +0.040 C 
BRANCH  28  29
ATOM     29  C   UNL     1       0.914  11.555   0.881  0.00  0.00    +0.124 C 
BRANCH  29  30
ATOM     30  N   UNL     1       0.813  12.570   1.932  0.00  0.00    -0.338 N 
ATOM     31  C   UNL     1      -0.258  12.782   2.758  0.00  0.00    +0.104 A 
ATOM     32  C   UNL     1       0.071  13.804   3.570  0.00  0.00    +0.101 A 
ATOM     33  N   UNL     1       1.310  14.207   3.249  0.00  0.00    -0.352 N 
ATOM     34  C   UNL     1       1.763  13.469   2.272  0.00  0.00    +0.173 A 
ATOM     35  H   UNL     1       1.794  14.930   3.678  0.00  0.00    +0.166 HD
ENDBRANCH  29  30
ENDBRANCH  28  29
ENDBRANCH  27  28
ENDBRANCH  25  27
ENDBRANCH   5  23
TORSDOF 6
