REMARK  Name = ZINC33695298
REMARK  6 active torsions:
REMARK  status: ('A' for Active; 'I' for Inactive)
REMARK    1  A    between atoms: C_1  and  C_2
REMARK    2  A    between atoms: C_3  and  C_26
REMARK    3  A    between atoms: C_4  and  C_17
REMARK    4  A    between atoms: C_21  and  N_23
REMARK    5  A    between atoms: N_28  and  C_29
REMARK    6  A    between atoms: C_29  and  C_30
REMARK                            x       y       z     vdW  Elec       q    Type
REMARK                         _______ _______ _______ _____ _____    ______ ____
ROOT
ATOM      1  C   UNL     1       5.845   4.893   0.560  0.00  0.00    +0.061 C 
ATOM      2  C   UNL     1       4.383   5.114   0.270  0.00  0.00    +0.014 C 
ATOM      3  C   UNL     1       3.909   6.366   0.291  0.00  0.00    +0.043 C 
ATOM      4  C   UNL     1       2.471   6.707   0.006  0.00  0.00    +0.091 C 
ATOM      5  C   UNL     1       1.655   5.438   0.012  0.00  0.00    +0.033 C 
ATOM      6  C   UNL     1       2.230   4.196   0.003  0.00  0.00    +0.047 C 
ATOM      7  N   UNL     1       3.596   4.024  -0.004  0.00  0.00    -0.317 N 
ATOM      8  C   UNL     1       1.169   3.168   0.007  0.00  0.00    +0.007 A 
ATOM      9  C   UNL     1       1.184   1.784   0.000  0.00  0.00    +0.010 A 
ATOM     10  C   UNL     1      -0.013   1.076   0.008  0.00  0.00    +0.001 A 
ATOM     11  C   UNL     1      -1.217   1.745   0.017  0.00  0.00    +0.001 A 
ATOM     12  C   UNL     1      -1.246   3.136   0.029  0.00  0.00    +0.012 A 
ATOM     13  C   UNL     1      -0.064   3.848   0.022  0.00  0.00    +0.031 A 
ATOM     14  C   UNL     1       0.253   5.306   0.025  0.00  0.00    +0.193 C 
ATOM     15  O   UNL     1      -0.554   6.215   0.037  0.00  0.00    -0.287 OA
ATOM     16  H   UNL     1       4.061   3.051  -0.220  0.00  0.00    +0.152 HD
ENDROOT
BRANCH   4  17
ATOM     17  C   UNL     1       2.367   7.367  -1.345  0.00  0.00    -0.033 A 
ATOM     18  C   UNL     1       2.780   6.691  -2.478  0.00  0.00    +0.005 A 
ATOM     19  C   UNL     1       2.684   7.296  -3.717  0.00  0.00    +0.003 A 
ATOM     20  C   UNL     1       2.177   8.578  -3.823  0.00  0.00    +0.033 A 
ATOM     21  C   UNL     1       1.765   9.254  -2.691  0.00  0.00    +0.126 A 
ATOM     22  C   UNL     1       1.855   8.646  -1.452  0.00  0.00    +0.037 A 
BRANCH  21  23
ATOM     23  N   UNL     1       1.222  10.626  -2.804  0.00  0.00    +0.056 N 
ATOM     24  O   UNL     1       1.139  11.160  -3.896  0.00  0.00    -0.126 OA
ATOM     25  O   UNL     1       0.859  11.222  -1.806  0.00  0.00    -0.126 OA
ENDBRANCH  21  23
ENDBRANCH   4  17
BRANCH   3  26
ATOM     26  C   UNL     1       4.805   7.421   0.596  0.00  0.00    +0.243 C 
ATOM     27  O   UNL     1       5.974   7.178   0.831  0.00  0.00    -0.270 OA
ATOM     28  N   UNL     1       4.362   8.693   0.626  0.00  0.00    -0.307 N 
ATOM     29  H   UNL     1       3.305   8.913   0.414  0.00  0.00    +0.149 HD
BRANCH  28  30
ATOM     30  C   UNL     1       5.287   9.784   0.942  0.00  0.00    +0.139 C 
BRANCH  30  31
ATOM     31  C   UNL     1       4.547  11.096   0.909  0.00  0.00    -0.030 A 
ATOM     32  C   UNL     1       4.471  11.818  -0.267  0.00  0.00    +0.005 A 
ATOM     33  C   UNL     1       3.788  13.020  -0.297  0.00  0.00    +0.000 A 
ATOM     34  C   UNL     1       3.190  13.504   0.851  0.00  0.00    +0.000 A 
ATOM     35  C   UNL     1       3.271  12.785   2.029  0.00  0.00    +0.000 A 
ATOM     36  C   UNL     1       3.950  11.581   2.058  0.00  0.00    +0.005 A 
ENDBRANCH  30  31
ENDBRANCH  28  30
ENDBRANCH   3  26
TORSDOF 5
