REMARK  Name = ZINC12644625
REMARK  5 active torsions:
REMARK  status: ('A' for Active; 'I' for Inactive)
REMARK    1  A    between atoms: C_6  and  N_7
REMARK    2  A    between atoms: C_8  and  C_10
REMARK    3  A    between atoms: C_10  and  N_65
REMARK    4  A    between atoms: C_13  and  N_16
REMARK    5  A    between atoms: C_17  and  C_19
REMARK                            x       y       z     vdW  Elec       q    Type
REMARK                         _______ _______ _______ _____ _____    ______ ____
ROOT
ATOM      1  C   UNL     1      -2.500  -2.860   1.109  0.00  0.00    -0.076 C 
ATOM      2  C   UNL     1      -2.099  -4.330   0.963  0.00  0.00    +0.003 C 
ATOM      3  C   UNL     1      -3.326  -5.215   1.202  0.00  0.00    +0.069 C 
ATOM      4  C   UNL     1      -4.425  -4.829   0.208  0.00  0.00    +0.003 C 
ATOM      5  C   UNL     1      -4.759  -3.345   0.376  0.00  0.00    -0.076 C 
ATOM      6  N   UNL     1      -3.543  -2.546   0.109  0.00  0.00    +0.386 N 
ATOM      7  H   UNL     1      -3.190  -2.781  -0.826  0.00  0.00    -0.081 HD
ENDROOT
BRANCH   3   8
ATOM      8  N   UNL     1      -2.961  -6.620   1.006  0.00  0.00    -0.312 N 
ATOM      9  C   UNL     1      -2.424  -7.325   2.022  0.00  0.00    +0.219 C 
ATOM     10  O   UNL     1      -2.243  -6.795   3.098  0.00  0.00    -0.275 OA
ATOM     11  H   UNL     1      -3.106  -7.044   0.146  0.00  0.00    +0.149 HD
BRANCH   9  12
ATOM     12  C   UNL     1      -2.049  -8.770   1.821  0.00  0.00    +0.048 C 
ATOM     13  C   UNL     1      -1.007  -8.877   0.707  0.00  0.00    +0.019 C 
ATOM     14  C   UNL     1      -0.626 -10.344   0.502  0.00  0.00    -0.009 C 
ATOM     15  C   UNL     1      -0.043 -10.905   1.801  0.00  0.00    +0.007 C 
ATOM     16  C   UNL     1      -1.085 -10.799   2.916  0.00  0.00    -0.009 C 
ATOM     17  C   UNL     1      -1.466  -9.331   3.120  0.00  0.00    +0.019 C 
ATOM     18  C   UNL     1      -2.330 -11.600   2.528  0.00  0.00    +0.007 C 
ATOM     19  C   UNL     1      -2.913 -11.039   1.230  0.00  0.00    -0.009 C 
ATOM     20  C   UNL     1      -1.871 -11.145   0.115  0.00  0.00    +0.007 C 
ATOM     21  C   UNL     1      -3.294  -9.571   1.434  0.00  0.00    +0.019 C 
ENDBRANCH   9  12
ENDBRANCH   3   8
BRANCH   6  22
ATOM     22  C   UNL     1      -3.866  -1.105   0.153  0.00  0.00    +0.019 C 
BRANCH  22  24
ATOM     23  N   UNL     1      -5.263   0.469  -1.147  0.00  0.00    -0.287 N 
ATOM     24  C   UNL     1      -4.748  -0.770  -1.023  0.00  0.00    +0.201 C 
ATOM     25  O   UNL     1      -4.994  -1.616  -1.857  0.00  0.00    -0.278 OA
ATOM     26  H   UNL     1      -5.006   1.166  -0.523  0.00  0.00    +0.155 HD
BRANCH  23  32
ATOM     27  C   UNL     1      -6.189   2.012  -2.759  0.00  0.00    +0.027 A 
ATOM     28  C   UNL     1      -7.078   2.290  -3.780  0.00  0.00    +0.051 A 
ATOM     29  C   UNL     1      -7.955   1.313  -4.223  0.00  0.00    +0.166 A 
ATOM     30  C   UNL     1      -7.941   0.049  -3.639  0.00  0.00    +0.168 A 
ATOM     31  C   UNL     1      -7.049  -0.229  -2.616  0.00  0.00    +0.072 A 
ATOM     32  C   UNL     1      -6.168   0.751  -2.178  0.00  0.00    +0.037 A 
ATOM     33  O   UNL     1      -8.889  -0.723  -4.245  0.00  0.00    -0.453 OA
ATOM     34  C   UNL     1      -9.202  -0.049  -5.479  0.00  0.00    +0.466 C 
ATOM     35  O   UNL     1      -8.913   1.333  -5.196  0.00  0.00    -0.453 OA
ENDBRANCH  23  32
ENDBRANCH  22  24
ENDBRANCH   6  22
TORSDOF 5
