REMARK  Name = ZINC12073511
REMARK  14 active torsions:
REMARK  status: ('A' for Active; 'I' for Inactive)
REMARK    1  A    between atoms: C_1  and  N_2
REMARK    2  A    between atoms: N_2  and  C_3
REMARK    3  A    between atoms: N_2  and  C_10
REMARK    4  A    between atoms: C_3  and  C_4
REMARK    5  A    between atoms: C_10  and  C_11
REMARK    6  A    between atoms: C_11  and  C_13
REMARK    7  A    between atoms: C_11  and  O_32
REMARK    8  A    between atoms: C_13  and  O_14
REMARK    9  A    between atoms: O_14  and  C_15
REMARK   10  A    between atoms: C_18  and  C_21
REMARK   11  A    between atoms: C_21  and  N_22
REMARK   12  A    between atoms: N_22  and  C_23
REMARK   13  A    between atoms: C_23  and  C_24
REMARK   14  A    between atoms: C_24  and  C_25
REMARK                            x       y       z     vdW  Elec       q    Type
REMARK                         _______ _______ _______ _____ _____    ______ ____
ROOT
ATOM      1  C   UNL     1       0.256  -0.492  -6.060  0.00  0.00    +0.121 A 
ATOM      2  C   UNL     1       1.390  -1.286  -6.155  0.00  0.00    +0.046 A 
ATOM      3  C   UNL     1       1.817  -1.733  -7.391  0.00  0.00    +0.005 A 
ATOM      4  C   UNL     1       1.116  -1.390  -8.532  0.00  0.00    -0.064 A 
ATOM      5  C   UNL     1      -0.014  -0.599  -8.440  0.00  0.00    +0.005 A 
ATOM      6  C   UNL     1      -0.449  -0.154  -7.206  0.00  0.00    +0.046 A 
ENDROOT
BRANCH   1   7
ATOM      7  O   UNL     1      -0.166  -0.051  -4.846  0.00  0.00    -0.489 OA
BRANCH   7   8
ATOM      8  C   UNL     1       0.609  -0.439  -3.710  0.00  0.00    +0.258 C 
BRANCH   8   9
ATOM      9  C   UNL     1      -0.016   0.148  -2.442  0.00  0.00    +0.135 C 
BRANCH   9  10
ATOM     10  O   UNL     1       0.065   1.574  -2.487  0.00  0.00    -0.390 OA
ATOM     11  H   UNL     1       0.968   1.915  -2.544  0.00  0.00    +0.210 HD
ENDBRANCH   9  10
BRANCH   9  12
ATOM     12  C   UNL     1       0.739  -0.368  -1.216  0.00  0.00    -0.044 C 
BRANCH  12  14
ATOM     13  C   UNL     1       0.876  -0.263   1.177  0.00  0.00    -0.096 C 
ATOM     14  N   UNL     1       0.069   0.101   0.005  0.00  0.00    +0.382 N 
ATOM     15  H   UNL     1      -0.037   1.103  -0.033  0.00  0.00    -0.082 HD
BRANCH  14  16
ATOM     16  C   UNL     1      -1.255  -0.527   0.108  0.00  0.00    -0.043 C 
BRANCH  16  17
ATOM     17  C   UNL     1      -1.991   0.045   1.292  0.00  0.00    -0.064 A 
ATOM     18  C   UNL     1      -1.864  -0.545   2.536  0.00  0.00    +0.002 A 
ATOM     19  C   UNL     1      -2.539  -0.020   3.622  0.00  0.00    +0.000 A 
ATOM     20  C   UNL     1      -3.342   1.094   3.464  0.00  0.00    +0.000 A 
ATOM     21  C   UNL     1      -3.468   1.685   2.221  0.00  0.00    +0.000 A 
ATOM     22  C   UNL     1      -2.789   1.162   1.136  0.00  0.00    +0.002 A 
ENDBRANCH  16  17
ENDBRANCH  14  16
ENDBRANCH  12  14
ENDBRANCH   9  12
ENDBRANCH   8   9
ENDBRANCH   7   8
ENDBRANCH   1   7
BRANCH   4  23
ATOM     23  C   UNL     1       1.584  -1.879  -9.878  0.00  0.00    -0.047 C 
BRANCH  23  24
ATOM     24  N   UNL     1       0.954  -3.172 -10.176  0.00  0.00    +0.382 N 
ATOM     25  H   UNL     1       1.210  -3.842  -9.467  0.00  0.00    -0.085 HD
ATOM     26  H   UNL     1      -0.049  -3.063 -10.188  0.00  0.00    -0.085 HD
BRANCH  24  27
ATOM     27  C   UNL     1       1.410  -3.649 -11.488  0.00  0.00    -0.077 C 
BRANCH  27  28
ATOM     28  C   UNL     1       0.754  -4.995 -11.798  0.00  0.00    +0.016 C 
BRANCH  28  29
ATOM     29  C   UNL     1       1.222  -5.484 -13.145  0.00  0.00    -0.046 A 
ATOM     30  C   UNL     1       0.525  -5.137 -14.287  0.00  0.00    +0.004 A 
ATOM     31  C   UNL     1       0.953  -5.585 -15.522  0.00  0.00    +0.003 A 
ATOM     32  C   UNL     1       2.079  -6.381 -15.617  0.00  0.00    +0.038 A 
ATOM     33  C   UNL     1       2.778  -6.729 -14.474  0.00  0.00    +0.124 A 
ATOM     34  C   UNL     1       2.352  -6.275 -13.238  0.00  0.00    +0.042 A 
ATOM     35  F   UNL     1       3.879  -7.508 -14.566  0.00  0.00    -0.205 F 
ENDBRANCH  28  29
ENDBRANCH  27  28
ENDBRANCH  24  27
ENDBRANCH  23  24
ENDBRANCH   4  23
TORSDOF 13
