REMARK  Name = ZINC18373848
REMARK  8 active torsions:
REMARK  status: ('A' for Active; 'I' for Inactive)
REMARK    1  A    between atoms: C_1  and  C_2
REMARK    2  A    between atoms: C_2  and  C_4
REMARK    3  A    between atoms: C_2  and  O_16
REMARK    4  A    between atoms: N_6  and  C_7
REMARK    5  A    between atoms: O_16  and  C_17
REMARK    6  A    between atoms: C_17  and  C_19
REMARK    7  A    between atoms: C_22  and  O_38
REMARK    8  A    between atoms: C_26  and  C_28
REMARK                            x       y       z     vdW  Elec       q    Type
REMARK                         _______ _______ _______ _____ _____    ______ ____
ROOT
ATOM      1  C   UNL     1      -3.076  -6.394   0.307  0.00  0.00    +0.187 C 
ATOM      2  C   UNL     1      -3.087  -6.783  -1.187  0.00  0.00    +0.066 C 
ATOM      3  C   UNL     1      -3.905  -8.101  -1.197  0.00  0.00    +0.134 C 
ATOM      4  C   UNL     1      -4.952  -7.826  -0.089  0.00  0.00    +0.140 C 
ATOM      5  N   UNL     1      -4.221  -7.064   0.941  0.00  0.00    -0.285 N 
ATOM      6  C   UNL     1      -4.547  -6.995   2.246  0.00  0.00    +0.223 C 
ATOM      7  O   UNL     1      -3.921  -6.271   2.990  0.00  0.00    -0.275 OA
ENDROOT
BRANCH   6   8
ATOM      8  C   UNL     1      -5.691  -7.818   2.782  0.00  0.00    +0.048 C 
ATOM      9  C   UNL     1      -6.961  -7.501   1.991  0.00  0.00    +0.019 C 
ATOM     10  C   UNL     1      -8.122  -8.336   2.534  0.00  0.00    -0.009 C 
ATOM     11  C   UNL     1      -8.344  -8.002   4.011  0.00  0.00    +0.007 C 
ATOM     12  C   UNL     1      -7.073  -8.319   4.802  0.00  0.00    -0.009 C 
ATOM     13  C   UNL     1      -5.912  -7.483   4.258  0.00  0.00    +0.019 C 
ATOM     14  C   UNL     1      -6.742  -9.806   4.660  0.00  0.00    +0.007 C 
ATOM     15  C   UNL     1      -6.520 -10.140   3.184  0.00  0.00    -0.009 C 
ATOM     16  C   UNL     1      -7.791  -9.823   2.393  0.00  0.00    +0.007 C 
ATOM     17  C   UNL     1      -5.359  -9.305   2.640  0.00  0.00    +0.019 C 
ENDBRANCH   6   8
BRANCH   1  18
ATOM     18  C   UNL     1      -3.214  -4.900   0.449  0.00  0.00    +0.329 C 
ATOM     19  O   UNL     1      -4.170  -4.434   1.021  0.00  0.00    -0.249 OA
BRANCH  18  20
ATOM     20  O   UNL     1      -2.274  -4.088  -0.060  0.00  0.00    -0.451 OA
BRANCH  20  22
ATOM     21  C   UNL     1      -3.263  -2.107  -1.073  0.00  0.00    +0.062 C 
ATOM     22  C   UNL     1      -2.472  -2.660   0.114  0.00  0.00    +0.259 C 
BRANCH  22  23
ATOM     23  C   UNL     1      -1.133  -1.973   0.189  0.00  0.00    +0.258 C 
ATOM     24  O   UNL     1      -0.115  -2.608   0.015  0.00  0.00    -0.271 OA
ATOM     25  N   UNL     1      -1.067  -0.653   0.451  0.00  0.00    -0.282 N 
ATOM     26  H   UNL     1      -1.876  -0.158   0.657  0.00  0.00    +0.155 HD
BRANCH  25  27
ATOM     27  C   UNL     1       0.169   0.006   0.427  0.00  0.00    +0.037 A 
ATOM     28  C   UNL     1       1.314  -0.651   0.859  0.00  0.00    +0.027 A 
ATOM     29  C   UNL     1       2.534  -0.003   0.837  0.00  0.00    +0.051 A 
ATOM     30  C   UNL     1       2.619   1.304   0.384  0.00  0.00    +0.166 A 
ATOM     31  C   UNL     1       1.472   1.965  -0.051  0.00  0.00    +0.168 A 
ATOM     32  C   UNL     1       0.250   1.314  -0.028  0.00  0.00    +0.072 A 
ATOM     33  O   UNL     1       1.818   3.226  -0.443  0.00  0.00    -0.453 OA
ATOM     34  C   UNL     1       3.245   3.193  -0.630  0.00  0.00    +0.466 C 
ATOM     35  O   UNL     1       3.683   2.151   0.263  0.00  0.00    -0.453 OA
ENDBRANCH  25  27
ENDBRANCH  22  23
ENDBRANCH  20  22
ENDBRANCH  18  20
ENDBRANCH   1  18
BRANCH   3  36
ATOM     36  O   UNL     1      -4.539  -8.300  -2.462  0.00  0.00    -0.390 OA
ATOM     37  H   UNL     1      -5.138  -9.059  -2.486  0.00  0.00    +0.210 HD
ENDBRANCH   3  36
TORSDOF 7
