REMARK  Name = ZINC16607352
REMARK  10 active torsions:
REMARK  status: ('A' for Active; 'I' for Inactive)
REMARK    1  A    between atoms: C_1  and  C_2
REMARK    2  A    between atoms: N_4  and  C_35
REMARK    3  A    between atoms: C_7  and  C_9
REMARK    4  A    between atoms: C_9  and  C_12
REMARK    5  A    between atoms: N_10  and  O_11
REMARK    6  A    between atoms: C_15  and  C_18
REMARK    7  A    between atoms: C_18  and  C_21
REMARK    8  A    between atoms: N_19  and  O_20
REMARK    9  A    between atoms: N_25  and  C_29
REMARK   10  A    between atoms: C_27  and  C_28
REMARK                            x       y       z     vdW  Elec       q    Type
REMARK                         _______ _______ _______ _____ _____    ______ ____
ROOT
ATOM      1  C   UNL     1      -1.357  -1.977   3.092  0.00  0.00    +0.001 A 
ATOM      2  C   UNL     1      -0.604  -2.841   3.892  0.00  0.00    +0.010 A 
ATOM      3  C   UNL     1      -1.100  -3.264   5.104  0.00  0.00    +0.010 A 
ATOM      4  C   UNL     1      -2.356  -2.827   5.536  0.00  0.00    +0.001 A 
ATOM      5  C   UNL     1      -3.107  -1.962   4.737  0.00  0.00    +0.010 A 
ATOM      6  C   UNL     1      -2.610  -1.536   3.527  0.00  0.00    +0.010 A 
ENDROOT
BRANCH   1   7
ATOM      7  C   UNL     1      -0.825  -1.524   1.793  0.00  0.00    +0.104 C 
ATOM      8  N   UNL     1      -1.104  -0.338   1.357  0.00  0.00    -0.090 NA
BRANCH   7  15
ATOM      9  C   UNL     1       1.454  -0.508  -0.267  0.00  0.00    +0.063 C 
ATOM     10  C   UNL     1       0.567  -1.727  -0.255  0.00  0.00    +0.052 C 
ATOM     11  N   UNL     1       0.124  -2.351  -1.275  0.00  0.00    -0.181 NA
ATOM     12  N   UNL     1      -0.673  -3.443  -0.944  0.00  0.00    -0.160 N 
ATOM     13  C   UNL     1      -0.783  -3.578   0.394  0.00  0.00    +0.254 C 
ATOM     14  O   UNL     1      -1.403  -4.424   1.003  0.00  0.00    -0.272 OA
ATOM     15  C   UNL     1       0.042  -2.443   0.972  0.00  0.00    +0.175 C 
BRANCH  12  16
ATOM     16  C   UNL     1      -1.280  -4.292  -1.877  0.00  0.00    +0.060 A 
ATOM     17  C   UNL     1      -2.064  -5.354  -1.446  0.00  0.00    +0.025 A 
ATOM     18  C   UNL     1      -2.662  -6.189  -2.369  0.00  0.00    +0.002 A 
ATOM     19  C   UNL     1      -2.482  -5.968  -3.722  0.00  0.00    +0.000 A 
ATOM     20  C   UNL     1      -1.702  -4.911  -4.155  0.00  0.00    +0.002 A 
ATOM     21  C   UNL     1      -1.105  -4.069  -3.237  0.00  0.00    +0.025 A 
ENDBRANCH  12  16
ENDBRANCH   7  15
BRANCH   8  22
ATOM     22  O   UNL     1      -1.805   0.573   2.184  0.00  0.00    -0.409 OA
ATOM     23  H   UNL     1      -1.967   1.433   1.773  0.00  0.00    +0.328 HD
ENDBRANCH   8  22
ENDBRANCH   1   7
BRANCH   4  24
ATOM     24  C   UNL     1      -2.887  -3.280   6.835  0.00  0.00    +0.104 C 
ATOM     25  N   UNL     1      -2.082  -3.496   7.825  0.00  0.00    -0.090 NA
BRANCH  24  26
ATOM     26  C   UNL     1      -4.369  -3.493   7.011  0.00  0.00    +0.175 C 
ATOM     27  C   UNL     1      -4.838  -4.683   6.196  0.00  0.00    +0.254 C 
ATOM     28  O   UNL     1      -4.787  -4.820   4.992  0.00  0.00    -0.272 OA
ATOM     29  N   UNL     1      -5.323  -5.557   7.102  0.00  0.00    -0.160 N 
ATOM     30  N   UNL     1      -5.213  -5.053   8.395  0.00  0.00    -0.181 NA
ATOM     31  C   UNL     1      -4.686  -3.888   8.438  0.00  0.00    +0.052 C 
ATOM     32  C   UNL     1      -4.426  -3.064   9.673  0.00  0.00    +0.063 C 
BRANCH  29  33
ATOM     33  C   UNL     1      -5.866  -6.808   6.784  0.00  0.00    +0.060 A 
ATOM     34  C   UNL     1      -5.927  -7.224   5.461  0.00  0.00    +0.025 A 
ATOM     35  C   UNL     1      -6.463  -8.458   5.150  0.00  0.00    +0.002 A 
ATOM     36  C   UNL     1      -6.940  -9.279   6.156  0.00  0.00    +0.000 A 
ATOM     37  C   UNL     1      -6.881  -8.868   7.475  0.00  0.00    +0.002 A 
ATOM     38  C   UNL     1      -6.341  -7.637   7.792  0.00  0.00    +0.025 A 
ENDBRANCH  29  33
ENDBRANCH  24  26
BRANCH  25  39
ATOM     39  O   UNL     1      -0.709  -3.171   7.703  0.00  0.00    -0.409 OA
ATOM     40  H   UNL     1      -0.187  -3.367   8.493  0.00  0.00    +0.328 HD
ENDBRANCH  25  39
ENDBRANCH   4  24
TORSDOF 8
