REMARK  Name = ZINC22082994
REMARK  7 active torsions:
REMARK  status: ('A' for Active; 'I' for Inactive)
REMARK    1  A    between atoms: C_1  and  C_2
REMARK    2  A    between atoms: C_9  and  C_16
REMARK    3  A    between atoms: C_11  and  O_12
REMARK    4  A    between atoms: C_16  and  S_17
REMARK    5  A    between atoms: S_17  and  C_18
REMARK    6  A    between atoms: C_21  and  C_24
REMARK    7  A    between atoms: N_22  and  C_23
REMARK                            x       y       z     vdW  Elec       q    Type
REMARK                         _______ _______ _______ _____ _____    ______ ____
ROOT
ATOM      1  C   UNL     1       6.557  -4.302   9.076  0.00  0.00    +0.109 C 
ATOM      2  C   UNL     1       5.875  -3.064   8.554  0.00  0.00    +0.214 C 
ATOM      3  O   UNL     1       6.044  -1.999   9.109  0.00  0.00    -0.276 OA
ATOM      4  N   UNL     1       5.078  -3.140   7.470  0.00  0.00    -0.286 N 
ATOM      5  C   UNL     1       4.532  -1.979   6.922  0.00  0.00    +0.037 A 
ATOM      6  C   UNL     1       3.264  -2.017   6.343  0.00  0.00    +0.024 A 
ATOM      7  C   UNL     1       2.716  -0.889   5.804  0.00  0.00    +0.013 A 
ATOM      8  C   UNL     1       3.430   0.315   5.837  0.00  0.00    +0.022 A 
ATOM      9  C   UNL     1       2.869   1.538   5.260  0.00  0.00    -0.020 A 
ATOM     10  C   UNL     1       3.613   2.674   5.317  0.00  0.00    +0.092 A 
ATOM     11  C   UNL     1       4.889   2.647   5.917  0.00  0.00    +0.285 A 
ATOM     12  O   UNL     1       5.399   1.521   6.439  0.00  0.00    -0.425 OA
ATOM     13  C   UNL     1       4.712   0.359   6.415  0.00  0.00    +0.141 A 
ATOM     14  C   UNL     1       5.254  -0.796   6.958  0.00  0.00    +0.070 A 
ATOM     15  H   UNL     1       4.858  -4.118   7.017  0.00  0.00    +0.155 HD
ENDROOT
BRANCH  11  16
ATOM     16  O   UNL     1       5.545   3.672   5.961  0.00  0.00    -0.480 OA
ATOM     17  H   UNL     1       6.542   3.668   6.426  0.00  0.00    +0.295 HD
ENDBRANCH  11  16
BRANCH   9  18
ATOM     18  C   UNL     1       1.503   1.539   4.625  0.00  0.00    +0.113 C 
BRANCH  18  19
ATOM     19  S   UNL     1       1.656   1.158   2.862  0.00  0.00    -0.081 S 
BRANCH  19  20
ATOM     20  C   UNL     1      -0.040   1.224   2.387  0.00  0.00    +0.192 A 
ATOM     21  N   UNL     1      -1.060   1.487   3.172  0.00  0.00    -0.122 NA
ATOM     22  N   UNL     1      -2.155   1.453   2.500  0.00  0.00    -0.128 NA
ATOM     23  C   UNL     1      -1.900   1.172   1.243  0.00  0.00    +0.167 A 
ATOM     24  N   UNL     1      -0.538   1.012   1.133  0.00  0.00    -0.305 N 
ATOM     25  C   UNL     1       0.220   0.687  -0.078  0.00  0.00    +0.153 C 
BRANCH  23  26
ATOM     26  C   UNL     1      -2.890   1.049   0.152  0.00  0.00    +0.054 A 
ATOM     27  C   UNL     1      -2.838  -0.037  -0.723  0.00  0.00    +0.014 A 
ATOM     28  C   UNL     1      -3.765  -0.146  -1.738  0.00  0.00    +0.001 A 
ATOM     29  C   UNL     1      -4.747   0.817  -1.891  0.00  0.00    +0.003 A 
ATOM     30  C   UNL     1      -4.806   1.897  -1.029  0.00  0.00    +0.039 A 
ATOM     31  C   UNL     1      -3.887   2.017  -0.004  0.00  0.00    +0.134 A 
ATOM     32  F   UNL     1      -3.948   3.069   0.842  0.00  0.00    -0.205 F 
ENDBRANCH  23  26
ENDBRANCH  19  20
ENDBRANCH  18  19
ENDBRANCH   9  18
TORSDOF 5
