REMARK  Name = ZINC24842901
REMARK  7 active torsions:
REMARK  status: ('A' for Active; 'I' for Inactive)
REMARK    1  A    between atoms: C_1  and  C_2
REMARK    2  A    between atoms: C_9  and  C_16
REMARK    3  A    between atoms: C_11  and  O_12
REMARK    4  A    between atoms: C_16  and  S_17
REMARK    5  A    between atoms: S_17  and  C_18
REMARK    6  A    between atoms: N_26  and  C_27
REMARK    7  A    between atoms: C_27  and  C_28
REMARK                            x       y       z     vdW  Elec       q    Type
REMARK                         _______ _______ _______ _____ _____    ______ ____
ROOT
ATOM      1  C   UNL     1       0.435  -9.410  -6.134  0.00  0.00    +0.109 C 
ATOM      2  C   UNL     1       0.248  -8.609  -4.871  0.00  0.00    +0.214 C 
ATOM      3  O   UNL     1      -0.211  -9.137  -3.880  0.00  0.00    -0.276 OA
ATOM      4  N   UNL     1       0.591  -7.306  -4.843  0.00  0.00    -0.286 N 
ATOM      5  C   UNL     1       0.521  -6.593  -3.646  0.00  0.00    +0.037 A 
ATOM      6  C   UNL     1       0.176  -5.241  -3.664  0.00  0.00    +0.024 A 
ATOM      7  C   UNL     1       0.104  -4.530  -2.502  0.00  0.00    +0.013 A 
ATOM      8  C   UNL     1       0.373  -5.162  -1.282  0.00  0.00    +0.022 A 
ATOM      9  C   UNL     1       0.310  -4.422  -0.020  0.00  0.00    -0.020 A 
ATOM     10  C   UNL     1       0.587  -5.089   1.130  0.00  0.00    +0.092 A 
ATOM     11  C   UNL     1       0.930  -6.456   1.083  0.00  0.00    +0.285 A 
ATOM     12  O   UNL     1       0.991  -7.128  -0.078  0.00  0.00    -0.425 OA
ATOM     13  C   UNL     1       0.727  -6.524  -1.257  0.00  0.00    +0.141 A 
ATOM     14  C   UNL     1       0.796  -7.232  -2.446  0.00  0.00    +0.070 A 
ATOM     15  H   UNL     1       0.925  -6.805  -5.763  0.00  0.00    +0.155 HD
ENDROOT
BRANCH  11  16
ATOM     16  O   UNL     1       1.176  -7.043   2.121  0.00  0.00    -0.480 OA
ATOM     17  H   UNL     1       1.445  -8.109   2.100  0.00  0.00    +0.295 HD
ENDBRANCH  11  16
BRANCH   9  18
ATOM     18  C   UNL     1      -0.059  -2.961   0.002  0.00  0.00    +0.113 C 
BRANCH  18  19
ATOM     19  S   UNL     1       1.440  -1.958  -0.143  0.00  0.00    -0.083 S 
BRANCH  19  20
ATOM     20  C   UNL     1       0.735  -0.344  -0.091  0.00  0.00    +0.171 A 
ATOM     21  N   UNL     1      -0.544  -0.084   0.025  0.00  0.00    -0.222 NA
ATOM     22  C   UNL     1      -0.738   1.260   0.033  0.00  0.00    +0.090 A 
ATOM     23  C   UNL     1      -1.876   2.065   0.136  0.00  0.00    +0.030 A 
ATOM     24  C   UNL     1      -1.748   3.436   0.108  0.00  0.00    +0.002 A 
ATOM     25  C   UNL     1      -0.498   4.024  -0.011  0.00  0.00    +0.002 A 
ATOM     26  C   UNL     1       0.635   3.244  -0.110  0.00  0.00    +0.028 A 
ATOM     27  C   UNL     1       0.525   1.862  -0.089  0.00  0.00    +0.070 A 
ATOM     28  N   UNL     1       1.440   0.824  -0.165  0.00  0.00    -0.315 N 
BRANCH  28  29
ATOM     29  C   UNL     1       2.893   0.955  -0.300  0.00  0.00    +0.151 C 
BRANCH  29  30
ATOM     30  C   UNL     1       3.261   0.988  -1.761  0.00  0.00    -0.013 C 
ATOM     31  C   UNL     1       3.966   1.985  -2.236  0.00  0.00    +0.005 C 
ENDBRANCH  29  30
ENDBRANCH  28  29
ENDBRANCH  19  20
ENDBRANCH  18  19
ENDBRANCH   9  18
TORSDOF 6
