REMARK  Name = ZINC44173892
REMARK  8 active torsions:
REMARK  status: ('A' for Active; 'I' for Inactive)
REMARK    1  A    between atoms: C_4  and  C_7
REMARK    2  A    between atoms: C_7  and  N_8
REMARK    3  A    between atoms: C_13  and  C_26
REMARK    4  A    between atoms: C_16  and  C_21
REMARK    5  A    between atoms: C_16  and  C_23
REMARK    6  A    between atoms: C_21  and  O_22
REMARK    7  A    between atoms: C_29  and  C_32
REMARK    8  A    between atoms: C_33  and  C_34
REMARK                            x       y       z     vdW  Elec       q    Type
REMARK                         _______ _______ _______ _____ _____    ______ ____
ROOT
ATOM      1  N   UNL     1       3.862  -1.196   1.282  0.00  0.00    -0.237 N 
ATOM      2  C   UNL     1       4.629  -0.234   1.891  0.00  0.00    +0.225 C 
ATOM      3  O   UNL     1       4.800   0.912   1.535  0.00  0.00    -0.275 OA
ATOM      4  C   UNL     1       5.187  -0.892   3.049  0.00  0.00    +0.077 C 
ATOM      5  C   UNL     1       5.814  -0.567   4.338  0.00  0.00    -0.027 C 
ATOM      6  N   UNL     1       5.678  -1.825   5.144  0.00  0.00    +0.397 N 
ATOM      7  C   UNL     1       4.867  -2.793   4.336  0.00  0.00    +0.071 C 
ATOM      8  C   UNL     1       4.002  -1.849   3.474  0.00  0.00    +0.088 C 
ATOM      9  C   UNL     1       3.647  -2.284   2.079  0.00  0.00    +0.225 C 
ATOM     10  O   UNL     1       3.253  -3.377   1.734  0.00  0.00    -0.275 OA
ATOM     11  H   UNL     1       6.591  -2.214   5.328  0.00  0.00    -0.083 HD
ATOM     12  H   UNL     1       5.207  -1.626   6.013  0.00  0.00    -0.083 HD
ENDROOT
BRANCH   5  13
ATOM     13  C   UNL     1       5.086   0.570   5.006  0.00  0.00    -0.061 A 
ATOM     14  C   UNL     1       3.912   0.326   5.697  0.00  0.00    +0.002 A 
ATOM     15  C   UNL     1       3.240   1.362   6.311  0.00  0.00    +0.008 A 
ATOM     16  C   UNL     1       3.748   2.661   6.234  0.00  0.00    -0.025 A 
ATOM     17  C   UNL     1       4.934   2.901   5.535  0.00  0.00    +0.008 A 
ATOM     18  C   UNL     1       5.597   1.854   4.931  0.00  0.00    +0.002 A 
BRANCH  16  19
ATOM     19  C   UNL     1       3.035   3.774   6.888  0.00  0.00    +0.008 C 
ATOM     20  C   UNL     1       3.526   5.021   6.813  0.00  0.00    +0.008 C 
BRANCH  20  21
ATOM     21  C   UNL     1       2.814   6.134   7.466  0.00  0.00    -0.025 A 
ATOM     22  C   UNL     1       1.631   5.894   8.169  0.00  0.00    +0.008 A 
ATOM     23  C   UNL     1       0.970   6.940   8.779  0.00  0.00    +0.001 A 
ATOM     24  C   UNL     1       1.476   8.225   8.694  0.00  0.00    +0.000 A 
ATOM     25  C   UNL     1       2.647   8.471   8.000  0.00  0.00    +0.001 A 
ATOM     26  C   UNL     1       3.322   7.434   7.390  0.00  0.00    +0.008 A 
ENDBRANCH  20  21
ENDBRANCH  16  19
ENDBRANCH   5  13
BRANCH   7  27
ATOM     27  C   UNL     1       3.995  -3.636   5.230  0.00  0.00    +0.348 C 
ATOM     28  O   UNL     1       4.041  -3.490   6.440  0.00  0.00    -0.248 OA
ATOM     29  O   UNL     1       3.243  -4.464   4.744  0.00  0.00    -0.248 OA
ENDBRANCH   7  27
BRANCH   1  30
ATOM     30  C   UNL     1       3.325  -1.067  -0.075  0.00  0.00    +0.151 C 
BRANCH  30  34
ATOM     31  C   UNL     1      -0.515   0.796   0.080  0.00  0.00    +0.000 A 
ATOM     32  C   UNL     1       0.624   1.569  -0.047  0.00  0.00    +0.000 A 
ATOM     33  C   UNL     1       1.867   0.966  -0.097  0.00  0.00    +0.005 A 
ATOM     34  C   UNL     1       1.970  -0.410  -0.020  0.00  0.00    -0.030 A 
ATOM     35  C   UNL     1       0.832  -1.183   0.107  0.00  0.00    +0.005 A 
ATOM     36  C   UNL     1      -0.411  -0.580   0.156  0.00  0.00    +0.000 A 
ENDBRANCH  30  34
ENDBRANCH   1  30
BRANCH   7  37
ATOM     37  C   UNL     1       5.774  -3.674   3.474  0.00  0.00    +0.155 C 
BRANCH  37  38
ATOM     38  O   UNL     1       6.647  -4.429   4.318  0.00  0.00    -0.396 OA
ATOM     39  H   UNL     1       7.252  -5.011   3.839  0.00  0.00    +0.209 HD
ENDBRANCH  37  38
ENDBRANCH   7  37
TORSDOF 8
