REMARK  Name = ZINC16711577
REMARK  12 active torsions:
REMARK  status: ('A' for Active; 'I' for Inactive)
REMARK    1  A    between atoms: C_1  and  O_2
REMARK    2  A    between atoms: O_2  and  C_3
REMARK    3  A    between atoms: C_3  and  C_4
REMARK    4  A    between atoms: C_4  and  C_5
REMARK    5  A    between atoms: C_5  and  N_6
REMARK    6  A    between atoms: C_7  and  C_9
REMARK    7  A    between atoms: C_9  and  N_31
REMARK    8  A    between atoms: C_10  and  C_11
REMARK    9  A    between atoms: N_13  and  C_25
REMARK   10  A    between atoms: C_15  and  C_16
REMARK   11  A    between atoms: C_20  and  N_22
REMARK   12  A    between atoms: C_32  and  C_34
REMARK                            x       y       z     vdW  Elec       q    Type
REMARK                         _______ _______ _______ _____ _____    ______ ____
ROOT
ATOM      1  C   UNL     1      -2.906   6.552  -1.956  0.00  0.00    +0.097 C 
ATOM      2  C   UNL     1      -1.974   5.643  -1.582  0.00  0.00    +0.040 C 
ENDROOT
BRANCH   2   3
ATOM      3  C   UNL     1      -0.619   6.085  -1.227  0.00  0.00    +0.023 A 
ATOM      4  C   UNL     1      -0.050   7.313  -1.503  0.00  0.00    +0.123 A 
ATOM      5  N   UNL     1       1.204   7.305  -1.011  0.00  0.00    -0.239 N 
ATOM      6  N   UNL     1       1.463   6.073  -0.405  0.00  0.00    -0.166 NA
ATOM      7  C   UNL     1       0.398   5.310  -0.507  0.00  0.00    +0.100 A 
BRANCH   7   8
ATOM      8  C   UNL     1       0.253   3.926   0.003  0.00  0.00    +0.005 A 
ATOM      9  C   UNL     1      -0.974   3.488   0.500  0.00  0.00    +0.010 A 
ATOM     10  C   UNL     1      -1.105   2.197   0.969  0.00  0.00    +0.003 A 
ATOM     11  C   UNL     1      -0.018   1.341   0.958  0.00  0.00    +0.033 A 
ATOM     12  C   UNL     1       1.202   1.770   0.467  0.00  0.00    +0.127 A 
ATOM     13  C   UNL     1       1.343   3.057  -0.011  0.00  0.00    +0.042 A 
BRANCH  12  14
ATOM     14  N   UNL     1       2.359   0.846   0.453  0.00  0.00    +0.056 N 
ATOM     15  O   UNL     1       2.236  -0.290   0.874  0.00  0.00    -0.126 OA
ATOM     16  O   UNL     1       3.434   1.223   0.021  0.00  0.00    -0.126 OA
ENDBRANCH  12  14
ENDBRANCH   7   8
BRANCH   5  17
ATOM     17  C   UNL     1       2.111   8.370  -1.095  0.00  0.00    +0.065 A 
ATOM     18  C   UNL     1       1.823   9.467  -1.897  0.00  0.00    +0.028 A 
ATOM     19  C   UNL     1       2.716  10.518  -1.972  0.00  0.00    +0.002 A 
ATOM     20  C   UNL     1       3.901  10.473  -1.260  0.00  0.00    +0.000 A 
ATOM     21  C   UNL     1       4.192   9.380  -0.465  0.00  0.00    +0.002 A 
ATOM     22  C   UNL     1       3.301   8.328  -0.381  0.00  0.00    +0.028 A 
ENDBRANCH   5  17
ENDBRANCH   2   3
BRANCH   1  24
ATOM     23  N   UNL     1      -5.145   7.007  -2.808  0.00  0.00    -0.310 N 
ATOM     24  C   UNL     1      -4.217   6.103  -2.436  0.00  0.00    +0.258 C 
ATOM     25  O   UNL     1      -4.468   4.914  -2.497  0.00  0.00    -0.269 OA
ATOM     26  H   UNL     1      -4.945   7.955  -2.760  0.00  0.00    +0.149 HD
BRANCH  23  27
ATOM     27  C   UNL     1      -6.454   6.559  -3.287  0.00  0.00    +0.107 C 
BRANCH  27  28
ATOM     28  C   UNL     1      -7.312   7.775  -3.642  0.00  0.00    +0.047 C 
BRANCH  28  29
ATOM     29  C   UNL     1      -8.680   7.306  -4.142  0.00  0.00    +0.161 C 
BRANCH  29  31
ATOM     30  C   UNL     1     -10.786   8.113  -4.954  0.00  0.00    +0.193 C 
ATOM     31  O   UNL     1      -9.480   8.442  -4.474  0.00  0.00    -0.383 OA
ENDBRANCH  29  31
ENDBRANCH  28  29
ENDBRANCH  27  28
ENDBRANCH  23  27
ENDBRANCH   1  24
BRANCH   1  32
ATOM     32  N   UNL     1      -2.618   7.922  -1.886  0.00  0.00    -0.277 N 
ATOM     33  C   UNL     1      -2.679   8.681  -2.998  0.00  0.00    +0.248 C 
ATOM     34  O   UNL     1      -3.083   8.203  -4.040  0.00  0.00    -0.270 OA
ATOM     35  H   UNL     1      -2.374   8.323  -1.037  0.00  0.00    +0.155 HD
BRANCH  33  36
ATOM     36  C   UNL     1      -2.255  10.097  -2.950  0.00  0.00    +0.037 A 
ATOM     37  C   UNL     1      -1.907  10.683  -1.732  0.00  0.00    +0.013 A 
ATOM     38  C   UNL     1      -1.507  12.003  -1.695  0.00  0.00    +0.001 A 
ATOM     39  C   UNL     1      -1.461  12.748  -2.860  0.00  0.00    +0.000 A 
ATOM     40  C   UNL     1      -1.810  12.174  -4.070  0.00  0.00    +0.001 A 
ATOM     41  C   UNL     1      -2.206  10.854  -4.122  0.00  0.00    +0.013 A 
ENDBRANCH  33  36
ENDBRANCH   1  32
TORSDOF 11
