REMARK  Name = ZINC65427214
REMARK  4 active torsions:
REMARK  status: ('A' for Active; 'I' for Inactive)
REMARK    1  A    between atoms: C_1  and  C_2
REMARK    2  A    between atoms: C_7  and  C_13
REMARK    3  A    between atoms: C_11  and  C_12
REMARK    4  A    between atoms: C_23  and  C_25
REMARK                            x       y       z     vdW  Elec       q    Type
REMARK                         _______ _______ _______ _____ _____    ______ ____
ROOT
ATOM      1  C   UNL     1      -1.179  -5.099   2.012  0.00  0.00    +0.106 A 
ATOM      2  C   UNL     1      -1.827  -6.059   1.222  0.00  0.00    +0.053 A 
ATOM      3  C   UNL     1      -2.864  -6.536   1.932  0.00  0.00    +0.057 A 
ATOM      4  N   UNL     1      -2.891  -5.899   3.121  0.00  0.00    -0.266 N 
ATOM      5  N   UNL     1      -1.812  -5.014   3.157  0.00  0.00    -0.172 NA
ATOM      6  C   UNL     1      -3.905  -6.117   4.165  0.00  0.00    +0.145 C 
ATOM      7  C   UNL     1      -5.253  -5.628   3.616  0.00  0.00    +0.042 C 
ATOM      8  C   UNL     1      -5.899  -6.690   2.748  0.00  0.00    +0.110 C 
ATOM      9  N   UNL     1      -5.190  -6.967   1.511  0.00  0.00    -0.293 N 
ATOM     10  C   UNL     1      -3.863  -7.606   1.533  0.00  0.00    +0.162 C 
ATOM     11  C   UNL     1      -5.752  -6.636   0.332  0.00  0.00    +0.245 C 
ATOM     12  O   UNL     1      -5.132  -6.789  -0.700  0.00  0.00    -0.273 OA
ENDROOT
BRANCH   1  19
ATOM     13  C   UNL     1      -0.084   1.553   0.171  0.00  0.00    +0.044 C 
ATOM     14  C   UNL     1      -0.051   0.047   0.140  0.00  0.00    -0.045 A 
ATOM     15  C   UNL     1      -0.034  -0.603  -1.107  0.00  0.00    +0.006 A 
ATOM     16  C   UNL     1      -0.005  -1.945  -1.227  0.00  0.00    +0.028 A 
ATOM     17  C   UNL     1       0.011  -2.781  -0.019  0.00  0.00    +0.061 A 
ATOM     18  N   UNL     1       0.038  -4.069   0.166  0.00  0.00    -0.358 N 
ATOM     19  C   UNL     1       0.040  -4.306   1.615  0.00  0.00    +0.226 C 
ATOM     20  N   UNL     1       0.011  -2.983   2.252  0.00  0.00    -0.358 N 
ATOM     21  C   UNL     1      -0.006  -2.093   1.302  0.00  0.00    +0.064 A 
ATOM     22  C   UNL     1      -0.033  -0.624   1.309  0.00  0.00    -0.023 A 
ATOM     23  C   UNL     1      -0.046   0.128   2.615  0.00  0.00    +0.046 C 
ATOM     24  H   UNL     1       0.005  -2.805   3.205  0.00  0.00    +0.162 HD
ATOM     25  H   UNL     1       0.053  -4.748  -0.526  0.00  0.00    +0.162 HD
ENDBRANCH   1  19
BRANCH  11  26
ATOM     26  C   UNL     1      -7.150  -6.075   0.294  0.00  0.00    +0.204 C 
ATOM     27  C   UNL     1      -7.163  -4.626   0.842  0.00  0.00    +0.043 C 
ATOM     28  C   UNL     1      -8.428  -4.058   0.142  0.00  0.00    +0.031 C 
ATOM     29  C   UNL     1      -8.405  -4.787  -1.218  0.00  0.00    +0.161 C 
ATOM     30  O   UNL     1      -7.608  -5.969  -1.063  0.00  0.00    -0.367 OA
ENDBRANCH  11  26
TORSDOF 2
