REMARK  Name = ZINC37199254
REMARK  6 active torsions:
REMARK  status: ('A' for Active; 'I' for Inactive)
REMARK    1  A    between atoms: C_1  and  C_2
REMARK    2  A    between atoms: C_2  and  C_4
REMARK    3  A    between atoms: C_2  and  N_14
REMARK    4  A    between atoms: C_8  and  S_10
REMARK    5  A    between atoms: S_10  and  N_13
REMARK    6  A    between atoms: N_14  and  C_15
REMARK                            x       y       z     vdW  Elec       q    Type
REMARK                         _______ _______ _______ _____ _____    ______ ____
ROOT
ATOM      1  C   UNL     1      -0.019   1.526   0.010  0.00  0.00    -0.009 C 
ATOM      2  C   UNL     1       0.002  -0.004   0.002  0.00  0.00    -0.044 C 
ENDROOT
BRANCH   2   3
ATOM      3  C   UNL     1       0.707  -0.490  -1.238  0.00  0.00    -0.060 A 
ATOM      4  C   UNL     1       2.089  -0.511  -1.284  0.00  0.00    +0.002 A 
ATOM      5  C   UNL     1       2.736  -0.957  -2.421  0.00  0.00    +0.002 A 
ATOM      6  C   UNL     1       2.002  -1.382  -3.512  0.00  0.00    +0.028 A 
ATOM      7  C   UNL     1       0.620  -1.362  -3.466  0.00  0.00    +0.105 A 
ATOM      8  C   UNL     1      -0.027  -0.920  -2.327  0.00  0.00    +0.030 A 
BRANCH   7   9
ATOM      9  S   UNL     1      -0.316  -1.904  -4.857  0.00  0.00    +0.056 S 
ATOM     10  O   UNL     1      -1.586  -1.274  -4.762  0.00  0.00    -0.153 OA
ATOM     11  O   UNL     1       0.524  -1.758  -5.994  0.00  0.00    -0.153 OA
BRANCH   9  12
ATOM     12  N   UNL     1      -0.578  -3.528  -4.668  0.00  0.00    -0.204 NA
ATOM     13  H   UNL     1      -1.379  -3.936  -5.032  0.00  0.00    +0.144 HD
ATOM     14  H   UNL     1       0.070  -4.072  -4.194  0.00  0.00    +0.144 HD
ENDBRANCH   9  12
ENDBRANCH   7   9
ENDBRANCH   2   3
BRANCH   2  15
ATOM     15  N   UNL     1       0.713  -0.491   1.192  0.00  0.00    +0.385 N 
ATOM     16  H   UNL     1       0.798  -1.495   1.145  0.00  0.00    -0.085 HD
ATOM     17  H   UNL     1       1.632  -0.076   1.228  0.00  0.00    -0.085 HD
BRANCH  15  18
ATOM     18  C   UNL     1      -0.040  -0.119   2.398  0.00  0.00    -0.071 C 
ATOM     19  C   UNL     1      -1.386  -0.846   2.403  0.00  0.00    -0.016 C 
ATOM     20  C   UNL     1      -1.992  -0.786   3.807  0.00  0.00    -0.002 C 
ATOM     21  C   UNL     1      -2.563   0.611   4.056  0.00  0.00    -0.000 C 
ATOM     22  C   UNL     1      -1.419   1.588   4.334  0.00  0.00    -0.000 C 
ATOM     23  C   UNL     1      -0.417   0.942   5.293  0.00  0.00    -0.000 C 
ATOM     24  C   UNL     1       0.904   0.698   4.562  0.00  0.00    -0.002 C 
ATOM     25  C   UNL     1       0.760  -0.515   3.640  0.00  0.00    -0.016 C 
ENDBRANCH  15  18
ENDBRANCH   2  15
TORSDOF 5
