REMARK  Name = ZINC03654480
REMARK  4 active torsions:
REMARK  status: ('A' for Active; 'I' for Inactive)
REMARK    1  A    between atoms: C_1  and  C_2
REMARK    2  A    between atoms: C_2  and  C_32
REMARK    3  A    between atoms: C_6  and  C_22
REMARK    4  A    between atoms: C_8  and  C_20
REMARK                            x       y       z     vdW  Elec       q    Type
REMARK                         _______ _______ _______ _____ _____    ______ ____
ROOT
ATOM      1  C   UNL     1      -0.019   1.525   0.010  0.00  0.00    +0.011 C 
ATOM      2  C   UNL     1       0.002  -0.004   0.002  0.00  0.00    -0.023 C 
ATOM      3  C   UNL     1       0.716  -0.512  -1.251  0.00  0.00    +0.058 C 
ATOM      4  C   UNL     1       2.152  -0.043  -1.267  0.00  0.00    +0.025 C 
ATOM      5  C   UNL     1       2.805   0.093  -0.090  0.00  0.00    +0.025 C 
ATOM      6  C   UNL     1       4.251   0.546  -0.121  0.00  0.00    +0.099 C 
ATOM      7  C   UNL     1       4.718   1.182  -1.414  0.00  0.00    +0.080 C 
ATOM      8  C   UNL     1       3.926   0.991  -2.541  0.00  0.00    +0.123 C 
ATOM      9  N   UNL     1       2.759   0.246  -2.462  0.00  0.00    -0.257 N 
ATOM     10  C   UNL     1       2.220  -0.253  -3.647  0.00  0.00    +0.050 A 
ATOM     11  C   UNL     1       1.376  -1.350  -3.691  0.00  0.00    +0.024 A 
ATOM     12  C   UNL     1       0.782  -1.726  -4.881  0.00  0.00    +0.002 A 
ATOM     13  C   UNL     1       1.049  -1.038  -6.054  0.00  0.00    +0.001 A 
ATOM     14  C   UNL     1       1.970  -0.012  -6.054  0.00  0.00    +0.013 A 
ATOM     15  C   UNL     1       2.596   0.349  -4.863  0.00  0.00    +0.034 A 
ATOM     16  C   UNL     1       3.697   1.323  -4.840  0.00  0.00    +0.104 C 
ATOM     17  N   UNL     1       4.301   1.566  -3.693  0.00  0.00    -0.330 N 
ATOM     18  N   UNL     1       4.100   1.964  -5.983  0.00  0.00    -0.344 N 
ATOM     19  C   UNL     1       2.190  -0.140   1.147  0.00  0.00    +0.162 C 
ATOM     20  O   UNL     1       2.835  -0.013   2.172  0.00  0.00    -0.292 OA
ATOM     21  C   UNL     1       0.740  -0.526   1.238  0.00  0.00    +0.086 C 
ATOM     22  C   UNL     1      -1.437  -0.531   0.011  0.00  0.00    +0.011 C 
ATOM     23  H   UNL     1       3.657   1.778  -6.826  0.00  0.00    +0.144 HD
ATOM     24  H   UNL     1       4.828   2.604  -5.949  0.00  0.00    +0.144 HD
ATOM     25  H   UNL     1       5.027   2.209  -3.724  0.00  0.00    +0.168 HD
ENDROOT
BRANCH   6  26
ATOM     26  C   UNL     1       5.128  -0.650   0.144  0.00  0.00    -0.016 A 
ATOM     27  C   UNL     1       5.088  -1.739  -0.707  0.00  0.00    +0.006 A 
ATOM     28  C   UNL     1       5.892  -2.836  -0.464  0.00  0.00    +0.000 A 
ATOM     29  C   UNL     1       6.737  -2.846   0.631  0.00  0.00    +0.001 A 
ATOM     30  C   UNL     1       6.777  -1.759   1.482  0.00  0.00    +0.020 A 
ATOM     31  C   UNL     1       5.977  -0.657   1.236  0.00  0.00    +0.045 A 
ATOM     32 CL   UNL     1       6.032   0.712   2.303  0.00  0.00    -0.083 Cl
ENDBRANCH   6  26
BRANCH   7  33
ATOM     33  C   UNL     1       5.937   1.933  -1.431  0.00  0.00    +0.099 C 
ATOM     34  N   UNL     1       6.904   2.529  -1.446  0.00  0.00    -0.191 NA
ENDBRANCH   7  33
TORSDOF 2
