REMARK  Name = ZINC39682389
REMARK  6 active torsions:
REMARK  status: ('A' for Active; 'I' for Inactive)
REMARK    1  A    between atoms: C_4  and  C_7
REMARK    2  A    between atoms: C_7  and  C_9
REMARK    3  A    between atoms: C_7  and  N_13
REMARK    4  A    between atoms: C_9  and  C_10
REMARK    5  A    between atoms: C_14  and  C_16
REMARK    6  A    between atoms: C_27  and  C_29
REMARK                            x       y       z     vdW  Elec       q    Type
REMARK                         _______ _______ _______ _____ _____    ______ ____
ROOT
ATOM      1  C   UNL     1       4.553  -3.192  -3.009  0.00  0.00    +0.100 C 
ATOM      2  C   UNL     1       4.035  -4.489  -2.347  0.00  0.00    +0.121 C 
ATOM      3  N   UNL     1       4.681  -5.583  -3.110  0.00  0.00    -0.300 N 
ATOM      4  C   UNL     1       6.057  -5.091  -3.365  0.00  0.00    +0.115 C 
ATOM      5  C   UNL     1       5.880  -3.592  -3.675  0.00  0.00    -0.004 C 
ATOM      6  C   UNL     1       7.033  -2.790  -3.079  0.00  0.00    -0.010 C 
ATOM      7  C   UNL     1       8.333  -3.162  -3.797  0.00  0.00    -0.082 C 
ATOM      8  N   UNL     1       8.201  -2.875  -5.231  0.00  0.00    +0.379 N 
ATOM      9  C   UNL     1       7.152  -3.718  -5.816  0.00  0.00    -0.082 C 
ATOM     10  C   UNL     1       5.802  -3.370  -5.183  0.00  0.00    -0.010 C 
ATOM     11  C   UNL     1       4.141  -6.758  -3.487  0.00  0.00    +0.219 C 
ATOM     12  O   UNL     1       4.804  -7.558  -4.113  0.00  0.00    -0.275 OA
ATOM     13  H   UNL     1       7.960  -1.904  -5.357  0.00  0.00    -0.086 HD
ATOM     14  H   UNL     1       9.078  -3.063  -5.692  0.00  0.00    -0.086 HD
ENDROOT
BRANCH   1  16
ATOM     15  N   UNL     1       4.686  -0.827  -2.299  0.00  0.00    -0.308 N 
ATOM     16  C   UNL     1       4.787  -2.129  -1.967  0.00  0.00    +0.219 C 
ATOM     17  O   UNL     1       5.067  -2.445  -0.830  0.00  0.00    -0.275 OA
ATOM     18  H   UNL     1       4.534  -0.572  -3.223  0.00  0.00    +0.149 HD
BRANCH  15  19
ATOM     19  C   UNL     1       4.806   0.204  -1.265  0.00  0.00    +0.114 C 
BRANCH  19  23
ATOM     20  C   UNL     1       6.170   3.844  -3.036  0.00  0.00    +0.000 A 
ATOM     21  C   UNL     1       6.654   3.452  -1.802  0.00  0.00    +0.000 A 
ATOM     22  C   UNL     1       6.212   2.275  -1.229  0.00  0.00    +0.005 A 
ATOM     23  C   UNL     1       5.287   1.489  -1.889  0.00  0.00    -0.027 A 
ATOM     24  C   UNL     1       4.802   1.881  -3.123  0.00  0.00    +0.005 A 
ATOM     25  C   UNL     1       5.245   3.058  -3.697  0.00  0.00    +0.000 A 
ENDBRANCH  19  23
BRANCH  19  26
ATOM     26  C   UNL     1       3.441   0.434  -0.613  0.00  0.00    +0.152 C 
BRANCH  26  27
ATOM     27  C   UNL     1       3.594   1.372   0.556  0.00  0.00    +0.358 C 
ATOM     28  O   UNL     1       4.705   1.717   0.919  0.00  0.00    -0.246 OA
ATOM     29  O   UNL     1       2.606   1.787   1.138  0.00  0.00    -0.246 OA
ENDBRANCH  26  27
ENDBRANCH  19  26
ENDBRANCH  15  19
ENDBRANCH   1  16
BRANCH  11  30
ATOM     30  C   UNL     1       2.712  -7.079  -3.131  0.00  0.00    +0.075 C 
ATOM     31  C   UNL     1       2.541  -7.629  -1.705  0.00  0.00    +0.013 C 
ATOM     32  C   UNL     1       1.512  -8.610  -2.291  0.00  0.00    +0.001 C 
ATOM     33  C   UNL     1       2.247  -8.457  -3.633  0.00  0.00    +0.013 C 
ENDBRANCH  11  30
TORSDOF 6
