REMARK  Name = ZINC16651068
REMARK  5 active torsions:
REMARK  status: ('A' for Active; 'I' for Inactive)
REMARK    1  A    between atoms: C_1  and  C_2
REMARK    2  A    between atoms: C_15  and  C_18
REMARK    3  A    between atoms: C_21  and  C_24
REMARK    4  A    between atoms: C_24  and  O_26
REMARK    5  A    between atoms: O_26  and  C_27
REMARK                            x       y       z     vdW  Elec       q    Type
REMARK                         _______ _______ _______ _____ _____    ______ ____
ROOT
ATOM      1  C   UNL     1       6.386   9.053  -0.754  0.00  0.00    +0.044 C 
ATOM      2  C   UNL     1       5.308   8.001  -0.786  0.00  0.00    -0.050 A 
ATOM      3  C   UNL     1       4.466   7.910  -1.880  0.00  0.00    +0.005 A 
ATOM      4  C   UNL     1       3.479   6.945  -1.906  0.00  0.00    +0.023 A 
ATOM      5  C   UNL     1       3.334   6.070  -0.836  0.00  0.00    +0.033 A 
ATOM      6  C   UNL     1       4.174   6.159   0.260  0.00  0.00    +0.003 A 
ATOM      7  C   UNL     1       5.163   7.132   0.277  0.00  0.00    +0.011 A 
ATOM      8  C   UNL     1       4.062   5.241   1.448  0.00  0.00    +0.155 C 
ATOM      9  C   UNL     1       2.774   4.402   1.409  0.00  0.00    +0.049 C 
ATOM     10  C   UNL     1       1.720   5.425   1.899  0.00  0.00    +0.036 C 
ATOM     11  C   UNL     1       2.531   6.250   2.923  0.00  0.00    +0.161 C 
ATOM     12  O   UNL     1       3.921   6.067   2.623  0.00  0.00    -0.372 OA
ATOM     13  C   UNL     1       2.452   3.933  -0.001  0.00  0.00    +0.107 C 
ATOM     14  N   UNL     1       2.327   5.099  -0.883  0.00  0.00    -0.336 N 
ATOM     15  H   UNL     1       1.570   5.194  -1.481  0.00  0.00    +0.147 HD
ENDROOT
BRANCH  13  16
ATOM     16  C   UNL     1       1.155   3.167   0.008  0.00  0.00    -0.027 A 
ATOM     17  C   UNL     1       1.172   1.783   0.000  0.00  0.00    +0.006 A 
ATOM     18  C   UNL     1      -0.013   1.076   0.008  0.00  0.00    +0.015 A 
ATOM     19  C   UNL     1      -1.230   1.759   0.017  0.00  0.00    +0.059 A 
ATOM     20  C   UNL     1      -1.240   3.155   0.031  0.00  0.00    +0.015 A 
ATOM     21  C   UNL     1      -0.048   3.850   0.023  0.00  0.00    +0.006 A 
BRANCH  19  22
ATOM     22  C   UNL     1      -2.502   1.008   0.019  0.00  0.00    +0.339 C 
ATOM     23  O   UNL     1      -2.491  -0.206   0.012  0.00  0.00    -0.245 OA
BRANCH  22  24
ATOM     24  O   UNL     1      -3.675   1.670   0.028  0.00  0.00    -0.464 OA
ATOM     25  C   UNL     1      -4.886   0.868   0.029  0.00  0.00    +0.280 C 
ENDBRANCH  22  24
ENDBRANCH  19  22
ENDBRANCH  13  16
TORSDOF 3
