REMARK  Name = ZINC40569809
REMARK  16 active torsions:
REMARK  status: ('A' for Active; 'I' for Inactive)
REMARK    1  A    between atoms: C_1  and  C_2
REMARK    2  A    between atoms: C_2  and  C_3
REMARK    3  A    between atoms: C_3  and  C_4
REMARK    4  A    between atoms: N_10  and  C_11
REMARK    5  A    between atoms: C_11  and  C_12
REMARK    6  A    between atoms: C_12  and  O_13
REMARK    7  A    between atoms: O_13  and  C_14
REMARK    8  A    between atoms: C_15  and  C_25
REMARK    9  A    between atoms: C_17  and  C_21
REMARK   10  A    between atoms: C_18  and  N_20
REMARK   11  A    between atoms: C_21  and  O_23
REMARK   12  A    between atoms: O_23  and  C_24
REMARK   13  A    between atoms: C_27  and  O_33
REMARK   14  A    between atoms: C_30  and  O_31
REMARK   15  A    between atoms: O_31  and  C_32
REMARK   16  A    between atoms: O_33  and  C_34
REMARK                            x       y       z     vdW  Elec       q    Type
REMARK                         _______ _______ _______ _____ _____    ______ ____
ROOT
ATOM      1  C   UNL     1      -1.212  -2.184  -0.171  0.00  0.00    +0.026 A 
ATOM      2  C   UNL     1      -1.489  -2.408   1.132  0.00  0.00    +0.068 A 
ATOM      3  C   UNL     1      -1.633  -3.730   1.601  0.00  0.00    +0.141 A 
ATOM      4  C   UNL     1      -1.487  -4.774   0.711  0.00  0.00    +0.071 A 
ATOM      5  C   UNL     1      -1.200  -4.494  -0.631  0.00  0.00    +0.259 A 
ATOM      6  O   UNL     1      -1.068  -5.408  -1.430  0.00  0.00    -0.267 OA
ATOM      7  N   UNL     1      -1.075  -3.218  -1.042  0.00  0.00    -0.310 N 
ATOM      8  C   UNL     1      -1.631  -6.199   1.168  0.00  0.00    +0.103 C 
ATOM      9  C   UNL     1      -2.315  -6.248   2.506  0.00  0.00    +0.105 C 
ATOM     10  C   UNL     1      -2.415  -5.141   3.285  0.00  0.00    +0.195 C 
ATOM     11  O   UNL     1      -1.911  -3.956   2.902  0.00  0.00    -0.441 OA
ENDROOT
BRANCH   8  12
ATOM     12  C   UNL     1      -0.266  -6.827   1.285  0.00  0.00    +0.010 A 
ATOM     13  C   UNL     1       0.667  -6.294   2.153  0.00  0.00    +0.053 A 
ATOM     14  C   UNL     1       1.923  -6.872   2.261  0.00  0.00    +0.121 A 
ATOM     15  C   UNL     1       2.243  -7.985   1.497  0.00  0.00    +0.049 A 
ATOM     16  C   UNL     1       1.310  -8.517   0.628  0.00  0.00    +0.049 A 
ATOM     17  C   UNL     1       0.051  -7.942   0.525  0.00  0.00    +0.124 A 
BRANCH  17  18
ATOM     18  O   UNL     1      -0.869  -8.470  -0.326  0.00  0.00    -0.495 OA
ATOM     19  C   UNL     1      -0.474  -9.619  -1.078  0.00  0.00    +0.277 C 
ENDBRANCH  17  18
BRANCH  14  20
ATOM     20  O   UNL     1       2.842  -6.348   3.115  0.00  0.00    -0.495 OA
ATOM     21  C   UNL     1       4.115  -6.993   3.175  0.00  0.00    +0.277 C 
ENDBRANCH  14  20
ENDBRANCH   8  12
BRANCH  10  22
ATOM     22  N   UNL     1      -3.047  -5.234   4.495  0.00  0.00    -0.329 N 
ATOM     23  H   UNL     1      -3.349  -6.098   4.820  0.00  0.00    +0.145 HD
ATOM     24  H   UNL     1      -3.194  -4.438   5.029  0.00  0.00    +0.145 HD
ENDBRANCH  10  22
BRANCH   9  25
ATOM     25  C   UNL     1      -2.860  -7.459   2.957  0.00  0.00    +0.341 C 
ATOM     26  O   UNL     1      -3.934  -7.841   2.528  0.00  0.00    -0.245 OA
BRANCH  25  27
ATOM     27  O   UNL     1      -2.195  -8.201   3.869  0.00  0.00    -0.465 OA
ATOM     28  C   UNL     1      -2.809  -9.423   4.283  0.00  0.00    +0.280 C 
ENDBRANCH  25  27
ENDBRANCH   9  25
BRANCH   1  29
ATOM     29  C   UNL     1      -1.058  -0.769  -0.666  0.00  0.00    +0.053 C 
BRANCH  29  31
ATOM     30  C   UNL     1      -2.280   1.223  -1.549  0.00  0.00    +0.004 C 
ATOM     31  C   UNL     1      -2.413  -0.248  -1.149  0.00  0.00    +0.003 C 
ENDBRANCH  29  31
ENDBRANCH   1  29
BRANCH   7  32
ATOM     32  C   UNL     1      -0.780  -2.940  -2.450  0.00  0.00    +0.153 C 
BRANCH  32  33
ATOM     33  C   UNL     1       0.734  -2.823  -2.641  0.00  0.00    +0.181 C 
BRANCH  33  34
ATOM     34  O   UNL     1       1.347  -4.083  -2.361  0.00  0.00    -0.381 OA
ATOM     35  C   UNL     1       2.769  -4.083  -2.511  0.00  0.00    +0.194 C 
ENDBRANCH  33  34
ENDBRANCH  32  33
ENDBRANCH   7  32
TORSDOF 11
