REMARK  Name = ZINC30243001
REMARK  10 active torsions:
REMARK  status: ('A' for Active; 'I' for Inactive)
REMARK    1  A    between atoms: C_1  and  N_2
REMARK    2  A    between atoms: N_2  and  C_3
REMARK    3  A    between atoms: N_2  and  C_4
REMARK    4  A    between atoms: C_4  and  C_5
REMARK    5  A    between atoms: C_4  and  C_21
REMARK    6  A    between atoms: C_5  and  N_6
REMARK    7  A    between atoms: C_7  and  C_9
REMARK    8  A    between atoms: C_9  and  C_10
REMARK    9  A    between atoms: C_9  and  N_17
REMARK   10  A    between atoms: C_10  and  C_11
REMARK                            x       y       z     vdW  Elec       q    Type
REMARK                         _______ _______ _______ _____ _____    ______ ____
ROOT
ATOM      1  N   UNL     1      -1.766   1.531  -1.169  0.00  0.00    -0.315 N 
ATOM      2  C   UNL     1      -2.260   2.263  -2.188  0.00  0.00    +0.234 C 
ATOM      3  O   UNL     1      -2.935   1.732  -3.045  0.00  0.00    -0.274 OA
ATOM      4  H   UNL     1      -1.227   1.956  -0.484  0.00  0.00    +0.149 HD
ENDROOT
BRANCH   1   5
ATOM      5  C   UNL     1      -2.044   0.095  -1.098  0.00  0.00    +0.093 C 
BRANCH   5   6
ATOM      6  C   UNL     1      -1.281  -0.514   0.081  0.00  0.00    -0.021 C 
BRANCH   6   7
ATOM      7  C   UNL     1      -1.799   0.070   1.370  0.00  0.00    -0.059 A 
ATOM      8  C   UNL     1      -2.967  -0.414   1.928  0.00  0.00    +0.002 A 
ATOM      9  C   UNL     1      -3.442   0.122   3.111  0.00  0.00    +0.000 A 
ATOM     10  C   UNL     1      -2.748   1.141   3.735  0.00  0.00    +0.000 A 
ATOM     11  C   UNL     1      -1.579   1.625   3.178  0.00  0.00    +0.000 A 
ATOM     12  C   UNL     1      -1.102   1.086   1.997  0.00  0.00    +0.002 A 
ENDBRANCH   6   7
BRANCH   6  14
ATOM     13  C   UNL     1      -0.970  -2.540  -1.166  0.00  0.00    -0.096 C 
ATOM     14  N   UNL     1      -1.476  -1.970   0.090  0.00  0.00    +0.382 N 
ATOM     15  C   UNL     1      -0.744  -2.555   1.222  0.00  0.00    -0.096 C 
ATOM     16  H   UNL     1      -2.459  -2.178   0.182  0.00  0.00    -0.082 HD
ENDBRANCH   6  14
ENDBRANCH   5   6
ENDBRANCH   1   5
BRANCH   2  17
ATOM     17  C   UNL     1      -1.974   3.741  -2.262  0.00  0.00    +0.165 C 
BRANCH  17  18
ATOM     18  N   UNL     1      -2.183   4.211  -3.634  0.00  0.00    -0.288 N 
ATOM     19  C   UNL     1      -3.394   4.084  -4.212  0.00  0.00    +0.298 C 
ATOM     20  O   UNL     1      -4.312   3.580  -3.595  0.00  0.00    -0.253 OA
ATOM     21  N   UNL     1      -3.586   4.516  -5.474  0.00  0.00    -0.313 N 
ATOM     22  H   UNL     1      -1.450   4.613  -4.125  0.00  0.00    +0.151 HD
ATOM     23  H   UNL     1      -2.853   4.918  -5.966  0.00  0.00    +0.146 HD
ATOM     24  H   UNL     1      -4.457   4.425  -5.890  0.00  0.00    +0.146 HD
ENDBRANCH  17  18
BRANCH  17  25
ATOM     25  C   UNL     1      -2.915   4.490  -1.317  0.00  0.00    +0.067 C 
BRANCH  25  26
ATOM     26  C   UNL     1      -2.549   5.952  -1.298  0.00  0.00    -0.045 A 
ATOM     27  C   UNL     1      -1.624   6.421  -0.384  0.00  0.00    +0.004 A 
ATOM     28  C   UNL     1      -1.288   7.762  -0.366  0.00  0.00    +0.000 A 
ATOM     29  C   UNL     1      -1.876   8.633  -1.263  0.00  0.00    +0.000 A 
ATOM     30  C   UNL     1      -2.801   8.164  -2.178  0.00  0.00    +0.000 A 
ATOM     31  C   UNL     1      -3.134   6.823  -2.198  0.00  0.00    +0.004 A 
ENDBRANCH  25  26
ENDBRANCH  17  25
ENDBRANCH   2  17
TORSDOF 8
