REMARK  Name = ZINC34747405
REMARK  6 active torsions:
REMARK  status: ('A' for Active; 'I' for Inactive)
REMARK    1  A    between atoms: C_1  and  C_2
REMARK    2  A    between atoms: C_2  and  C_3
REMARK    3  A    between atoms: C_2  and  C_4
REMARK    4  A    between atoms: C_4  and  N_5
REMARK    5  A    between atoms: N_18  and  C_21
REMARK    6  A    between atoms: C_21  and  C_22
REMARK                            x       y       z     vdW  Elec       q    Type
REMARK                         _______ _______ _______ _____ _____    ______ ____
ROOT
ATOM      1  N   UNL     1      -1.379  -1.570  -0.388  0.00  0.00    -0.280 N 
ATOM      2  C   UNL     1      -1.411  -2.022  -1.655  0.00  0.00    +0.264 A 
ATOM      3  O   UNL     1      -1.361  -1.243  -2.591  0.00  0.00    -0.267 OA
ATOM      4  C   UNL     1      -1.505  -3.431  -1.888  0.00  0.00    +0.076 A 
ATOM      5  C   UNL     1      -1.556  -4.138  -3.169  0.00  0.00    -0.023 A 
ATOM      6  C   UNL     1      -1.644  -5.482  -3.123  0.00  0.00    -0.004 A 
ATOM      7  S   UNL     1      -1.665  -5.884  -1.397  0.00  0.00    -0.073 S 
ATOM      8  C   UNL     1      -1.556  -4.239  -0.739  0.00  0.00    +0.117 A 
ATOM      9  N   UNL     1      -1.520  -3.727   0.486  0.00  0.00    -0.208 NA
ATOM     10  C   UNL     1      -1.428  -2.427   0.672  0.00  0.00    +0.202 A 
ATOM     11  N   UNL     1      -1.386  -1.927   1.949  0.00  0.00    -0.304 N 
ATOM     12  C   UNL     1      -2.624  -1.595   2.672  0.00  0.00    +0.089 C 
ATOM     13  C   UNL     1      -2.573  -2.260   4.052  0.00  0.00    -0.059 C 
ATOM     14  N   UNL     1      -1.341  -1.858   4.743  0.00  0.00    +0.387 N 
ATOM     15  C   UNL     1      -0.172  -2.367   4.016  0.00  0.00    -0.059 C 
ATOM     16  C   UNL     1      -0.103  -1.713   2.637  0.00  0.00    +0.089 C 
ATOM     17  C   UNL     1      -1.712  -6.428  -4.283  0.00  0.00    +0.043 C 
ATOM     18  C   UNL     1      -2.040  -5.621  -5.548  0.00  0.00    +0.005 C 
ATOM     19  C   UNL     1      -1.120  -4.398  -5.601  0.00  0.00    +0.005 C 
ATOM     20  C   UNL     1      -1.512  -3.405  -4.507  0.00  0.00    +0.037 C 
ATOM     21  H   UNL     1      -1.296  -0.851   4.788  0.00  0.00    -0.081 HD
ENDROOT
BRANCH   1  22
ATOM     22  C   UNL     1      -1.283  -0.129  -0.142  0.00  0.00    +0.131 C 
BRANCH  22  24
ATOM     23  C   UNL     1      -2.577   1.916   0.481  0.00  0.00    +0.009 C 
ATOM     24  C   UNL     1      -2.685   0.448   0.063  0.00  0.00    +0.003 C 
ATOM     25  C   UNL     1      -3.474   0.347  -1.244  0.00  0.00    +0.009 C 
ENDBRANCH  22  24
ENDBRANCH   1  22
BRANCH  14  26
ATOM     26  C   UNL     1      -1.346  -2.406   6.106  0.00  0.00    +0.018 C 
BRANCH  26  27
ATOM     27  C   UNL     1      -0.143  -1.895   6.857  0.00  0.00    +0.194 C 
ATOM     28  O   UNL     1       0.640  -1.147   6.310  0.00  0.00    -0.278 OA
ATOM     29  N   UNL     1       0.062  -2.268   8.135  0.00  0.00    -0.331 N 
ATOM     30  H   UNL     1      -0.565  -2.866   8.572  0.00  0.00    +0.145 HD
ATOM     31  H   UNL     1       0.836  -1.939   8.619  0.00  0.00    +0.145 HD
ENDBRANCH  26  27
ENDBRANCH  14  26
TORSDOF 4
