REMARK  Name = ZINC64335736
REMARK  9 active torsions:
REMARK  status: ('A' for Active; 'I' for Inactive)
REMARK    1  A    between atoms: C_1  and  C_2
REMARK    2  A    between atoms: C_3  and  C_13
REMARK    3  A    between atoms: C_4  and  C_12
REMARK    4  A    between atoms: C_9  and  O_11
REMARK    5  A    between atoms: C_13  and  C_14
REMARK    6  A    between atoms: C_14  and  C_15
REMARK    7  A    between atoms: N_17  and  C_18
REMARK    8  A    between atoms: C_18  and  C_19
REMARK    9  A    between atoms: C_20  and  C_21
REMARK                            x       y       z     vdW  Elec       q    Type
REMARK                         _______ _______ _______ _____ _____    ______ ____
ROOT
ATOM      1  C   UNL     1      -2.521   0.014   0.015  0.00  0.00    +0.048 C 
ENDROOT
BRANCH   1   4
ATOM      2  C   UNL     1      -0.018   1.503   0.010  0.00  0.00    +0.066 C 
ATOM      3  C   UNL     1       0.002  -0.004   0.002  0.00  0.00    +0.045 A 
ATOM      4  C   UNL     1      -1.204  -0.719   0.004  0.00  0.00    -0.005 A 
ATOM      5  C   UNL     1      -1.176  -2.074  -0.004  0.00  0.00    +0.047 A 
ATOM      6  N   UNL     1       0.029  -2.714  -0.014  0.00  0.00    -0.215 N 
ATOM      7  C   UNL     1       1.189  -1.982  -0.015  0.00  0.00    +0.160 A 
ATOM      8  N   UNL     1       1.149  -0.642  -0.012  0.00  0.00    -0.233 NA
ATOM      9  C   UNL     1       2.240  -2.888  -0.026  0.00  0.00    +0.116 A 
ATOM     10  C   UNL     1       1.693  -4.167  -0.030  0.00  0.00    +0.234 A 
ATOM     11  N   UNL     1       0.380  -4.068  -0.023  0.00  0.00    -0.127 NA
ATOM     12  C   UNL     1      -2.459  -2.864  -0.002  0.00  0.00    +0.066 C 
BRANCH  10  13
ATOM     13  O   UNL     1       2.399  -5.329  -0.041  0.00  0.00    -0.491 OA
ATOM     14  H   UNL     1       2.607  -5.670   0.839  0.00  0.00    +0.294 HD
ENDBRANCH  10  13
ENDBRANCH   1   4
BRANCH   1  15
ATOM     15  C   UNL     1      -2.898   0.363   1.456  0.00  0.00    +0.100 C 
BRANCH  15  16
ATOM     16  C   UNL     1      -4.215   1.096   1.467  0.00  0.00    +0.214 C 
ATOM     17  O   UNL     1      -4.795   1.317   0.425  0.00  0.00    -0.276 OA
ATOM     18  N   UNL     1      -4.748   1.505   2.635  0.00  0.00    -0.304 N 
ATOM     19  H   UNL     1      -4.285   1.328   3.469  0.00  0.00    +0.150 HD
BRANCH  18  20
ATOM     20  C   UNL     1      -6.029   2.217   2.646  0.00  0.00    +0.194 C 
BRANCH  20  21
ATOM     21  C   UNL     1      -6.392   2.553   4.033  0.00  0.00    -0.078 C 
ATOM     22  C   UNL     1      -6.681   2.821   5.139  0.00  0.00    -0.065 C 
BRANCH  22  23
ATOM     23  C   UNL     1      -7.034   3.147   6.487  0.00  0.00    +0.025 A 
ATOM     24  C   UNL     1      -6.191   2.788   7.539  0.00  0.00    +0.017 A 
ATOM     25  C   UNL     1      -6.536   3.106   8.836  0.00  0.00    +0.001 A 
ATOM     26  C   UNL     1      -7.716   3.780   9.096  0.00  0.00    +0.000 A 
ATOM     27  C   UNL     1      -8.557   4.140   8.057  0.00  0.00    +0.001 A 
ATOM     28  C   UNL     1      -8.220   3.832   6.755  0.00  0.00    +0.017 A 
ENDBRANCH  22  23
ENDBRANCH  20  21
ENDBRANCH  18  20
ENDBRANCH  15  16
ENDBRANCH   1  15
TORSDOF 7
