REMARK  Name = ZINC00162903
REMARK  6 active torsions:
REMARK  status: ('A' for Active; 'I' for Inactive)
REMARK    1  A    between atoms: C_1  and  C_2
REMARK    2  A    between atoms: C_2  and  C_3
REMARK    3  A    between atoms: C_3  and  C_4
REMARK    4  A    between atoms: C_5  and  O_17
REMARK    5  A    between atoms: C_11  and  C_15
REMARK    6  A    between atoms: C_11  and  C_16
REMARK                            x       y       z     vdW  Elec       q    Type
REMARK                         _______ _______ _______ _____ _____    ______ ____
ROOT
ATOM      1  C   UNL     1      -0.718   1.572   1.248  0.00  0.00    +0.036 A 
ATOM      2  C   UNL     1      -1.723   0.806   1.821  0.00  0.00    +0.124 A 
ATOM      3  C   UNL     1      -2.382   1.244   2.966  0.00  0.00    +0.046 A 
ATOM      4  C   UNL     1      -2.047   2.438   3.539  0.00  0.00    +0.018 A 
ATOM      5  C   UNL     1      -1.037   3.221   2.972  0.00  0.00    +0.060 A 
ATOM      6  C   UNL     1      -0.360   2.781   1.821  0.00  0.00    +0.138 A 
ATOM      7  O   UNL     1       0.624   3.527   1.268  0.00  0.00    -0.485 OA
ATOM      8  C   UNL     1       0.660   4.928   1.540  0.00  0.00    +0.112 C 
ATOM      9  C   UNL     1       0.614   5.152   3.058  0.00  0.00    +0.127 C 
ATOM     10  C   UNL     1      -0.665   4.513   3.568  0.00  0.00    +0.170 C 
ATOM     11  O   UNL     1      -1.345   5.041   4.423  0.00  0.00    -0.292 OA
ATOM     12  C   UNL     1      -0.547   5.606   0.887  0.00  0.00    +0.056 C 
ATOM     13  C   UNL     1       1.949   5.526   0.974  0.00  0.00    +0.056 C 
ENDROOT
BRANCH   2  14
ATOM     14  O   UNL     1      -2.067  -0.380   1.260  0.00  0.00    -0.506 OA
ATOM     15  H   UNL     1      -1.568  -1.136   1.599  0.00  0.00    +0.292 HD
ENDBRANCH   2  14
BRANCH   1  16
ATOM     16  C   UNL     1      -0.013   1.086   0.008  0.00  0.00    +0.042 C 
BRANCH  16  18
ATOM     17  C   UNL     1      -0.037   1.099  -2.490  0.00  0.00    +0.004 C 
ATOM     18  C   UNL     1      -0.753   1.593  -1.232  0.00  0.00    +0.001 C 
ENDBRANCH  16  18
ENDBRANCH   1  16
TORSDOF 3
