REMARK  Name = ZINC08969729
REMARK  4 active torsions:
REMARK  status: ('A' for Active; 'I' for Inactive)
REMARK    1  A    between atoms: C_1  and  O_2
REMARK    2  A    between atoms: O_2  and  C_3
REMARK    3  A    between atoms: C_6  and  C_9
REMARK    4  A    between atoms: C_12  and  C_33
REMARK                            x       y       z     vdW  Elec       q    Type
REMARK                         _______ _______ _______ _____ _____    ______ ____
ROOT
ATOM      1  C   UNL     1      -4.981  -2.629   0.035  0.00  0.00    +0.143 C 
ATOM      2  C   UNL     1      -5.087  -3.514   1.283  0.00  0.00    +0.058 C 
ATOM      3  C   UNL     1      -6.308  -4.434   1.163  0.00  0.00    +0.106 C 
ATOM      4  N   UNL     1      -6.117  -5.320  -0.002  0.00  0.00    -0.307 N 
ATOM      5  C   UNL     1      -5.627  -4.721  -1.155  0.00  0.00    +0.216 A 
ATOM      6  N   UNL     1      -5.100  -3.471  -1.155  0.00  0.00    -0.224 N 
ATOM      7  N   UNL     1      -4.719  -3.196  -2.470  0.00  0.00    -0.131 NA
ATOM      8  C   UNL     1      -5.024  -4.258  -3.182  0.00  0.00    +0.251 A 
ATOM      9  N   UNL     1      -5.572  -5.185  -2.374  0.00  0.00    -0.179 NA
ATOM     10  N   UNL     1      -4.807  -4.403  -4.558  0.00  0.00    -0.176 N 
ATOM     11  C   UNL     1      -4.242  -3.445  -5.319  0.00  0.00    +0.233 C 
ATOM     12  O   UNL     1      -3.675  -2.451  -4.919  0.00  0.00    -0.274 OA
ATOM     13  C   UNL     1      -4.452  -3.847  -6.788  0.00  0.00    +0.092 C 
ATOM     14  C   UNL     1      -5.808  -3.249  -7.168  0.00  0.00    +0.040 C 
ATOM     15  C   UNL     1      -6.579  -4.093  -8.123  0.00  0.00    -0.030 C 
ATOM     16  C   UNL     1      -6.348  -5.342  -8.357  0.00  0.00    -0.030 C 
ATOM     17  C   UNL     1      -5.225  -6.102  -7.725  0.00  0.00    +0.040 C 
ATOM     18  C   UNL     1      -4.535  -5.372  -6.610  0.00  0.00    +0.092 C 
ATOM     19  C   UNL     1      -5.140  -5.519  -5.244  0.00  0.00    +0.233 C 
ATOM     20  O   UNL     1      -5.798  -6.453  -4.837  0.00  0.00    -0.274 OA
ATOM     21  H   UNL     1      -6.323  -6.267   0.035  0.00  0.00    +0.149 HD
ENDROOT
BRANCH   1  25
ATOM     22  C   UNL     1      -1.200  -0.637   0.010  0.00  0.00    +0.120 A 
ATOM     23  C   UNL     1      -2.375   0.101   0.019  0.00  0.00    +0.046 A 
ATOM     24  C   UNL     1      -3.596  -0.545   0.027  0.00  0.00    +0.009 A 
ATOM     25  C   UNL     1      -3.648  -1.927   0.026  0.00  0.00    -0.023 A 
ATOM     26  C   UNL     1      -2.479  -2.665   0.017  0.00  0.00    +0.009 A 
ATOM     27  C   UNL     1      -1.255  -2.024   0.003  0.00  0.00    +0.046 A 
BRANCH  22  29
ATOM     28  C   UNL     1      -0.017   1.425   0.010  0.00  0.00    +0.277 C 
ATOM     29  O   UNL     1       0.002  -0.004   0.002  0.00  0.00    -0.495 OA
ENDBRANCH  22  29
ENDBRANCH   1  25
BRANCH   3  30
ATOM     30  C   UNL     1      -6.443  -5.261   2.415  0.00  0.00    -0.027 A 
ATOM     31  C   UNL     1      -5.655  -6.383   2.591  0.00  0.00    +0.005 A 
ATOM     32  C   UNL     1      -5.779  -7.141   3.740  0.00  0.00    +0.000 A 
ATOM     33  C   UNL     1      -6.691  -6.779   4.713  0.00  0.00    +0.000 A 
ATOM     34  C   UNL     1      -7.479  -5.657   4.537  0.00  0.00    +0.000 A 
ATOM     35  C   UNL     1      -7.352  -4.895   3.390  0.00  0.00    +0.005 A 
ENDBRANCH   3  30
TORSDOF 3
