REMARK  Name = ZINC32933176
REMARK  6 active torsions:
REMARK  status: ('A' for Active; 'I' for Inactive)
REMARK    1  A    between atoms: C_9  and  C_11
REMARK    2  A    between atoms: N_13  and  N_14
REMARK    3  A    between atoms: C_15  and  C_17
REMARK    4  A    between atoms: C_20  and  O_34
REMARK    5  A    between atoms: C_24  and  C_26
REMARK    6  A    between atoms: C_26  and  C_27
REMARK                            x       y       z     vdW  Elec       q    Type
REMARK                         _______ _______ _______ _____ _____    ______ ____
ROOT
ATOM      1  N   UNL     1      -1.191   1.867   0.018  0.00  0.00    -0.233 N 
ATOM      2  C   UNL     1      -0.014   1.209   0.009  0.00  0.00    +0.250 C 
ATOM      3  O   UNL     1       0.002  -0.004   0.002  0.00  0.00    -0.272 OA
ATOM      4  H   UNL     1      -1.206   2.966   0.024  0.00  0.00    +0.173 HD
ENDROOT
BRANCH   2   5
ATOM      5  C   UNL     1       1.280   1.980   0.001  0.00  0.00    +0.166 C 
ATOM      6  C   UNL     1       1.616   2.457   1.429  0.00  0.00    +0.065 C 
ATOM      7  C   UNL     1       3.156   2.282   1.501  0.00  0.00    +0.134 C 
ATOM      8  C   UNL     1       3.363   1.001   0.655  0.00  0.00    +0.140 C 
ATOM      9  N   UNL     1       2.379   1.107  -0.438  0.00  0.00    -0.287 N 
ATOM     10  C   UNL     1       2.472   0.504  -1.639  0.00  0.00    +0.221 C 
ATOM     11  O   UNL     1       1.600   0.663  -2.466  0.00  0.00    -0.275 OA
BRANCH   7  12
ATOM     12  O   UNL     1       3.586   2.080   2.849  0.00  0.00    -0.390 OA
ATOM     13  H   UNL     1       4.654   1.939   3.071  0.00  0.00    +0.210 HD
ENDBRANCH   7  12
BRANCH  10  14
ATOM     14  C   UNL     1       3.660  -0.368  -1.955  0.00  0.00    +0.134 C 
BRANCH  14  15
ATOM     15  C   UNL     1       3.523  -0.918  -3.351  0.00  0.00    -0.003 A 
ATOM     16  C   UNL     1       2.974  -2.171  -3.549  0.00  0.00    +0.007 A 
ATOM     17  C   UNL     1       2.843  -2.674  -4.830  0.00  0.00    +0.000 A 
ATOM     18  C   UNL     1       3.269  -1.929  -5.914  0.00  0.00    +0.003 A 
ATOM     19  C   UNL     1       3.823  -0.678  -5.718  0.00  0.00    +0.038 A 
ATOM     20  C   UNL     1       3.950  -0.171  -4.435  0.00  0.00    +0.127 A 
ATOM     21  F   UNL     1       4.492   1.051  -4.242  0.00  0.00    -0.205 F 
ENDBRANCH  14  15
ENDBRANCH  10  14
ENDBRANCH   2   5
BRANCH   1  24
ATOM     22  C   UNL     1      -3.571   1.808   0.029  0.00  0.00    +0.278 C 
ATOM     23  O   UNL     1      -3.587   3.022   0.035  0.00  0.00    -0.267 OA
ATOM     24  N   UNL     1      -2.394   1.150   0.020  0.00  0.00    -0.229 N 
ATOM     25  H   UNL     1      -2.379   0.050   0.014  0.00  0.00    +0.173 HD
BRANCH  22  34
ATOM     26  C   UNL     1      -8.280  -2.472   0.026  0.00  0.00    +0.001 A 
ATOM     27  C   UNL     1      -7.042  -3.112   0.017  0.00  0.00    +0.002 A 
ATOM     28  C   UNL     1      -5.883  -2.400   0.016  0.00  0.00    +0.028 A 
ATOM     29  C   UNL     1      -5.929  -0.992   0.024  0.00  0.00    +0.072 A 
ATOM     30  C   UNL     1      -7.191  -0.344   0.033  0.00  0.00    +0.000 A 
ATOM     31  C   UNL     1      -8.366  -1.113   0.035  0.00  0.00    +0.010 A 
ATOM     32  C   UNL     1      -7.239   1.063   0.042  0.00  0.00    +0.012 A 
ATOM     33  C   UNL     1      -6.059   1.750   0.040  0.00  0.00    +0.034 A 
ATOM     34  C   UNL     1      -4.844   1.049   0.031  0.00  0.00    +0.127 A 
ATOM     35  N   UNL     1      -4.809  -0.270   0.018  0.00  0.00    -0.242 NA
ENDBRANCH  22  34
ENDBRANCH   1  24
TORSDOF 6
