REMARK  Name = ZINC46585912
REMARK  7 active torsions:
REMARK  status: ('A' for Active; 'I' for Inactive)
REMARK    1  A    between atoms: C_1  and  C_2
REMARK    2  A    between atoms: C_4  and  C_33
REMARK    3  A    between atoms: C_8  and  N_32
REMARK    4  A    between atoms: C_9  and  C_11
REMARK    5  A    between atoms: C_11  and  O_13
REMARK    6  A    between atoms: O_13  and  C_14
REMARK    7  A    between atoms: C_14  and  C_15
REMARK                            x       y       z     vdW  Elec       q    Type
REMARK                         _______ _______ _______ _____ _____    ______ ____
ROOT
ATOM      1  C   UNL     1       1.173  -1.991   6.848  0.00  0.00    +0.328 C 
ENDROOT
BRANCH   1   2
ATOM      2  C   UNL     1       1.661  -3.274   7.470  0.00  0.00    +0.258 C 
ATOM      3  O   UNL     1       1.833  -4.256   6.779  0.00  0.00    -0.271 OA
ATOM      4  N   UNL     1       1.906  -3.331   8.794  0.00  0.00    -0.252 N 
ATOM      5  C   UNL     1       2.047  -2.159   9.555  0.00  0.00    +0.059 A 
ATOM      6  C   UNL     1       2.508  -0.988   8.980  0.00  0.00    +0.025 A 
ATOM      7  C   UNL     1       2.639   0.152   9.754  0.00  0.00    +0.002 A 
ATOM      8  C   UNL     1       2.313   0.120  11.098  0.00  0.00    +0.002 A 
ATOM      9  C   UNL     1       1.852  -1.047  11.678  0.00  0.00    +0.025 A 
ATOM     10  C   UNL     1       1.714  -2.192  10.910  0.00  0.00    +0.055 A 
ATOM     11  N   UNL     1       1.240  -3.379  11.480  0.00  0.00    -0.282 N 
ATOM     12  C   UNL     1       1.353  -4.551  10.824  0.00  0.00    +0.241 C 
ATOM     13  O   UNL     1       0.902  -5.562  11.319  0.00  0.00    -0.273 OA
ATOM     14  C   UNL     1       2.028  -4.618   9.486  0.00  0.00    +0.118 C 
ATOM     15  C   UNL     1       3.514  -4.974   9.667  0.00  0.00    +0.036 C 
ATOM     16  C   UNL     1       3.563  -6.508   9.455  0.00  0.00    +0.003 C 
ATOM     17  C   UNL     1       2.533  -6.731   8.319  0.00  0.00    +0.003 C 
ATOM     18  C   UNL     1       1.401  -5.730   8.634  0.00  0.00    +0.036 C 
ATOM     19  H   UNL     1       0.825  -3.358  12.357  0.00  0.00    +0.155 HD
ENDBRANCH   1   2
BRANCH   1  20
ATOM     20  O   UNL     1       0.727  -2.247   5.515  0.00  0.00    -0.451 OA
BRANCH  20  21
ATOM     21  C   UNL     1       0.256  -1.195   4.813  0.00  0.00    +0.348 C 
ATOM     22  O   UNL     1       0.226  -0.089   5.322  0.00  0.00    -0.244 OA
BRANCH  21  31
ATOM     23  C   UNL     1      -1.896   1.393   0.421  0.00  0.00    +0.044 C 
ATOM     24  C   UNL     1      -1.669  -0.086   0.242  0.00  0.00    -0.037 A 
ATOM     25  C   UNL     1      -1.983  -0.702  -0.946  0.00  0.00    +0.025 A 
ATOM     26  C   UNL     1      -1.773  -2.063  -1.108  0.00  0.00    +0.014 A 
ATOM     27  N   UNL     1      -1.269  -2.784  -0.125  0.00  0.00    -0.353 N 
ATOM     28  C   UNL     1      -0.952  -2.241   1.030  0.00  0.00    +0.088 A 
ATOM     29  C   UNL     1      -1.122  -0.862   1.294  0.00  0.00    +0.030 A 
ATOM     30  C   UNL     1      -0.713  -0.432   2.622  0.00  0.00    +0.055 A 
ATOM     31  C   UNL     1      -0.202  -1.377   3.487  0.00  0.00    +0.119 A 
ATOM     32  S   UNL     1      -0.270  -2.884   2.539  0.00  0.00    -0.062 S 
ATOM     33  C   UNL     1      -2.123  -2.724  -2.417  0.00  0.00    +0.063 C 
ATOM     34  H   UNL     1      -1.129  -3.734  -0.257  0.00  0.00    +0.166 HD
BRANCH  30  35
ATOM     35  N   UNL     1      -0.832   0.895   3.009  0.00  0.00    -0.356 N 
ATOM     36  H   UNL     1      -1.143   1.559   2.373  0.00  0.00    +0.142 HD
ATOM     37  H   UNL     1      -0.606   1.159   3.914  0.00  0.00    +0.142 HD
ENDBRANCH  30  35
ENDBRANCH  21  31
ENDBRANCH  20  21
ENDBRANCH   1  20
TORSDOF 5
