REMARK  Name = ZINC31904323
REMARK  5 active torsions:
REMARK  status: ('A' for Active; 'I' for Inactive)
REMARK    1  A    between atoms: C_6  and  C_7
REMARK    2  A    between atoms: N_12  and  N_13
REMARK    3  A    between atoms: C_14  and  C_15
REMARK    4  A    between atoms: C_18  and  O_22
REMARK    5  A    between atoms: C_20  and  O_21
REMARK                            x       y       z     vdW  Elec       q    Type
REMARK                         _______ _______ _______ _____ _____    ______ ____
ROOT
ATOM      1  C   UNL     1      -1.520  -0.778   1.850  0.00  0.00    +0.080 A 
ATOM      2  C   UNL     1      -1.388  -2.079   1.453  0.00  0.00    +0.077 A 
ATOM      3  S   UNL     1      -3.045  -2.418   0.872  0.00  0.00    -0.059 S 
ATOM      4  C   UNL     1      -3.736  -0.805   1.215  0.00  0.00    +0.178 A 
ATOM      5  N   UNL     1      -2.692  -0.175   1.725  0.00  0.00    -0.224 NA
ATOM      6  N   UNL     1      -5.023  -0.341   1.006  0.00  0.00    -0.215 N 
ATOM      7  H   UNL     1      -5.255   0.570   1.244  0.00  0.00    +0.176 HD
ENDROOT
BRANCH   1  13
ATOM      8  C   UNL     1      -0.500   1.276   2.829  0.00  0.00    +0.013 A 
ATOM      9  C   UNL     1       0.581   1.950   3.360  0.00  0.00    +0.039 A 
ATOM     10  C   UNL     1       1.803   1.310   3.488  0.00  0.00    +0.123 A 
ATOM     11  C   UNL     1       1.947  -0.007   3.083  0.00  0.00    +0.039 A 
ATOM     12  C   UNL     1       0.872  -0.688   2.551  0.00  0.00    +0.013 A 
ATOM     13  C   UNL     1      -0.360  -0.050   2.421  0.00  0.00    +0.001 A 
ATOM     14  F   UNL     1       2.859   1.974   4.008  0.00  0.00    -0.205 F 
ENDBRANCH   1  13
BRANCH   6  15
ATOM     15  N   UNL     1      -5.991  -1.188   0.449  0.00  0.00    -0.188 NA
ATOM     16  C   UNL     1      -7.167  -0.723   0.153  0.00  0.00    +0.142 C 
BRANCH  16  17
ATOM     17  C   UNL     1      -7.407   0.731   0.158  0.00  0.00    +0.036 A 
ATOM     18  C   UNL     1      -6.349   1.617  -0.059  0.00  0.00    +0.016 A 
ATOM     19  C   UNL     1      -6.578   2.976  -0.053  0.00  0.00    +0.046 A 
ATOM     20  C   UNL     1      -7.859   3.469   0.167  0.00  0.00    +0.120 A 
ATOM     21  C   UNL     1      -8.916   2.597   0.384  0.00  0.00    +0.091 A 
ATOM     22  C   UNL     1      -8.700   1.230   0.374  0.00  0.00    +0.129 A 
BRANCH  22  23
ATOM     23  O   UNL     1      -9.735   0.375   0.580  0.00  0.00    -0.506 OA
ATOM     24  H   UNL     1      -9.833   0.090   1.499  0.00  0.00    +0.292 HD
ENDBRANCH  22  23
BRANCH  20  25
ATOM     25  O   UNL     1      -8.076   4.810   0.172  0.00  0.00    -0.507 OA
ATOM     26  H   UNL     1      -8.298   5.175  -0.696  0.00  0.00    +0.292 HD
ENDBRANCH  20  25
ENDBRANCH  16  17
ENDBRANCH   6  15
TORSDOF 5
