REMARK  Name = ZINC49463912
REMARK  5 active torsions:
REMARK  status: ('A' for Active; 'I' for Inactive)
REMARK    1  A    between atoms: C_1  and  C_2
REMARK    2  A    between atoms: C_5  and  C_30
REMARK    3  A    between atoms: C_6  and  S_8
REMARK    4  A    between atoms: S_8  and  N_11
REMARK    5  A    between atoms: N_11  and  C_12
REMARK                            x       y       z     vdW  Elec       q    Type
REMARK                         _______ _______ _______ _____ _____    ______ ____
ROOT
ATOM      1  C   UNL     1      -1.903  -4.912   2.613  0.00  0.00    +0.049 A 
ATOM      2  C   UNL     1      -1.933  -4.897   1.222  0.00  0.00    +0.028 A 
ATOM      3  C   UNL     1      -2.371  -6.007   0.525  0.00  0.00    +0.048 A 
ATOM      4  C   UNL     1      -2.779  -7.138   1.210  0.00  0.00    +0.133 A 
ATOM      5  C   UNL     1      -2.748  -7.167   2.611  0.00  0.00    +0.080 A 
ATOM      6  C   UNL     1      -2.302  -6.039   3.308  0.00  0.00    +0.041 A 
ATOM      7  C   UNL     1      -3.164  -8.370   3.346  0.00  0.00    +0.250 C 
ATOM      8  O   UNL     1      -4.059  -8.290   4.165  0.00  0.00    -0.270 OA
ATOM      9  N   UNL     1      -2.571  -9.561   3.128  0.00  0.00    -0.294 N 
ATOM     10  C   UNL     1      -3.095 -10.753   3.796  0.00  0.00    +0.108 C 
ATOM     11  C   UNL     1      -1.947 -11.553   4.410  0.00  0.00    +0.019 C 
ATOM     12  C   UNL     1      -0.894 -11.833   3.335  0.00  0.00    +0.003 C 
ATOM     13  C   UNL     1      -0.319 -10.515   2.825  0.00  0.00    +0.023 C 
ATOM     14  C   UNL     1      -1.417  -9.639   2.236  0.00  0.00    +0.080 C 
ATOM     15  C   UNL     1      -1.854 -10.207   0.882  0.00  0.00    +0.063 C 
ATOM     16  C   UNL     1      -2.218  -9.062  -0.061  0.00  0.00    +0.231 C 
ATOM     17  O   UNL     1      -3.219  -8.234   0.534  0.00  0.00    -0.491 OA
ENDROOT
BRANCH   1  18
ATOM     18  N   UNL     1      -1.460  -3.783   3.311  0.00  0.00    -0.216 N 
ATOM     19  H   UNL     1      -1.964  -3.456   4.073  0.00  0.00    +0.174 HD
BRANCH  18  20
ATOM     20  S   UNL     1      -0.077  -3.005   2.837  0.00  0.00    +0.073 S 
ATOM     21  O   UNL     1       0.164  -1.985   3.797  0.00  0.00    -0.150 OA
ATOM     22  O   UNL     1      -0.222  -2.728   1.451  0.00  0.00    -0.150 OA
BRANCH  20  28
ATOM     23  C   UNL     1       3.705  -5.941   0.742  0.00  0.00    +0.044 C 
ATOM     24  C   UNL     1       2.964  -5.484   1.972  0.00  0.00    -0.049 A 
ATOM     25  C   UNL     1       3.322  -5.970   3.215  0.00  0.00    +0.004 A 
ATOM     26  C   UNL     1       2.642  -5.551   4.343  0.00  0.00    +0.005 A 
ATOM     27  C   UNL     1       1.604  -4.645   4.228  0.00  0.00    -0.024 A 
ATOM     28  C   UNL     1       1.246  -4.159   2.984  0.00  0.00    +0.112 A 
ATOM     29  C   UNL     1       1.929  -4.575   1.857  0.00  0.00    +0.032 A 
ATOM     30  C   UNL     1       0.862  -4.189   5.457  0.00  0.00    +0.046 C 
ENDBRANCH  20  28
ENDBRANCH  18  20
ENDBRANCH   1  18
TORSDOF 3
