REMARK  Name = ZINC06906115
REMARK  6 active torsions:
REMARK  status: ('A' for Active; 'I' for Inactive)
REMARK    1  A    between atoms: C_1  and  C_2
REMARK    2  A    between atoms: C_2  and  C_3
REMARK    3  A    between atoms: C_2  and  C_4
REMARK    4  A    between atoms: C_2  and  N_5
REMARK    5  A    between atoms: C_10  and  C_27
REMARK    6  A    between atoms: C_27  and  C_28
REMARK                            x       y       z     vdW  Elec       q    Type
REMARK                         _______ _______ _______ _____ _____    ______ ____
ROOT
ATOM      1  N   UNL     1      -0.622   2.931  -3.032  0.00  0.00    -0.236 N 
ATOM      2  C   UNL     1      -0.050   1.797  -2.527  0.00  0.00    +0.224 C 
ATOM      3  O   UNL     1       0.855   1.156  -3.017  0.00  0.00    -0.275 OA
ATOM      4  C   UNL     1      -0.768   1.509  -1.248  0.00  0.00    +0.073 C 
ATOM      5  C   UNL     1      -0.013   1.086   0.008  0.00  0.00    -0.049 C 
ATOM      6  C   UNL     1      -1.514   2.901   0.540  0.00  0.00    +0.050 C 
ATOM      7  C   UNL     1      -1.012   3.012  -0.833  0.00  0.00    +0.088 C 
ATOM      8  C   UNL     1      -1.371   3.607  -2.101  0.00  0.00    +0.225 C 
ATOM      9  O   UNL     1      -2.161   4.505  -2.298  0.00  0.00    -0.275 OA
ATOM     10  C   UNL     1      -3.005   2.714   0.650  0.00  0.00    -0.026 A 
ATOM     11  C   UNL     1      -3.885   1.805   0.105  0.00  0.00    +0.004 A 
ATOM     12  C   UNL     1      -5.235   1.886   0.398  0.00  0.00    +0.002 A 
ATOM     13  C   UNL     1      -5.698   2.881   1.238  0.00  0.00    +0.022 A 
ATOM     14  C   UNL     1      -4.821   3.795   1.786  0.00  0.00    +0.062 A 
ATOM     15  C   UNL     1      -3.459   3.719   1.496  0.00  0.00    +0.054 A 
ATOM     16  N   UNL     1      -2.391   4.512   1.920  0.00  0.00    -0.285 N 
ATOM     17  C   UNL     1      -1.218   4.101   1.407  0.00  0.00    +0.211 C 
ATOM     18  O   UNL     1      -0.129   4.599   1.603  0.00  0.00    -0.277 OA
ATOM     19 CL   UNL     1      -5.414   5.041   2.839  0.00  0.00    -0.082 Cl
ATOM     20  H   UNL     1      -2.484   5.272   2.516  0.00  0.00    +0.155 HD
ATOM     21  N   UNL     1      -0.817   1.709   1.099  0.00  0.00    +0.394 N 
ATOM     22  H   UNL     1      -0.198   1.997   1.866  0.00  0.00    -0.083 HD
ATOM     23  H   UNL     1      -1.507   1.036   1.450  0.00  0.00    -0.083 HD
ENDROOT
BRANCH   1  25
ATOM     24  C   UNL     1       0.438   2.388  -5.168  0.00  0.00    +0.031 C 
ATOM     25  C   UNL     1      -0.455   3.378  -4.417  0.00  0.00    +0.036 C 
ATOM     26  C   UNL     1      -1.823   3.448  -5.099  0.00  0.00    +0.031 C 
ATOM     27  C   UNL     1       0.194   4.763  -4.432  0.00  0.00    +0.031 C 
ENDBRANCH   1  25
BRANCH   5  28
ATOM     28  C   UNL     1       1.411   1.645  -0.003  0.00  0.00    +0.080 C 
BRANCH  28  29
ATOM     29  C   UNL     1       2.174   1.099   1.177  0.00  0.00    +0.209 C 
ATOM     30  O   UNL     1       1.632   0.337   1.950  0.00  0.00    -0.276 OA
ATOM     31  N   UNL     1       3.459   1.456   1.373  0.00  0.00    -0.329 N 
ATOM     32  H   UNL     1       3.893   2.065   0.754  0.00  0.00    +0.145 HD
ATOM     33  H   UNL     1       3.950   1.105   2.132  0.00  0.00    +0.145 HD
ENDBRANCH  28  29
ENDBRANCH   5  28
TORSDOF 3
