REMARK  Name = ZINC35238973
REMARK  11 active torsions:
REMARK  status: ('A' for Active; 'I' for Inactive)
REMARK    1  A    between atoms: C_1  and  C_2
REMARK    2  A    between atoms: C_2  and  C_3
REMARK    3  A    between atoms: C_3  and  C_4
REMARK    4  A    between atoms: N_11  and  N_12
REMARK    5  A    between atoms: C_13  and  C_14
REMARK    6  A    between atoms: C_23  and  O_24
REMARK    7  A    between atoms: O_24  and  S_25
REMARK    8  A    between atoms: S_25  and  C_28
REMARK    9  A    between atoms: C_31  and  O_34
REMARK   10  A    between atoms: O_34  and  C_35
REMARK   11  A    between atoms: C_35  and  C_36
REMARK                            x       y       z     vdW  Elec       q    Type
REMARK                         _______ _______ _______ _____ _____    ______ ____
ROOT
ATOM      1  C   UNL     1      -5.451  -6.253  -4.558  0.00  0.00    +0.047 A 
ATOM      2  C   UNL     1      -5.754  -7.041  -5.752  0.00  0.00    -0.006 A 
ATOM      3  C   UNL     1      -4.811  -7.213  -6.772  0.00  0.00    +0.009 A 
ATOM      4  C   UNL     1      -5.133  -7.955  -7.869  0.00  0.00    +0.001 A 
ATOM      5  C   UNL     1      -6.389  -8.547  -7.989  0.00  0.00    +0.001 A 
ATOM      6  C   UNL     1      -7.329  -8.399  -7.015  0.00  0.00    +0.008 A 
ATOM      7  C   UNL     1      -7.031  -7.641  -5.870  0.00  0.00    -0.017 A 
ATOM      8  C   UNL     1      -7.976  -7.467  -4.844  0.00  0.00    +0.012 A 
ATOM      9  C   UNL     1      -7.678  -6.732  -3.740  0.00  0.00    +0.050 A 
ATOM     10  C   UNL     1      -6.433  -6.127  -3.576  0.00  0.00    +0.166 A 
ENDROOT
BRANCH   1  12
ATOM     11  N   UNL     1      -3.882  -4.920  -3.325  0.00  0.00    -0.188 NA
ATOM     12  C   UNL     1      -4.138  -5.613  -4.394  0.00  0.00    +0.142 C 
BRANCH  11  19
ATOM     13  C   UNL     1      -1.413  -2.063   0.004  0.00  0.00    +0.142 C 
ATOM     14  C   UNL     1      -2.823  -2.639   0.033  0.00  0.00    +0.252 C 
ATOM     15  O   UNL     1      -3.584  -2.450   0.961  0.00  0.00    -0.272 OA
ATOM     16  N   UNL     1      -3.157  -3.350  -1.010  0.00  0.00    -0.157 NA
ATOM     17  C   UNL     1      -2.361  -3.583  -2.046  0.00  0.00    +0.166 C 
ATOM     18  S   UNL     1      -0.852  -2.720  -1.623  0.00  0.00    -0.079 S 
ATOM     19  N   UNL     1      -2.630  -4.310  -3.168  0.00  0.00    -0.217 N 
ATOM     20  H   UNL     1      -1.955  -4.405  -3.858  0.00  0.00    +0.176 HD
BRANCH  13  21
ATOM     21  C   UNL     1      -1.433  -0.534   0.013  0.00  0.00    +0.024 C 
BRANCH  21  23
ATOM     22  C   UNL     1      -0.019   1.526   0.010  0.00  0.00    +0.004 C 
ATOM     23  C   UNL     1       0.002  -0.004   0.002  0.00  0.00    -0.002 C 
ENDBRANCH  21  23
ENDBRANCH  13  21
ENDBRANCH  11  19
ENDBRANCH   1  12
BRANCH  10  24
ATOM     24  O   UNL     1      -6.176  -5.405  -2.454  0.00  0.00    -0.342 OA
BRANCH  24  25
ATOM     25  S   UNL     1      -6.539  -3.932  -2.570  0.00  0.00    +0.151 S 
ATOM     26  O   UNL     1      -6.022  -3.294  -1.410  0.00  0.00    -0.131 OA
ATOM     27  O   UNL     1      -6.182  -3.527  -3.885  0.00  0.00    -0.131 OA
BRANCH  25  28
ATOM     28  C   UNL     1      -8.294  -3.817  -2.467  0.00  0.00    +0.128 A 
ATOM     29  C   UNL     1      -9.059  -3.891  -3.617  0.00  0.00    +0.034 A 
ATOM     30  C   UNL     1     -10.435  -3.801  -3.539  0.00  0.00    +0.047 A 
ATOM     31  C   UNL     1     -11.050  -3.638  -2.306  0.00  0.00    +0.121 A 
ATOM     32  C   UNL     1     -10.280  -3.565  -1.154  0.00  0.00    +0.047 A 
ATOM     33  C   UNL     1      -8.905  -3.661  -1.236  0.00  0.00    +0.034 A 
BRANCH  31  34
ATOM     34  O   UNL     1     -12.404  -3.549  -2.227  0.00  0.00    -0.492 OA
BRANCH  34  35
ATOM     35  C   UNL     1     -12.968  -3.382  -0.924  0.00  0.00    +0.225 C 
ATOM     36  C   UNL     1     -14.492  -3.302  -1.035  0.00  0.00    +0.048 C 
ENDBRANCH  34  35
ENDBRANCH  31  34
ENDBRANCH  25  28
ENDBRANCH  24  25
ENDBRANCH  10  24
TORSDOF 9
