REMARK  Name = ZINC20046522
REMARK  8 active torsions:
REMARK  status: ('A' for Active; 'I' for Inactive)
REMARK    1  A    between atoms: C_1  and  C_2
REMARK    2  A    between atoms: C_2  and  C_3
REMARK    3  A    between atoms: C_3  and  C_24
REMARK    4  A    between atoms: N_6  and  C_10
REMARK    5  A    between atoms: C_10  and  C_11
REMARK    6  A    between atoms: N_16  and  C_17
REMARK    7  A    between atoms: C_17  and  C_18
REMARK    8  A    between atoms: C_18  and  C_19
REMARK                            x       y       z     vdW  Elec       q    Type
REMARK                         _______ _______ _______ _____ _____    ______ ____
ROOT
ATOM      1  C   UNL     1       7.101   9.002  -0.652  0.00  0.00    +0.138 C 
ATOM      2  C   UNL     1       5.748   8.506  -1.122  0.00  0.00    +0.251 C 
ATOM      3  O   UNL     1       5.373   8.378  -2.268  0.00  0.00    -0.272 OA
ATOM      4  N   UNL     1       5.049   8.238  -0.002  0.00  0.00    -0.215 N 
ATOM      5  C   UNL     1       5.762   8.498   1.100  0.00  0.00    +0.310 C 
ATOM      6  O   UNL     1       5.343   8.339   2.229  0.00  0.00    -0.252 OA
ATOM      7  N   UNL     1       6.997   8.951   0.817  0.00  0.00    -0.281 N 
ATOM      8  H   UNL     1       7.850   9.257   1.440  0.00  0.00    +0.152 HD
ENDROOT
BRANCH   1   9
ATOM      9  C   UNL     1       8.199   8.092  -1.140  0.00  0.00    -0.015 A 
ATOM     10  C   UNL     1       8.812   8.340  -2.354  0.00  0.00    +0.009 A 
ATOM     11  C   UNL     1       9.822   7.510  -2.801  0.00  0.00    +0.039 A 
ATOM     12  C   UNL     1      10.212   6.423  -2.038  0.00  0.00    +0.123 A 
ATOM     13  C   UNL     1       9.594   6.172  -0.825  0.00  0.00    +0.039 A 
ATOM     14  C   UNL     1       8.588   7.007  -0.377  0.00  0.00    +0.009 A 
ATOM     15  F   UNL     1      11.196   5.607  -2.476  0.00  0.00    -0.205 F 
ENDBRANCH   1   9
BRANCH   1  17
ATOM     16  C   UNL     1       6.319  11.368  -0.472  0.00  0.00    +0.007 C 
ATOM     17  C   UNL     1       7.343  10.437  -1.125  0.00  0.00    +0.037 C 
ENDBRANCH   1  17
BRANCH   4  18
ATOM     18  C   UNL     1       3.674   7.731   0.009  0.00  0.00    +0.214 C 
BRANCH  18  19
ATOM     19  C   UNL     1       3.695   6.224   0.000  0.00  0.00    +0.238 C 
ATOM     20  O   UNL     1       4.753   5.632  -0.013  0.00  0.00    -0.274 OA
ATOM     21  N   UNL     1       2.537   5.535   0.008  0.00  0.00    -0.239 N 
ATOM     22  C   UNL     1       2.555   4.187   0.000  0.00  0.00    +0.306 C 
ATOM     23  O   UNL     1       3.616   3.594  -0.013  0.00  0.00    -0.252 OA
ATOM     24  N   UNL     1       1.397   3.497   0.007  0.00  0.00    -0.299 N 
ATOM     25  H   UNL     1       1.577   6.072   0.020  0.00  0.00    +0.159 HD
ATOM     26  H   UNL     1       0.437   4.034   0.020  0.00  0.00    +0.150 HD
BRANCH  24  27
ATOM     27  C   UNL     1       1.417   2.032  -0.001  0.00  0.00    +0.111 C 
BRANCH  27  28
ATOM     28  C   UNL     1      -0.018   1.503   0.010  0.00  0.00    +0.061 C 
BRANCH  28  29
ATOM     29  C   UNL     1       0.002  -0.004   0.002  0.00  0.00    -0.009 A 
ATOM     30  C   UNL     1       0.029  -0.863   1.050  0.00  0.00    +0.011 A 
ATOM     31  C   UNL     1       0.040  -2.223   0.802  0.00  0.00    +0.008 A 
ATOM     32  C   UNL     1       0.035  -2.657  -0.482  0.00  0.00    +0.045 A 
ATOM     33  S   UNL     1       0.005  -1.121  -1.391  0.00  0.00    -0.102 S 
ENDBRANCH  28  29
ENDBRANCH  27  28
ENDBRANCH  24  27
ENDBRANCH  18  19
ENDBRANCH   4  18
TORSDOF 7
