REMARK  Name = ZINC04525220
REMARK  7 active torsions:
REMARK  status: ('A' for Active; 'I' for Inactive)
REMARK    1  A    between atoms: C_1  and  C_2
REMARK    2  A    between atoms: C_2  and  C_4
REMARK    3  A    between atoms: C_2  and  S_7
REMARK    4  A    between atoms: S_7  and  C_8
REMARK    5  A    between atoms: C_11  and  C_13
REMARK    6  A    between atoms: N_22  and  C_24
REMARK    7  A    between atoms: C_24  and  C_25
REMARK                            x       y       z     vdW  Elec       q    Type
REMARK                         _______ _______ _______ _____ _____    ______ ____
ROOT
ATOM      1  C   UNL     1      -1.216   2.204   0.020  0.00  0.00    +0.155 A 
ATOM      2  C   UNL     1      -1.077   3.669   0.027  0.00  0.00    +0.020 A 
ATOM      3  C   UNL     1       0.172   4.288   0.024  0.00  0.00    +0.011 A 
ATOM      4  C   UNL     1       0.249   5.664   0.031  0.00  0.00    +0.001 A 
ATOM      5  C   UNL     1      -0.903   6.439   0.040  0.00  0.00    +0.001 A 
ATOM      6  C   UNL     1      -2.147   5.848   0.044  0.00  0.00    +0.014 A 
ATOM      7  C   UNL     1      -2.248   4.458   0.037  0.00  0.00    +0.050 A 
ATOM      8  C   UNL     1      -3.548   3.775   0.040  0.00  0.00    +0.275 A 
ATOM      9  O   UNL     1      -4.584   4.416   0.049  0.00  0.00    -0.266 OA
ATOM     10  N   UNL     1      -3.579   2.426   0.033  0.00  0.00    -0.224 N 
ATOM     11  N   UNL     1      -2.411   1.663   0.018  0.00  0.00    -0.162 NA
ENDROOT
BRANCH   1  15
ATOM     12  C   UNL     1       1.299  -0.365  -0.012  0.00  0.00    +0.278 A 
ATOM     13  N   UNL     1       2.015   0.737  -0.013  0.00  0.00    -0.101 NA
ATOM     14  N   UNL     1       1.230   1.757  -0.000  0.00  0.00    -0.105 NA
ATOM     15  C   UNL     1      -0.016   1.348   0.009  0.00  0.00    +0.270 A 
ATOM     16  O   UNL     1       0.002  -0.004   0.002  0.00  0.00    -0.409 OA
BRANCH  12  17
ATOM     17  S   UNL     1       1.923  -2.013  -0.027  0.00  0.00    -0.053 S 
BRANCH  17  19
ATOM     18  C   UNL     1       4.076  -0.975  -1.350  0.00  0.00    +0.029 C 
ATOM     19  C   UNL     1       3.701  -1.675  -0.042  0.00  0.00    +0.138 C 
BRANCH  19  20
ATOM     20  C   UNL     1       4.460  -2.973   0.068  0.00  0.00    +0.224 C 
ATOM     21  O   UNL     1       3.945  -4.009  -0.297  0.00  0.00    -0.275 OA
ATOM     22  N   UNL     1       5.710  -2.982   0.572  0.00  0.00    -0.328 N 
ATOM     23  H   UNL     1       6.121  -2.154   0.864  0.00  0.00    +0.145 HD
ATOM     24  H   UNL     1       6.198  -3.818   0.643  0.00  0.00    +0.145 HD
ENDBRANCH  19  20
ENDBRANCH  17  19
ENDBRANCH  12  17
ENDBRANCH   1  15
BRANCH  10  25
ATOM     25  C   UNL     1      -4.875   1.744   0.036  0.00  0.00    +0.182 C 
BRANCH  25  26
ATOM     26  C   UNL     1      -5.326   1.517  -1.384  0.00  0.00    -0.026 A 
ATOM     27  C   UNL     1      -6.096   2.470  -2.025  0.00  0.00    +0.005 A 
ATOM     28  C   UNL     1      -6.506   2.264  -3.329  0.00  0.00    +0.000 A 
ATOM     29  C   UNL     1      -6.155   1.101  -3.988  0.00  0.00    +0.000 A 
ATOM     30  C   UNL     1      -5.390   0.146  -3.346  0.00  0.00    +0.000 A 
ATOM     31  C   UNL     1      -4.975   0.354  -2.044  0.00  0.00    +0.005 A 
ENDBRANCH  25  26
ENDBRANCH  10  25
TORSDOF 6
