REMARK  Name = ZINC65382728
REMARK  5 active torsions:
REMARK  status: ('A' for Active; 'I' for Inactive)
REMARK    1  A    between atoms: N_8  and  C_12
REMARK    2  A    between atoms: C_12  and  C_13
REMARK    3  A    between atoms: N_15  and  C_16
REMARK    4  A    between atoms: C_16  and  C_17
REMARK    5  A    between atoms: C_22  and  N_23
REMARK                            x       y       z     vdW  Elec       q    Type
REMARK                         _______ _______ _______ _____ _____    ______ ____
ROOT
ATOM      1  C   UNL     1       1.699  -4.536   2.784  0.00  0.00    +0.197 C 
ATOM      2  O   UNL     1       2.364  -3.816   3.498  0.00  0.00    -0.278 OA
ATOM      3  N   UNL     1       1.350  -5.768   3.206  0.00  0.00    -0.313 N 
ATOM      4  H   UNL     1       0.818  -6.344   2.635  0.00  0.00    +0.149 HD
ENDROOT
BRANCH   1   5
ATOM      5  C   UNL     1       1.264  -4.054   1.424  0.00  0.00    +0.019 C 
BRANCH   5  13
ATOM      6  C   UNL     1      -0.017   1.380   0.010  0.00  0.00    +0.000 A 
ATOM      7  C   UNL     1       1.170   2.090   0.002  0.00  0.00    +0.004 A 
ATOM      8  C   UNL     1       2.380   1.422  -0.005  0.00  0.00    +0.046 A 
ATOM      9  C   UNL     1       2.398   0.035  -0.009  0.00  0.00    +0.122 A 
ATOM     10  C   UNL     1       1.210  -0.671  -0.016  0.00  0.00    -0.022 A 
ATOM     11  C   UNL     1       0.002  -0.004   0.002  0.00  0.00    +0.005 A 
ATOM     12  C   UNL     1       1.241  -2.186  -0.069  0.00  0.00    -0.039 C 
ATOM     13  N   UNL     1       1.768  -2.692   1.203  0.00  0.00    +0.390 N 
ATOM     14  C   UNL     1       3.227  -2.717   1.198  0.00  0.00    -0.036 C 
ATOM     15  C   UNL     1       3.866  -1.347   1.218  0.00  0.00    +0.210 C 
ATOM     16  O   UNL     1       3.584  -0.635   0.007  0.00  0.00    -0.494 OA
ATOM     17  H   UNL     1       1.450  -2.097   1.953  0.00  0.00    -0.081 HD
ENDBRANCH   5  13
ENDBRANCH   1   5
BRANCH   3  18
ATOM     18  C   UNL     1       1.773  -6.236   4.528  0.00  0.00    +0.141 C 
BRANCH  18  19
ATOM     19  C   UNL     1       1.256  -7.633   4.755  0.00  0.00    -0.005 A 
ATOM     20  C   UNL     1       0.119  -7.835   5.514  0.00  0.00    +0.007 A 
ATOM     21  C   UNL     1      -0.355  -9.117   5.723  0.00  0.00    +0.000 A 
ATOM     22  C   UNL     1       0.305 -10.200   5.173  0.00  0.00    +0.002 A 
ATOM     23  C   UNL     1       1.442 -10.005   4.413  0.00  0.00    +0.028 A 
ATOM     24  C   UNL     1       1.918  -8.718   4.198  0.00  0.00    +0.072 A 
BRANCH  24  25
ATOM     25  N   UNL     1       3.069  -8.516   3.422  0.00  0.00    -0.220 N 
ATOM     26  C   UNL     1       3.811  -9.463   2.816  0.00  0.00    +0.225 A 
ATOM     27  N   UNL     1       4.796  -8.868   2.193  0.00  0.00    -0.222 NA
ATOM     28  C   UNL     1       4.718  -7.551   2.378  0.00  0.00    +0.245 A 
ATOM     29  N   UNL     1       3.674  -7.286   3.118  0.00  0.00    -0.154 NA
ENDBRANCH  24  25
ENDBRANCH  18  19
ENDBRANCH   3  18
TORSDOF 5
