REMARK  Name = ZINC12240993
REMARK  7 active torsions:
REMARK  status: ('A' for Active; 'I' for Inactive)
REMARK    1  A    between atoms: C_2  and  C_3
REMARK    2  A    between atoms: C_3  and  N_4
REMARK    3  A    between atoms: C_12  and  C_15
REMARK    4  A    between atoms: C_15  and  N_51
REMARK    5  A    between atoms: C_16  and  C_17
REMARK    6  A    between atoms: C_16  and  N_51
REMARK    7  A    between atoms: C_17  and  C_18
REMARK                            x       y       z     vdW  Elec       q    Type
REMARK                         _______ _______ _______ _____ _____    ______ ____
ROOT
ATOM      1  N   UNL     1       2.406  -0.049  -0.021  0.00  0.00    -0.303 N 
ATOM      2  C   UNL     1       2.457   1.331  -0.013  0.00  0.00    +0.056 A 
ATOM      3  C   UNL     1       3.675   1.998  -0.019  0.00  0.00    +0.076 A 
ATOM      4  C   UNL     1       3.707   3.381  -0.012  0.00  0.00    +0.168 A 
ATOM      5  C   UNL     1       2.515   4.117   0.002  0.00  0.00    +0.167 A 
ATOM      6  C   UNL     1       1.300   3.470   0.008  0.00  0.00    +0.059 A 
ATOM      7  C   UNL     1       1.258   2.070   0.001  0.00  0.00    +0.003 A 
ATOM      8  C   UNL     1      -0.016   1.353   0.009  0.00  0.00    +0.017 A 
ATOM      9  C   UNL     1       0.002  -0.004   0.002  0.00  0.00    +0.001 A 
ATOM     10  C   UNL     1       1.229  -0.698  -0.014  0.00  0.00    +0.253 A 
ATOM     11  O   UNL     1       1.222  -1.917  -0.020  0.00  0.00    -0.267 OA
ATOM     12  O   UNL     1       2.828   5.447   0.007  0.00  0.00    -0.453 OA
ATOM     13  C   UNL     1       4.208   5.516   0.410  0.00  0.00    +0.466 C 
ATOM     14  O   UNL     1       4.755   4.255  -0.015  0.00  0.00    -0.453 OA
ENDROOT
BRANCH   1  15
ATOM     15  C   UNL     1       3.654  -0.817  -0.038  0.00  0.00    +0.172 C 
BRANCH  15  17
ATOM     16  C   UNL     1       5.175  -0.544  -1.930  0.00  0.00    +0.027 C 
ATOM     17  C   UNL     1       4.068  -1.072  -1.464  0.00  0.00    +0.031 C 
ATOM     18 CL   UNL     1       3.080  -2.064  -2.490  0.00  0.00    -0.087 Cl
ENDBRANCH  15  17
ENDBRANCH   1  15
BRANCH   9  19
ATOM     19  C   UNL     1      -1.294  -0.772   0.010  0.00  0.00    -0.041 C 
BRANCH  19  20
ATOM     20  N   UNL     1      -1.661  -1.116  -1.377  0.00  0.00    +0.382 N 
ATOM     21  H   UNL     1      -0.918  -1.690  -1.791  0.00  0.00    -0.085 HD
ATOM     22  H   UNL     1      -1.771  -0.253  -1.922  0.00  0.00    -0.085 HD
BRANCH  20  23
ATOM     23  C   UNL     1      -2.929  -1.870  -1.399  0.00  0.00    -0.074 C 
BRANCH  23  24
ATOM     24  C   UNL     1      -3.283  -2.212  -2.848  0.00  0.00    +0.055 C 
BRANCH  24  25
ATOM     25  C   UNL     1      -4.578  -2.982  -2.880  0.00  0.00    +0.106 A 
ATOM     26  N   UNL     1      -5.675  -2.634  -3.605  0.00  0.00    -0.342 N 
ATOM     27  H   UNL     1      -5.762  -1.835  -4.200  0.00  0.00    +0.167 HD
ATOM     28  C   UNL     1      -6.644  -3.588  -3.368  0.00  0.00    +0.066 A 
ATOM     29  C   UNL     1      -7.946  -3.774  -3.812  0.00  0.00    +0.028 A 
ATOM     30  C   UNL     1      -8.668  -4.863  -3.372  0.00  0.00    +0.002 A 
ATOM     31  C   UNL     1      -8.102  -5.772  -2.490  0.00  0.00    +0.002 A 
ATOM     32  C   UNL     1      -6.822  -5.605  -2.043  0.00  0.00    +0.030 A 
ATOM     33  C   UNL     1      -6.071  -4.509  -2.475  0.00  0.00    +0.089 A 
ATOM     34  N   UNL     1      -4.807  -4.082  -2.223  0.00  0.00    -0.233 NA
ENDBRANCH  24  25
ENDBRANCH  23  24
ENDBRANCH  20  23
ENDBRANCH  19  20
ENDBRANCH   9  19
TORSDOF 7
