REMARK  Name = ZINC39774423
REMARK  4 active torsions:
REMARK  status: ('A' for Active; 'I' for Inactive)
REMARK    1  A    between atoms: C_1  and  C_2
REMARK    2  A    between atoms: N_16  and  N_17
REMARK    3  A    between atoms: C_18  and  C_19
REMARK    4  A    between atoms: C_22  and  O_26
REMARK                            x       y       z     vdW  Elec       q    Type
REMARK                         _______ _______ _______ _____ _____    ______ ____
ROOT
ATOM      1  C   UNL     1       0.882  -0.038  -0.716  0.00  0.00    +0.046 C 
ATOM      2  C   UNL     1       0.413  -1.397  -0.264  0.00  0.00    -0.027 A 
ATOM      3  C   UNL     1       0.178  -2.375  -1.167  0.00  0.00    +0.005 A 
ATOM      4  C   UNL     1      -0.261  -3.648  -0.778  0.00  0.00    +0.001 A 
ATOM      5  C   UNL     1      -0.446  -3.986   0.518  0.00  0.00    +0.012 A 
ATOM      6  C   UNL     1      -0.200  -3.051   1.547  0.00  0.00    +0.025 A 
ATOM      7  C   UNL     1      -0.179  -3.123   2.917  0.00  0.00    +0.115 C 
ATOM      8  C   UNL     1      -0.092  -1.678   3.396  0.00  0.00    +0.253 C 
ATOM      9  N   UNL     1       0.326  -0.915   2.227  0.00  0.00    -0.358 N 
ATOM     10  C   UNL     1       0.213  -1.675   1.164  0.00  0.00    +0.049 A 
ATOM     11  N   UNL     1       0.876  -1.673   4.495  0.00  0.00    -0.220 NA
ATOM     12  C   UNL     1       1.024  -2.772   5.193  0.00  0.00    +0.227 C 
ATOM     13  N   UNL     1       0.374  -3.929   4.922  0.00  0.00    -0.247 N 
ATOM     14  N   UNL     1      -0.205  -4.135   3.785  0.00  0.00    -0.171 NA
ATOM     15  N   UNL     1       1.890  -2.748   6.267  0.00  0.00    -0.206 N 
ATOM     16  H   UNL     1       2.021  -3.546   6.803  0.00  0.00    +0.177 HD
ATOM     17  H   UNL     1       0.353  -4.626   5.597  0.00  0.00    +0.192 HD
ATOM     18  H   UNL     1       0.639   0.002   2.234  0.00  0.00    +0.162 HD
ENDROOT
BRANCH  15  19
ATOM     19  N   UNL     1       2.582  -1.571   6.583  0.00  0.00    -0.188 NA
ATOM     20  C   UNL     1       3.484  -1.579   7.517  0.00  0.00    +0.138 C 
BRANCH  20  21
ATOM     21  C   UNL     1       4.123  -2.847   7.913  0.00  0.00    -0.003 A 
ATOM     22  C   UNL     1       4.871  -2.916   9.092  0.00  0.00    +0.028 A 
ATOM     23  C   UNL     1       5.467  -4.104   9.458  0.00  0.00    +0.061 A 
ATOM     24  C   UNL     1       5.326  -5.231   8.658  0.00  0.00    +0.145 A 
ATOM     25  C   UNL     1       4.585  -5.166   7.484  0.00  0.00    +0.061 A 
ATOM     26  C   UNL     1       3.980  -3.984   7.113  0.00  0.00    +0.028 A 
ATOM     27 BR   UNL     1       4.399  -6.703   6.399  0.00  0.00    -0.046 Br
ATOM     28 BR   UNL     1       6.479  -4.200  11.053  0.00  0.00    -0.046 Br
BRANCH  24  29
ATOM     29  O   UNL     1       5.916  -6.399   9.023  0.00  0.00    -0.505 OA
ATOM     30  H   UNL     1       5.359  -6.965   9.576  0.00  0.00    +0.292 HD
ENDBRANCH  24  29
ENDBRANCH  20  21
ENDBRANCH  15  19
TORSDOF 3
