REMARK  Name = ZINC16024674
REMARK  9 active torsions:
REMARK  status: ('A' for Active; 'I' for Inactive)
REMARK    1  A    between atoms: C_1  and  C_2
REMARK    2  A    between atoms: C_2  and  C_3
REMARK    3  A    between atoms: C_2  and  C_4
REMARK    4  A    between atoms: C_4  and  C_5
REMARK    5  A    between atoms: N_13  and  C_16
REMARK    6  A    between atoms: C_16  and  C_17
REMARK    7  A    between atoms: C_17  and  C_18
REMARK    8  A    between atoms: C_18  and  O_19
REMARK    9  A    between atoms: O_19  and  C_20
REMARK                            x       y       z     vdW  Elec       q    Type
REMARK                         _______ _______ _______ _____ _____    ______ ____
ROOT
ATOM      1  C   UNL     1      -1.416  -2.058  -0.121  0.00  0.00    -0.057 C 
ATOM      2  C   UNL     1      -2.849  -2.622  -0.025  0.00  0.00    +0.073 C 
ATOM      3  C   UNL     1      -2.884  -3.796  -1.044  0.00  0.00    +0.088 C 
ATOM      4  C   UNL     1      -3.070  -5.013  -0.167  0.00  0.00    +0.225 C 
ATOM      5  O   UNL     1      -3.148  -6.156  -0.563  0.00  0.00    -0.275 OA
ATOM      6  N   UNL     1      -3.134  -4.633   1.114  0.00  0.00    -0.242 N 
ATOM      7  C   UNL     1      -3.027  -3.299   1.315  0.00  0.00    +0.224 C 
ATOM      8  O   UNL     1      -3.063  -2.732   2.386  0.00  0.00    -0.275 OA
ATOM      9  C   UNL     1      -1.487  -3.801  -1.675  0.00  0.00    +0.050 C 
ATOM     10  N   UNL     1      -0.938  -2.453  -1.473  0.00  0.00    +0.394 N 
ATOM     11  C   UNL     1      -0.598  -4.832  -1.039  0.00  0.00    -0.025 A 
ATOM     12  C   UNL     1      -0.159  -5.040   0.250  0.00  0.00    +0.043 A 
ATOM     13  C   UNL     1       0.678  -6.106   0.533  0.00  0.00    +0.124 A 
ATOM     14  C   UNL     1       1.073  -6.961  -0.483  0.00  0.00    +0.040 A 
ATOM     15  C   UNL     1       0.634  -6.755  -1.774  0.00  0.00    +0.026 A 
ATOM     16  C   UNL     1      -0.208  -5.685  -2.067  0.00  0.00    +0.036 A 
ATOM     17  N   UNL     1      -0.777  -5.275  -3.276  0.00  0.00    -0.286 N 
ATOM     18  C   UNL     1      -1.542  -4.176  -3.131  0.00  0.00    +0.211 C 
ATOM     19  O   UNL     1      -2.155  -3.599  -4.004  0.00  0.00    -0.277 OA
ATOM     20  F   UNL     1       1.110  -6.312   1.797  0.00  0.00    -0.205 F 
ATOM     21  H   UNL     1      -1.302  -1.825  -2.174  0.00  0.00    -0.083 HD
ATOM     22  H   UNL     1      -0.638  -5.730  -4.122  0.00  0.00    +0.155 HD
ATOM     23  H   UNL     1       0.071  -2.467  -1.500  0.00  0.00    -0.083 HD
ENDROOT
BRANCH   1  24
ATOM     24  C   UNL     1      -1.433  -0.534   0.013  0.00  0.00    -0.012 C 
BRANCH  24  26
ATOM     25  C   UNL     1      -0.019   1.526   0.010  0.00  0.00    +0.007 C 
ATOM     26  C   UNL     1       0.002  -0.004   0.002  0.00  0.00    -0.019 C 
ATOM     27  C   UNL     1       0.742  -0.511   1.242  0.00  0.00    +0.007 C 
ENDBRANCH  24  26
ENDBRANCH   1  24
BRANCH   6  28
ATOM     28  C   UNL     1      -3.314  -5.583   2.214  0.00  0.00    +0.118 C 
BRANCH  28  29
ATOM     29  C   UNL     1      -1.945  -6.053   2.711  0.00  0.00    +0.047 C 
BRANCH  29  30
ATOM     30  C   UNL     1      -2.133  -7.046   3.860  0.00  0.00    +0.161 C 
BRANCH  30  31
ATOM     31  O   UNL     1      -0.855  -7.485   4.323  0.00  0.00    -0.383 OA
ATOM     32  C   UNL     1      -0.917  -8.420   5.402  0.00  0.00    +0.193 C 
ENDBRANCH  30  31
ENDBRANCH  29  30
ENDBRANCH  28  29
ENDBRANCH   6  28
TORSDOF 6
