REMARK  Name = ZINC21263517
REMARK  11 active torsions:
REMARK  status: ('A' for Active; 'I' for Inactive)
REMARK    1  A    between atoms: C_1  and  C_2
REMARK    2  A    between atoms: C_2  and  C_29
REMARK    3  A    between atoms: C_4  and  N_10
REMARK    4  A    between atoms: C_6  and  C_8
REMARK    5  A    between atoms: C_6  and  C_9
REMARK    6  A    between atoms: N_10  and  C_11
REMARK    7  A    between atoms: C_11  and  N_13
REMARK    8  A    between atoms: N_13  and  C_14
REMARK    9  A    between atoms: N_13  and  C_22
REMARK   10  A    between atoms: C_14  and  C_15
REMARK   11  A    between atoms: C_22  and  C_23
REMARK                            x       y       z     vdW  Elec       q    Type
REMARK                         _______ _______ _______ _____ _____    ______ ____
ROOT
ATOM      1  C   UNL     1       3.560   4.453  -0.028  0.00  0.00    +0.133 C 
ATOM      2  S   UNL     1       5.219   4.875  -0.065  0.00  0.00    -0.019 S 
ENDROOT
BRANCH   1   3
ATOM      3  N   UNL     1       2.695   5.047  -0.872  0.00  0.00    -0.324 N 
ATOM      4  H   UNL     1       1.629   4.776  -0.849  0.00  0.00    +0.148 HD
BRANCH   3   8
ATOM      5  C   UNL     1       3.879   6.655  -4.800  0.00  0.00    -0.010 C 
ATOM      6  C   UNL     1       2.676   7.184  -4.010  0.00  0.00    -0.072 C 
ATOM      7  C   UNL     1       2.214   6.125  -3.012  0.00  0.00    +0.009 C 
ATOM      8  C   UNL     1       3.174   6.057  -1.825  0.00  0.00    +0.069 C 
ATOM      9  C   UNL     1       3.198   7.423  -1.140  0.00  0.00    +0.009 C 
ATOM     10  C   UNL     1       3.674   8.497  -2.115  0.00  0.00    -0.072 C 
ATOM     11  N   UNL     1       2.979   8.455  -3.385  0.00  0.00    +0.386 N 
ATOM     12  C   UNL     1       5.190   8.378  -2.309  0.00  0.00    -0.010 C 
ATOM     13  C   UNL     1       3.402   9.871  -1.463  0.00  0.00    -0.010 C 
ATOM     14  C   UNL     1       1.528   7.404  -5.019  0.00  0.00    -0.010 C 
ATOM     15  H   UNL     1       3.618   9.049  -4.055  0.00  0.00    -0.084 HD
ATOM     16  H   UNL     1       2.043   9.001  -3.192  0.00  0.00    -0.084 HD
ENDBRANCH   3   8
ENDBRANCH   1   3
BRANCH   1  17
ATOM     17  N   UNL     1       3.120   3.526   0.847  0.00  0.00    -0.306 N 
BRANCH  17  18
ATOM     18  C   UNL     1       4.061   2.880   1.765  0.00  0.00    +0.142 C 
BRANCH  18  19
ATOM     19  C   UNL     1       4.051   3.605   3.086  0.00  0.00    -0.027 A 
ATOM     20  C   UNL     1       3.100   3.290   4.040  0.00  0.00    +0.005 A 
ATOM     21  C   UNL     1       3.090   3.953   5.253  0.00  0.00    +0.003 A 
ATOM     22  C   UNL     1       4.030   4.932   5.513  0.00  0.00    +0.038 A 
ATOM     23  C   UNL     1       4.982   5.249   4.559  0.00  0.00    +0.124 A 
ATOM     24  C   UNL     1       4.995   4.579   3.347  0.00  0.00    +0.043 A 
ATOM     25  F   UNL     1       5.901   6.206   4.813  0.00  0.00    -0.205 F 
ENDBRANCH  18  19
ENDBRANCH  17  18
BRANCH  17  26
ATOM     26  C   UNL     1       1.701   3.165   0.878  0.00  0.00    +0.138 C 
BRANCH  26  27
ATOM     27  C   UNL     1       1.421   2.100  -0.185  0.00  0.00    +0.136 C 
ATOM     28  C   UNL     1      -0.091   1.796  -0.256  0.00  0.00    +0.035 C 
ATOM     29  C   UNL     1      -0.156   0.274  -0.514  0.00  0.00    +0.031 C 
ATOM     30  C   UNL     1       1.325  -0.161  -0.568  0.00  0.00    +0.160 C 
ATOM     31  O   UNL     1       2.033   0.846   0.187  0.00  0.00    -0.375 OA
ENDBRANCH  26  27
ENDBRANCH  17  26
ENDBRANCH   1  17
TORSDOF 7
