REMARK  Name = ZINC35693956
REMARK  10 active torsions:
REMARK  status: ('A' for Active; 'I' for Inactive)
REMARK    1  A    between atoms: C_1  and  C_2
REMARK    2  A    between atoms: C_6  and  C_8
REMARK    3  A    between atoms: C_10  and  C_30
REMARK    4  A    between atoms: C_11  and  C_29
REMARK    5  A    between atoms: C_15  and  C_18
REMARK    6  A    between atoms: C_19  and  N_21
REMARK    7  A    between atoms: N_21  and  C_22
REMARK    8  A    between atoms: C_22  and  C_23
REMARK    9  A    between atoms: C_30  and  O_32
REMARK   10  A    between atoms: O_32  and  C_33
REMARK                            x       y       z     vdW  Elec       q    Type
REMARK                         _______ _______ _______ _____ _____    ______ ____
ROOT
ATOM      1  C   UNL     1      -0.289  -3.179   2.227  0.00  0.00    +0.150 C 
ATOM      2  C   UNL     1      -1.392  -4.052   2.780  0.00  0.00    +0.082 C 
ATOM      3  C   UNL     1      -1.069  -5.346   3.145  0.00  0.00    +0.053 C 
ATOM      4  N   UNL     1       0.169  -5.790   3.009  0.00  0.00    -0.230 NA
ATOM      5  C   UNL     1       1.175  -5.083   2.535  0.00  0.00    +0.166 C 
ATOM      6  N   UNL     1       1.065  -3.786   2.119  0.00  0.00    -0.267 N 
ATOM      7  C   UNL     1       2.212  -3.181   1.647  0.00  0.00    +0.048 C 
ATOM      8  C   UNL     1       3.347  -3.914   1.633  0.00  0.00    +0.072 C 
ATOM      9  S   UNL     1       2.789  -5.471   2.292  0.00  0.00    -0.060 S 
ATOM     10  C   UNL     1      -2.134  -6.255   3.701  0.00  0.00    +0.066 C 
ENDROOT
BRANCH   1  16
ATOM     11  C   UNL     1      -2.176   0.346  -0.782  0.00  0.00    +0.044 C 
ATOM     12  C   UNL     1      -1.607  -1.036  -0.587  0.00  0.00    -0.050 A 
ATOM     13  C   UNL     1      -1.466  -1.884  -1.669  0.00  0.00    +0.003 A 
ATOM     14  C   UNL     1      -0.944  -3.152  -1.490  0.00  0.00    +0.001 A 
ATOM     15  C   UNL     1      -0.563  -3.571  -0.229  0.00  0.00    +0.006 A 
ATOM     16  C   UNL     1      -0.703  -2.722   0.853  0.00  0.00    -0.022 A 
ATOM     17  C   UNL     1      -1.221  -1.453   0.673  0.00  0.00    +0.009 A 
ENDBRANCH   1  16
BRANCH   7  18
ATOM     18  C   UNL     1       2.199  -1.788   1.177  0.00  0.00    +0.091 C 
ATOM     19  C   UNL     1       3.286  -1.272   0.570  0.00  0.00    +0.239 C 
ATOM     20  O   UNL     1       4.333  -2.074   0.260  0.00  0.00    -0.271 OA
BRANCH  19  21
ATOM     21  N   UNL     1       3.332   0.077   0.264  0.00  0.00    -0.309 N 
ATOM     22  H   UNL     1       2.615   0.664   0.549  0.00  0.00    +0.149 HD
BRANCH  21  23
ATOM     23  C   UNL     1       4.465   0.618  -0.492  0.00  0.00    +0.136 C 
BRANCH  23  24
ATOM     24  C   UNL     1       4.331   2.139  -0.593  0.00  0.00    +0.135 C 
ATOM     25  C   UNL     1       5.502   2.728  -1.419  0.00  0.00    +0.035 C 
ATOM     26  C   UNL     1       4.865   4.048  -1.932  0.00  0.00    +0.031 C 
ATOM     27  C   UNL     1       3.389   3.644  -2.131  0.00  0.00    +0.160 C 
ATOM     28  O   UNL     1       3.143   2.487  -1.322  0.00  0.00    -0.375 OA
ENDBRANCH  23  24
ENDBRANCH  21  23
ENDBRANCH  19  21
ENDBRANCH   7  18
BRANCH   2  29
ATOM     29  C   UNL     1      -2.698  -3.567   2.919  0.00  0.00    +0.339 C 
ATOM     30  O   UNL     1      -3.596  -4.320   3.256  0.00  0.00    -0.245 OA
BRANCH  29  31
ATOM     31  O   UNL     1      -2.963  -2.263   2.681  0.00  0.00    -0.465 OA
ATOM     32  C   UNL     1      -4.318  -1.837   2.842  0.00  0.00    +0.280 C 
ENDBRANCH  29  31
ENDBRANCH   2  29
TORSDOF 7
