REMARK  Name = ZINC16911387
REMARK  7 active torsions:
REMARK  status: ('A' for Active; 'I' for Inactive)
REMARK    1  A    between atoms: C_4  and  O_22
REMARK    2  A    between atoms: C_5  and  C_7
REMARK    3  A    between atoms: N_11  and  C_15
REMARK    4  A    between atoms: C_19  and  O_21
REMARK    5  A    between atoms: O_22  and  C_23
REMARK    6  A    between atoms: C_23  and  C_24
REMARK    7  A    between atoms: C_24  and  C_25
REMARK                            x       y       z     vdW  Elec       q    Type
REMARK                         _______ _______ _______ _____ _____    ______ ____
ROOT
ATOM      1  C   UNL     1      -0.050   4.330  -0.434  0.00  0.00    +0.031 C 
ATOM      2  C   UNL     1       0.037   5.644  -0.104  0.00  0.00    +0.078 C 
ATOM      3  C   UNL     1       1.212   6.537  -0.097  0.00  0.00    +0.263 C 
ATOM      4  O   UNL     1       2.318   6.140  -0.416  0.00  0.00    -0.269 OA
ATOM      5  N   UNL     1       1.003   7.790   0.269  0.00  0.00    -0.223 N 
ATOM      6  C   UNL     1      -0.222   8.224   0.628  0.00  0.00    +0.125 C 
ATOM      7  S   UNL     1      -0.690   9.791   1.134  0.00  0.00    -0.027 S 
ATOM      8  S   UNL     1      -1.240   6.768   0.447  0.00  0.00    -0.061 S 
ENDROOT
BRANCH   1  13
ATOM      9  C   UNL     1       2.951   3.611  -2.559  0.00  0.00    +0.001 A 
ATOM     10  C   UNL     1       3.294   2.341  -2.123  0.00  0.00    +0.004 A 
ATOM     11  C   UNL     1       2.557   1.717  -1.136  0.00  0.00    +0.046 A 
ATOM     12  C   UNL     1       1.459   2.354  -0.580  0.00  0.00    +0.128 A 
ATOM     13  C   UNL     1       1.107   3.642  -1.018  0.00  0.00    +0.018 A 
ATOM     14  C   UNL     1       1.867   4.263  -2.016  0.00  0.00    +0.011 A 
BRANCH  12  15
ATOM     15  O   UNL     1       0.731   1.740   0.387  0.00  0.00    -0.491 OA
BRANCH  15  16
ATOM     16  C   UNL     1       1.149   0.432   0.781  0.00  0.00    +0.240 C 
BRANCH  16  17
ATOM     17  C   UNL     1       0.215  -0.095   1.873  0.00  0.00    +0.166 C 
BRANCH  17  18
ATOM     18  C   UNL     1       0.656  -1.475   2.289  0.00  0.00    +0.359 C 
ATOM     19  O   UNL     1       1.619  -1.984   1.766  0.00  0.00    -0.246 OA
ATOM     20  O   UNL     1      -0.021  -2.137   3.240  0.00  0.00    -0.246 OA
ENDBRANCH  17  18
ENDBRANCH  16  17
ENDBRANCH  15  16
ENDBRANCH  12  15
ENDBRANCH   1  13
BRANCH   5  21
ATOM     21  C   UNL     1       2.080   8.686   0.292  0.00  0.00    +0.046 A 
ATOM     22  C   UNL     1       3.103   8.521   1.217  0.00  0.00    +0.024 A 
ATOM     23  C   UNL     1       4.164   9.405   1.240  0.00  0.00    +0.005 A 
ATOM     24  C   UNL     1       4.213  10.454   0.341  0.00  0.00    +0.045 A 
ATOM     25  C   UNL     1       3.195  10.622  -0.586  0.00  0.00    +0.119 A 
ATOM     26  C   UNL     1       2.130   9.735  -0.615  0.00  0.00    +0.069 A 
BRANCH  25  27
ATOM     27  O   UNL     1       3.244  11.654  -1.470  0.00  0.00    -0.507 OA
ATOM     28  H   UNL     1       3.695  11.441  -2.298  0.00  0.00    +0.292 HD
ENDBRANCH  25  27
ENDBRANCH   5  21
TORSDOF 7
