REMARK  Name = ZINC06937724
REMARK  7 active torsions:
REMARK  status: ('A' for Active; 'I' for Inactive)
REMARK    1  A    between atoms: C_1  and  C_2
REMARK    2  A    between atoms: C_2  and  N_3
REMARK    3  A    between atoms: N_3  and  C_4
REMARK    4  A    between atoms: C_6  and  C_11
REMARK    5  A    between atoms: C_9  and  C_10
REMARK    6  A    between atoms: C_12  and  C_14
REMARK    7  A    between atoms: C_14  and  N_15
REMARK                            x       y       z     vdW  Elec       q    Type
REMARK                         _______ _______ _______ _____ _____    ______ ____
ROOT
ATOM      1  N   UNL     1       1.194   2.819   0.239  0.00  0.00    -0.219 N 
ATOM      2  C   UNL     1       0.038   3.510   0.177  0.00  0.00    +0.292 A 
ATOM      3  O   UNL     1       0.051   4.721   0.030  0.00  0.00    -0.264 OA
ATOM      4  C   UNL     1      -1.190   2.815   0.283  0.00  0.00    +0.116 A 
ATOM      5  C   UNL     1      -1.161   1.430   0.443  0.00  0.00    +0.032 A 
ATOM      6  C   UNL     1       0.079   0.762   0.508  0.00  0.00    +0.143 A 
ATOM      7  N   UNL     1       1.193   1.431   0.407  0.00  0.00    -0.175 NA
ATOM      8  C   UNL     1      -2.561   0.990   0.528  0.00  0.00    +0.009 A 
ATOM      9  C   UNL     1      -3.172  -0.253   0.688  0.00  0.00    +0.010 A 
ATOM     10  C   UNL     1      -4.536  -0.342   0.724  0.00  0.00    +0.001 A 
ATOM     11  C   UNL     1      -5.319   0.797   0.601  0.00  0.00    +0.002 A 
ATOM     12  C   UNL     1      -4.736   2.034   0.441  0.00  0.00    +0.026 A 
ATOM     13  C   UNL     1      -3.348   2.148   0.402  0.00  0.00    +0.048 A 
ATOM     14  N   UNL     1      -2.504   3.229   0.256  0.00  0.00    -0.350 N 
ATOM     15  H   UNL     1      -2.795   4.148   0.151  0.00  0.00    +0.166 HD
ENDROOT
BRANCH   1  16
ATOM     16  C   UNL     1       2.469   3.533   0.130  0.00  0.00    +0.243 C 
BRANCH  16  18
ATOM     17  N   UNL     1       4.089   4.623   1.649  0.00  0.00    -0.270 N 
ATOM     18  C   UNL     1       2.931   3.948   1.503  0.00  0.00    +0.241 C 
ATOM     19  O   UNL     1       2.262   3.675   2.477  0.00  0.00    -0.273 OA
BRANCH  17  20
ATOM     20  C   UNL     1       4.518   5.009   2.924  0.00  0.00    +0.039 A 
ATOM     21  C   UNL     1       4.063   6.197   3.481  0.00  0.00    +0.027 A 
ATOM     22  C   UNL     1       4.489   6.575   4.739  0.00  0.00    -0.049 A 
ATOM     23  C   UNL     1       5.366   5.772   5.444  0.00  0.00    +0.004 A 
ATOM     24  C   UNL     1       5.821   4.588   4.892  0.00  0.00    +0.005 A 
ATOM     25  C   UNL     1       5.394   4.202   3.636  0.00  0.00    -0.029 A 
ATOM     26  C   UNL     1       5.885   2.909   3.038  0.00  0.00    +0.045 C 
ATOM     27  C   UNL     1       3.996   7.864   5.345  0.00  0.00    +0.044 C 
ENDBRANCH  17  20
BRANCH  17  29
ATOM     28  C   UNL     1       4.455   6.307  -0.086  0.00  0.00    +0.025 C 
ATOM     29  C   UNL     1       4.897   4.953   0.473  0.00  0.00    +0.110 C 
ENDBRANCH  17  29
ENDBRANCH  16  18
ENDBRANCH   1  16
TORSDOF 4
