REMARK  Name = ZINC18197634
REMARK  5 active torsions:
REMARK  status: ('A' for Active; 'I' for Inactive)
REMARK    1  A    between atoms: C_1  and  O_2
REMARK    2  A    between atoms: O_2  and  C_3
REMARK    3  A    between atoms: C_6  and  C_10
REMARK    4  A    between atoms: C_8  and  O_9
REMARK    5  A    between atoms: C_15  and  C_20
REMARK                            x       y       z     vdW  Elec       q    Type
REMARK                         _______ _______ _______ _____ _____    ______ ____
ROOT
ATOM      1  C   UNL     1       2.191   0.487   3.651  0.00  0.00    +0.176 C 
ATOM      2  C   UNL     1       1.487   0.945   2.393  0.00  0.00    +0.041 C 
ATOM      3  C   UNL     1       2.148   1.146   1.233  0.00  0.00    +0.020 C 
ATOM      4  C   UNL     1       1.421   1.621  -0.003  0.00  0.00    +0.060 C 
ATOM      5  C   UNL     1      -0.013   1.086   0.008  0.00  0.00    +0.039 C 
ATOM      6  C   UNL     1      -0.704   1.586   1.281  0.00  0.00    +0.088 C 
ATOM      7  C   UNL     1       0.098   1.153   2.476  0.00  0.00    +0.164 C 
ATOM      8  O   UNL     1      -0.466   0.978   3.538  0.00  0.00    -0.292 OA
ATOM      9  N   UNL     1       3.500   0.923   1.121  0.00  0.00    -0.287 N 
ATOM     10  C   UNL     1       4.128   0.213   2.131  0.00  0.00    +0.218 A 
ATOM     11  N   UNL     1       3.523  -0.005   3.325  0.00  0.00    -0.221 N 
ATOM     12  N   UNL     1       4.419  -0.748   4.093  0.00  0.00    -0.156 NA
ATOM     13  C   UNL     1       5.486  -0.933   3.356  0.00  0.00    +0.247 A 
ATOM     14  N   UNL     1       5.305  -0.348   2.167  0.00  0.00    -0.201 NA
ATOM     15  H   UNL     1       3.999   1.254   0.358  0.00  0.00    +0.155 HD
ENDROOT
BRANCH   1  19
ATOM     16  C   UNL     1       2.519   3.774   6.367  0.00  0.00    +0.161 A 
ATOM     17  C   UNL     1       3.110   3.844   5.116  0.00  0.00    +0.050 A 
ATOM     18  C   UNL     1       3.007   2.777   4.242  0.00  0.00    +0.010 A 
ATOM     19  C   UNL     1       2.305   1.644   4.610  0.00  0.00    -0.015 A 
ATOM     20  C   UNL     1       1.714   1.568   5.856  0.00  0.00    +0.055 A 
ATOM     21  C   UNL     1       1.818   2.631   6.739  0.00  0.00    +0.159 A 
BRANCH  16  23
ATOM     22  C   UNL     1       3.359   5.960   6.781  0.00  0.00    +0.277 C 
ATOM     23  O   UNL     1       2.624   4.820   7.230  0.00  0.00    -0.491 OA
ENDBRANCH  16  23
BRANCH  21  24
ATOM     24  O   UNL     1       1.236   2.557   7.966  0.00  0.00    -0.503 OA
ATOM     25  H   UNL     1       1.810   2.188   8.652  0.00  0.00    +0.292 HD
ENDBRANCH  21  24
ENDBRANCH   1  19
BRANCH   5  26
ATOM     26  C   UNL     1      -0.752   1.590  -1.204  0.00  0.00    -0.006 A 
ATOM     27  C   UNL     1      -1.336   0.884  -2.203  0.00  0.00    +0.011 A 
ATOM     28  C   UNL     1      -1.970   1.566  -3.225  0.00  0.00    +0.008 A 
ATOM     29  C   UNL     1      -1.979   2.921  -3.203  0.00  0.00    +0.045 A 
ATOM     30  S   UNL     1      -1.080   3.273  -1.702  0.00  0.00    -0.101 S 
ENDBRANCH   5  26
TORSDOF 4
