REMARK  Name = ZINC39743239
REMARK  15 active torsions:
REMARK  status: ('A' for Active; 'I' for Inactive)
REMARK    1  A    between atoms: C_1  and  C_2
REMARK    2  A    between atoms: C_2  and  C_3
REMARK    3  A    between atoms: C_9  and  C_11
REMARK    4  A    between atoms: C_11  and  C_13
REMARK    5  A    between atoms: C_11  and  S_14
REMARK    6  A    between atoms: S_14  and  C_15
REMARK    7  A    between atoms: C_18  and  CA_23
REMARK    8  A    between atoms: N_19  and  C_20
REMARK    9  A    between atoms: C_20  and  C_21
REMARK   10  A    between atoms: CA_23  and  C_25
REMARK   11  A    between atoms: CA_23  and  N_27
REMARK   12  A    between atoms: C_25  and  O_26
REMARK   13  A    between atoms: C_28  and  C_30
REMARK   14  A    between atoms: C_33  and  O_36
REMARK   15  A    between atoms: O_36  and  C_37
REMARK                            x       y       z     vdW  Elec       q    Type
REMARK                         _______ _______ _______ _____ _____    ______ ____
ROOT
ATOM      1  C   UNL     1     -10.076  -3.015  -0.080  0.00  0.00    +0.193 A 
ATOM      2  N   UNL     1     -10.249  -3.398   1.164  0.00  0.00    -0.122 NA
ATOM      3  N   UNL     1     -11.488  -3.671   1.369  0.00  0.00    -0.131 NA
ATOM      4  C   UNL     1     -12.174  -3.480   0.277  0.00  0.00    +0.157 A 
ATOM      5  N   UNL     1     -11.300  -3.050  -0.683  0.00  0.00    -0.301 N 
ENDROOT
BRANCH   1   6
ATOM      6  S   UNL     1      -8.553  -2.539  -0.828  0.00  0.00    -0.074 S 
BRANCH   6   7
ATOM      7  C   UNL     1      -7.335  -2.716   0.505  0.00  0.00    +0.137 C 
ATOM      8  C   UNL     1      -7.222  -4.190   0.900  0.00  0.00    +0.029 C 
BRANCH   7  15
ATOM      9  C   UNL     1      -1.412  -0.526   0.013  0.00  0.00    +0.103 A 
ATOM     10  N   UNL     1      -2.212  -0.818  -0.993  0.00  0.00    -0.145 NA
ATOM     11  N   UNL     1      -3.375  -1.249  -0.747  0.00  0.00    -0.126 NA
ATOM     12  C   UNL     1      -3.811  -1.414   0.486  0.00  0.00    +0.188 A 
ATOM     13  S   UNL     1      -2.474  -0.930   1.392  0.00  0.00    -0.035 S 
ATOM     14  N   UNL     1      -5.048  -1.872   0.925  0.00  0.00    -0.262 N 
ATOM     15  C   UNL     1      -5.994  -2.219   0.030  0.00  0.00    +0.232 C 
ATOM     16  O   UNL     1      -5.766  -2.132  -1.158  0.00  0.00    -0.274 OA
ATOM     17  H   UNL     1      -5.231  -1.942   1.875  0.00  0.00    +0.157 HD
BRANCH   9  19
ATOM     18  C   UNL     1      -0.019   1.526   0.010  0.00  0.00    +0.011 C 
ATOM     19  C   UNL     1       0.002  -0.004   0.002  0.00  0.00    +0.061 C 
ENDBRANCH   9  19
ENDBRANCH   7  15
ENDBRANCH   6   7
ENDBRANCH   1   6
BRANCH   5  20
ATOM     20  C   UNL     1     -11.613  -2.702  -2.071  0.00  0.00    +0.152 C 
BRANCH  20  21
ATOM     21  C   UNL     1     -11.491  -3.930  -2.936  0.00  0.00    -0.013 C 
ATOM     22  C   UNL     1     -12.499  -4.309  -3.682  0.00  0.00    +0.005 C 
ENDBRANCH  20  21
ENDBRANCH   5  20
BRANCH   4  23
ATOM     23  CA  UNL     1     -13.657  -3.689   0.107  0.00  0.00    +0.167 C 
BRANCH  23  24
ATOM     24  N   UNL     1     -14.045  -4.960   0.724  0.00  0.00    -0.299 N 
ATOM     25  C   UNL     1     -15.147  -5.608   0.295  0.00  0.00    +0.245 C 
ATOM     26  O   UNL     1     -15.818  -5.137  -0.602  0.00  0.00    -0.270 OA
ATOM     27  H   UNL     1     -13.509  -5.335   1.440  0.00  0.00    +0.150 HD
BRANCH  25  28
ATOM     28  C   UNL     1     -15.538  -6.888   0.916  0.00  0.00    +0.037 A 
ATOM     29  C   UNL     1     -14.771  -7.428   1.952  0.00  0.00    +0.016 A 
ATOM     30  C   UNL     1     -15.139  -8.622   2.530  0.00  0.00    +0.046 A 
ATOM     31  C   UNL     1     -16.273  -9.292   2.083  0.00  0.00    +0.120 A 
ATOM     32  C   UNL     1     -17.038  -8.758   1.053  0.00  0.00    +0.046 A 
ATOM     33  C   UNL     1     -16.680  -7.561   0.474  0.00  0.00    +0.016 A 
BRANCH  31  34
ATOM     34  O   UNL     1     -16.632 -10.469   2.654  0.00  0.00    -0.495 OA
ATOM     35  C   UNL     1     -17.808 -11.104   2.146  0.00  0.00    +0.277 C 
ENDBRANCH  31  34
ENDBRANCH  25  28
ENDBRANCH  23  24
BRANCH  23  36
ATOM     36  C   UNL     1     -14.414  -2.543   0.781  0.00  0.00    +0.186 C 
BRANCH  36  37
ATOM     37  O   UNL     1     -14.006  -2.441   2.147  0.00  0.00    -0.393 OA
ATOM     38  H   UNL     1     -14.447  -1.733   2.637  0.00  0.00    +0.209 HD
ENDBRANCH  36  37
ENDBRANCH  23  36
ENDBRANCH   4  23
TORSDOF 12
