REMARK  Name = ZINC12390018
REMARK  2 active torsions:
REMARK  status: ('A' for Active; 'I' for Inactive)
REMARK    1  A    between atoms: C_23  and  C_25
REMARK    2  A    between atoms: N_27  and  C_28
REMARK                            x       y       z     vdW  Elec       q    Type
REMARK                         _______ _______ _______ _____ _____    ______ ____
ROOT
ATOM      1  C   UNL     1       6.883   9.853   0.522  0.00  0.00    +0.000 A 
ATOM      2  C   UNL     1       6.022  10.125   1.570  0.00  0.00    +0.000 A 
ATOM      3  C   UNL     1       4.896   9.348   1.754  0.00  0.00    +0.005 A 
ATOM      4  C   UNL     1       4.623   8.294   0.894  0.00  0.00    -0.027 A 
ATOM      5  C   UNL     1       5.479   8.025  -0.152  0.00  0.00    -0.041 A 
ATOM      6  C   UNL     1       6.611   8.806  -0.335  0.00  0.00    +0.004 A 
ATOM      7  C   UNL     1       5.221   6.896  -1.115  0.00  0.00    +0.054 C 
ATOM      8  C   UNL     1       4.201   5.925  -0.520  0.00  0.00    +0.113 C 
ATOM      9  N   UNL     1       3.038   6.697  -0.055  0.00  0.00    -0.296 N 
ATOM     10  C   UNL     1       3.387   7.469   1.141  0.00  0.00    +0.143 C 
ATOM     11  C   UNL     1       1.968   5.876   0.186  0.00  0.00    +0.200 A 
ATOM     12  N   UNL     1       0.771   6.426   0.526  0.00  0.00    -0.295 N 
ATOM     13  H   UNL     1       0.680   7.390   0.587  0.00  0.00    +0.172 HD
ATOM     14  C   UNL     1      -0.291   5.631   0.778  0.00  0.00    +0.258 A 
ATOM     15  O   UNL     1      -1.368   6.112   1.092  0.00  0.00    -0.267 OA
ATOM     16  C   UNL     1      -0.131   4.246   0.674  0.00  0.00    +0.069 A 
ATOM     17  C   UNL     1       1.102   3.736   0.309  0.00  0.00    +0.138 A 
ATOM     18  N   UNL     1       2.122   4.572   0.084  0.00  0.00    -0.200 NA
ATOM     19  N   UNL     1       1.281   2.370   0.175  0.00  0.00    -0.270 N 
ATOM     20  C   UNL     1       0.226   1.539   0.122  0.00  0.00    +0.219 C 
ATOM     21  O   UNL     1       0.407   0.340   0.113  0.00  0.00    -0.275 OA
ATOM     22  C   UNL     1      -1.178   2.080   0.066  0.00  0.00    +0.114 C 
ATOM     23  C   UNL     1      -1.284   3.322   0.961  0.00  0.00    +0.122 C 
ATOM     24  H   UNL     1       2.179   2.008   0.119  0.00  0.00    +0.156 HD
ENDROOT
BRANCH  23  25
ATOM     25  C   UNL     1      -1.247   2.907   2.409  0.00  0.00    +0.225 C 
ATOM     26  O   UNL     1      -0.370   3.322   3.137  0.00  0.00    -0.275 OA
ATOM     27  N   UNL     1      -2.189   2.075   2.896  0.00  0.00    -0.285 N 
ATOM     28  H   UNL     1      -2.933   1.804   2.336  0.00  0.00    +0.155 HD
BRANCH  27  29
ATOM     29  C   UNL     1      -2.094   1.603   4.210  0.00  0.00    +0.036 A 
ATOM     30  C   UNL     1      -0.848   1.366   4.775  0.00  0.00    +0.043 A 
ATOM     31  C   UNL     1      -0.756   0.905   6.075  0.00  0.00    +0.044 A 
ATOM     32  C   UNL     1      -1.905   0.668   6.809  0.00  0.00    +0.040 A 
ATOM     33  C   UNL     1      -3.148   0.897   6.246  0.00  0.00    +0.044 A 
ATOM     34  C   UNL     1      -3.245   1.364   4.948  0.00  0.00    +0.043 A 
ATOM     35 CL   UNL     1      -4.587   0.599   7.170  0.00  0.00    -0.083 Cl
ATOM     36 CL   UNL     1       0.801   0.615   6.784  0.00  0.00    -0.083 Cl
ENDBRANCH  27  29
ENDBRANCH  23  25
TORSDOF 2
