REMARK  Name = ZINC50901256
REMARK  9 active torsions:
REMARK  status: ('A' for Active; 'I' for Inactive)
REMARK    1  A    between atoms: C_1  and  C_2
REMARK    2  A    between atoms: C_2  and  C_3
REMARK    3  A    between atoms: C_3  and  C_4
REMARK    4  A    between atoms: C_4  and  C_6
REMARK    5  A    between atoms: C_4  and  N_7
REMARK    6  A    between atoms: C_8  and  C_10
REMARK    7  A    between atoms: N_15  and  C_17
REMARK    8  A    between atoms: C_17  and  N_18
REMARK    9  A    between atoms: C_22  and  N_27
REMARK                            x       y       z     vdW  Elec       q    Type
REMARK                         _______ _______ _______ _____ _____    ______ ____
ROOT
ATOM      1  C   UNL     1       2.161  -4.236   1.519  0.00  0.00    +0.089 C 
ATOM      2  C   UNL     1       3.636  -4.268   1.109  0.00  0.00    +0.015 C 
ATOM      3  C   UNL     1       4.467  -4.830   2.265  0.00  0.00    +0.016 C 
ATOM      4  C   UNL     1       3.952  -6.226   2.625  0.00  0.00    +0.086 C 
ATOM      5  N   UNL     1       2.538  -6.142   3.011  0.00  0.00    -0.283 NA
ATOM      6  C   UNL     1       1.712  -5.648   1.902  0.00  0.00    +0.099 C 
ENDROOT
BRANCH   1   8
ATOM      7  N   UNL     1       1.548  -2.511  -0.144  0.00  0.00    -0.312 N 
ATOM      8  C   UNL     1       1.328  -3.739   0.366  0.00  0.00    +0.218 C 
ATOM      9  O   UNL     1       0.460  -4.443  -0.103  0.00  0.00    -0.275 OA
ATOM     10  H   UNL     1       2.243  -1.947   0.231  0.00  0.00    +0.149 HD
BRANCH   7  11
ATOM     11  C   UNL     1       0.739  -2.027  -1.265  0.00  0.00    +0.070 C 
ATOM     12  C   UNL     1       1.343  -2.522  -2.581  0.00  0.00    +0.028 C 
BRANCH  11  13
ATOM     13  C   UNL     1       0.718  -0.497  -1.257  0.00  0.00    +0.022 C 
BRANCH  13  15
ATOM     14  C   UNL     1      -0.019   1.526   0.010  0.00  0.00    +0.004 C 
ATOM     15  C   UNL     1       0.002  -0.004   0.002  0.00  0.00    -0.002 C 
ENDBRANCH  13  15
ENDBRANCH  11  13
ENDBRANCH   7  11
ENDBRANCH   1   8
BRANCH   5  16
ATOM     16  C   UNL     1       2.047  -7.439   3.497  0.00  0.00    +0.230 C 
BRANCH  16  17
ATOM     17  N   UNL     1       2.729  -7.783   4.746  0.00  0.00    -0.249 N 
ATOM     18  C   UNL     1       3.902  -8.485   4.844  0.00  0.00    +0.071 A 
ATOM     19  C   UNL     1       4.766  -9.056   3.912  0.00  0.00    +0.030 A 
ATOM     20  C   UNL     1       5.888  -9.709   4.336  0.00  0.00    +0.035 A 
ATOM     21  C   UNL     1       6.182  -9.813   5.690  0.00  0.00    +0.127 A 
ATOM     22  C   UNL     1       5.355  -9.264   6.626  0.00  0.00    +0.044 A 
ATOM     23  C   UNL     1       4.199  -8.589   6.217  0.00  0.00    +0.022 A 
ATOM     24  C   UNL     1       3.122  -7.902   6.922  0.00  0.00    +0.143 A 
ATOM     25  N   UNL     1       2.292  -7.443   6.030  0.00  0.00    -0.177 NA
BRANCH  21  26
ATOM     26  N   UNL     1       7.405 -10.527   6.122  0.00  0.00    +0.056 N 
ATOM     27  O   UNL     1       8.142 -11.016   5.298  0.00  0.00    -0.126 OA
ATOM     28  O   UNL     1       7.667 -10.621   7.298  0.00  0.00    -0.126 OA
ENDBRANCH  21  26
ENDBRANCH  16  17
ENDBRANCH   5  16
TORSDOF 7
