REMARK  Name = ZINC50186775
REMARK  6 active torsions:
REMARK  status: ('A' for Active; 'I' for Inactive)
REMARK    1  A    between atoms: C_3  and  O_23
REMARK    2  A    between atoms: C_6  and  C_7
REMARK    3  A    between atoms: C_7  and  C_8
REMARK    4  A    between atoms: C_15  and  N_20
REMARK    5  A    between atoms: O_23  and  C_24
REMARK    6  A    between atoms: C_24  and  C_25
REMARK                            x       y       z     vdW  Elec       q    Type
REMARK                         _______ _______ _______ _____ _____    ______ ____
ROOT
ATOM      1  C   UNL     1      -1.293  -0.774   0.011  0.00  0.00    +0.109 C 
ENDROOT
BRANCH   1   2
ATOM      2  C   UNL     1      -1.739  -1.023  -1.407  0.00  0.00    +0.115 A 
ATOM      3  N   UNL     1      -2.898  -1.703  -1.608  0.00  0.00    -0.310 N 
ATOM      4  H   UNL     1      -3.412  -2.012  -0.846  0.00  0.00    +0.170 HD
ATOM      5  C   UNL     1      -3.342  -1.952  -2.862  0.00  0.00    +0.259 A 
ATOM      6  O   UNL     1      -4.378  -2.560  -3.057  0.00  0.00    -0.267 OA
ATOM      7  C   UNL     1      -2.523  -1.460  -3.980  0.00  0.00    +0.067 A 
ATOM      8  C   UNL     1      -2.891  -1.665  -5.309  0.00  0.00    +0.048 A 
ATOM      9  C   UNL     1      -2.086  -1.182  -6.317  0.00  0.00    +0.127 A 
ATOM     10  C   UNL     1      -0.916  -0.496  -6.020  0.00  0.00    +0.035 A 
ATOM     11  C   UNL     1      -0.535  -0.284  -4.715  0.00  0.00    +0.031 A 
ATOM     12  C   UNL     1      -1.334  -0.763  -3.674  0.00  0.00    +0.078 A 
ATOM     13  N   UNL     1      -0.999  -0.572  -2.374  0.00  0.00    -0.233 NA
BRANCH   9  14
ATOM     14  N   UNL     1      -2.472  -1.397  -7.730  0.00  0.00    +0.056 N 
ATOM     15  O   UNL     1      -3.490  -1.994  -7.995  0.00  0.00    -0.126 OA
ATOM     16  O   UNL     1      -1.770  -0.976  -8.620  0.00  0.00    -0.126 OA
ENDBRANCH   9  14
ENDBRANCH   1   2
BRANCH   1  22
ATOM     17  C   UNL     1      -0.017   1.378   0.010  0.00  0.00    +0.007 A 
ATOM     18  C   UNL     1       1.169   2.087   0.002  0.00  0.00    +0.046 A 
ATOM     19  C   UNL     1       2.380   1.409  -0.013  0.00  0.00    +0.121 A 
ATOM     20  C   UNL     1       2.396   0.022  -0.021  0.00  0.00    +0.046 A 
ATOM     21  C   UNL     1       1.207  -0.681  -0.013  0.00  0.00    +0.007 A 
ATOM     22  C   UNL     1       0.002  -0.004   0.002  0.00  0.00    -0.040 A 
BRANCH  19  23
ATOM     23  O   UNL     1       3.548   2.104  -0.021  0.00  0.00    -0.487 OA
BRANCH  23  24
ATOM     24  C   UNL     1       4.756   1.341  -0.036  0.00  0.00    +0.264 C 
BRANCH  24  25
ATOM     25  C   UNL     1       5.940   2.274  -0.043  0.00  0.00    -0.008 A 
ATOM     26  C   UNL     1       6.482   2.724  -1.238  0.00  0.00    +0.026 A 
ATOM     27  C   UNL     1       7.567   3.578  -1.204  0.00  0.00    +0.111 A 
ATOM     28  N   UNL     1       8.087   3.965  -0.056  0.00  0.00    -0.263 NA
ATOM     29  C   UNL     1       7.597   3.558   1.099  0.00  0.00    +0.111 A 
ATOM     30  C   UNL     1       6.509   2.707   1.145  0.00  0.00    +0.026 A 
ENDBRANCH  24  25
ENDBRANCH  23  24
ENDBRANCH  19  23
ENDBRANCH   1  22
TORSDOF 6
