REMARK  Name = ZINC06282681
REMARK  10 active torsions:
REMARK  status: ('A' for Active; 'I' for Inactive)
REMARK    1  A    between atoms: C_1  and  O_2
REMARK    2  A    between atoms: O_2  and  C_3
REMARK    3  A    between atoms: C_10  and  C_15
REMARK    4  A    between atoms: C_15  and  C_17
REMARK    5  A    between atoms: C_15  and  N_71
REMARK    6  A    between atoms: N_21  and  C_22
REMARK    7  A    between atoms: C_28  and  C_29
REMARK    8  A    between atoms: C_28  and  N_71
REMARK    9  A    between atoms: C_35  and  C_36
REMARK   10  A    between atoms: C_35  and  N_71
REMARK                            x       y       z     vdW  Elec       q    Type
REMARK                         _______ _______ _______ _____ _____    ______ ____
ROOT
ATOM      1  C   UNL     1      -2.712   3.631   1.435  0.00  0.00    +0.040 C 
ENDROOT
BRANCH   1   9
ATOM      2  C   UNL     1      -2.928   8.095  -2.860  0.00  0.00    +0.121 A 
ATOM      3  C   UNL     1      -1.703   8.675  -2.536  0.00  0.00    +0.047 A 
ATOM      4  C   UNL     1      -0.932   8.161  -1.517  0.00  0.00    +0.030 A 
ATOM      5  C   UNL     1      -1.375   7.054  -0.800  0.00  0.00    +0.049 A 
ATOM      6  C   UNL     1      -2.611   6.465  -1.125  0.00  0.00    +0.002 A 
ATOM      7  C   UNL     1      -3.385   6.996  -2.162  0.00  0.00    +0.055 A 
ATOM      8  C   UNL     1      -3.065   5.300  -0.363  0.00  0.00    +0.017 A 
ATOM      9  C   UNL     1      -2.274   4.829   0.632  0.00  0.00    +0.011 A 
ATOM     10  C   UNL     1      -1.045   5.458   0.922  0.00  0.00    +0.251 A 
ATOM     11  O   UNL     1      -0.352   5.021   1.825  0.00  0.00    -0.268 OA
ATOM     12  N   UNL     1      -0.617   6.525   0.225  0.00  0.00    -0.322 N 
ATOM     13  H   UNL     1       0.236   6.931   0.448  0.00  0.00    +0.169 HD
BRANCH   2  15
ATOM     14  C   UNL     1      -3.144   9.753  -4.551  0.00  0.00    +0.277 C 
ATOM     15  O   UNL     1      -3.675   8.615  -3.870  0.00  0.00    -0.495 OA
ENDBRANCH   2  15
ENDBRANCH   1   9
BRANCH   1  16
ATOM     16  C   UNL     1      -2.945   4.044   2.866  0.00  0.00    +0.143 A 
ATOM     17  N   UNL     1      -2.027   4.299   3.766  0.00  0.00    -0.115 NA
ATOM     18  N   UNL     1      -2.622   4.619   4.862  0.00  0.00    -0.023 NA
ATOM     19  N   UNL     1      -3.897   4.567   4.688  0.00  0.00    -0.044 NA
ATOM     20  N   UNL     1      -4.136   4.215   3.469  0.00  0.00    -0.227 N 
BRANCH  20  21
ATOM     21  C   UNL     1      -5.455   4.037   2.858  0.00  0.00    +0.111 C 
ATOM     22  C   UNL     1      -6.229   5.355   2.924  0.00  0.00    +0.027 C 
ATOM     23  C   UNL     1      -7.607   5.169   2.285  0.00  0.00    +0.002 C 
ATOM     24  C   UNL     1      -8.378   4.085   3.042  0.00  0.00    +0.000 C 
ATOM     25  C   UNL     1      -7.603   2.768   2.976  0.00  0.00    +0.002 C 
ATOM     26  C   UNL     1      -6.226   2.954   3.615  0.00  0.00    +0.027 C 
ENDBRANCH  20  21
ENDBRANCH   1  16
BRANCH   1  27
ATOM     27  N   UNL     1      -1.643   2.611   1.399  0.00  0.00    +0.397 N 
ATOM     28  H   UNL     1      -0.795   3.000   1.827  0.00  0.00    -0.079 HD
BRANCH  27  29
ATOM     29  C   UNL     1      -2.060   1.415   2.161  0.00  0.00    -0.041 C 
BRANCH  29  30
ATOM     30  C   UNL     1      -0.835   0.606   2.498  0.00  0.00    -0.064 A 
ATOM     31  C   UNL     1      -0.471  -0.464   1.702  0.00  0.00    +0.002 A 
ATOM     32  C   UNL     1       0.656  -1.203   2.008  0.00  0.00    +0.000 A 
ATOM     33  C   UNL     1       1.414  -0.879   3.118  0.00  0.00    +0.000 A 
ATOM     34  C   UNL     1       1.048   0.188   3.918  0.00  0.00    +0.000 A 
ATOM     35  C   UNL     1      -0.076   0.930   3.608  0.00  0.00    +0.002 A 
ENDBRANCH  29  30
ENDBRANCH  27  29
BRANCH  27  36
ATOM     36  C   UNL     1      -1.347   2.240  -0.001  0.00  0.00    -0.001 C 
BRANCH  36  37
ATOM     37  C   UNL     1      -2.554   1.612  -0.648  0.00  0.00    +0.089 A 
ATOM     38  C   UNL     1      -3.467   2.253  -1.400  0.00  0.00    +0.042 A 
ATOM     39  C   UNL     1      -4.416   1.286  -1.805  0.00  0.00    +0.041 A 
ATOM     40  C   UNL     1      -4.026   0.112  -1.277  0.00  0.00    +0.195 A 
ATOM     41  O   UNL     1      -2.898   0.315  -0.578  0.00  0.00    -0.470 OA
ENDBRANCH  36  37
ENDBRANCH  27  36
ENDBRANCH   1  27
TORSDOF 9
