REMARK  Name = ZINC01009642
REMARK  5 active torsions:
REMARK  status: ('A' for Active; 'I' for Inactive)
REMARK    1  A    between atoms: C_1  and  C_2
REMARK    2  A    between atoms: C_2  and  C_33
REMARK    3  A    between atoms: C_6  and  C_17
REMARK    4  A    between atoms: C_21  and  O_23
REMARK    5  A    between atoms: O_23  and  C_24
REMARK                            x       y       z     vdW  Elec       q    Type
REMARK                         _______ _______ _______ _____ _____    ______ ____
ROOT
ATOM      1  C   UNL     1      -0.878   2.547   1.269  0.00  0.00    +0.011 C 
ATOM      2  C   UNL     1      -1.183   1.069   1.522  0.00  0.00    -0.023 C 
ATOM      3  C   UNL     1      -0.776   0.243   0.299  0.00  0.00    +0.058 C 
ATOM      4  C   UNL     1       0.707   0.385   0.063  0.00  0.00    +0.017 C 
ATOM      5  C   UNL     1       1.559   0.587   1.090  0.00  0.00    +0.024 C 
ATOM      6  C   UNL     1       3.041   0.728   0.852  0.00  0.00    +0.092 C 
ATOM      7  C   UNL     1       3.427   0.199  -0.499  0.00  0.00    +0.067 A 
ATOM      8  C   UNL     1       2.491   0.014  -1.472  0.00  0.00    +0.113 A 
ATOM      9  N   UNL     1       2.876  -0.464  -2.701  0.00  0.00    -0.295 N 
ATOM     10  C   UNL     1       4.168  -0.753  -2.944  0.00  0.00    +0.328 A 
ATOM     11  O   UNL     1       4.492  -1.175  -4.037  0.00  0.00    -0.247 OA
ATOM     12  N   UNL     1       5.106  -0.581  -1.995  0.00  0.00    -0.275 N 
ATOM     13  C   UNL     1       4.770  -0.112  -0.777  0.00  0.00    +0.260 A 
ATOM     14  O   UNL     1       5.625   0.042   0.079  0.00  0.00    -0.267 OA
ATOM     15  N   UNL     1       1.172   0.300  -1.222  0.00  0.00    -0.303 N 
ATOM     16  C   UNL     1       1.090   0.678   2.413  0.00  0.00    +0.162 C 
ATOM     17  O   UNL     1       1.885   0.842   3.317  0.00  0.00    -0.292 OA
ATOM     18  C   UNL     1      -0.377   0.577   2.729  0.00  0.00    +0.086 C 
ATOM     19  C   UNL     1      -2.678   0.892   1.794  0.00  0.00    +0.011 C 
ATOM     20  H   UNL     1       0.564   0.443  -1.964  0.00  0.00    +0.153 HD
ATOM     21  H   UNL     1       6.031  -0.796  -2.189  0.00  0.00    +0.173 HD
ATOM     22  H   UNL     1       2.213  -0.595  -3.397  0.00  0.00    +0.172 HD
ENDROOT
BRANCH   6  23
ATOM     23  C   UNL     1       3.419   2.184   0.937  0.00  0.00    -0.032 A 
ATOM     24  C   UNL     1       2.843   3.099   0.075  0.00  0.00    +0.005 A 
ATOM     25  C   UNL     1       3.188   4.436   0.151  0.00  0.00    +0.004 A 
ATOM     26  C   UNL     1       4.108   4.861   1.089  0.00  0.00    +0.046 A 
ATOM     27  C   UNL     1       4.687   3.945   1.956  0.00  0.00    +0.129 A 
ATOM     28  C   UNL     1       4.336   2.604   1.881  0.00  0.00    +0.050 A 
BRANCH  27  29
ATOM     29  O   UNL     1       5.593   4.360   2.879  0.00  0.00    -0.456 OA
BRANCH  29  30
ATOM     30  C   UNL     1       6.141   3.426   3.700  0.00  0.00    +0.128 A 
ATOM     31  C   UNL     1       7.308   2.773   3.329  0.00  0.00    +0.046 A 
ATOM     32  C   UNL     1       7.863   1.824   4.165  0.00  0.00    +0.004 A 
ATOM     33  C   UNL     1       7.257   1.524   5.371  0.00  0.00    +0.000 A 
ATOM     34  C   UNL     1       6.094   2.174   5.744  0.00  0.00    +0.004 A 
ATOM     35  C   UNL     1       5.539   3.128   4.914  0.00  0.00    +0.046 A 
ENDBRANCH  29  30
ENDBRANCH  27  29
ENDBRANCH   6  23
TORSDOF 3
