REMARK  Name = ZINC66609380
REMARK  8 active torsions:
REMARK  status: ('A' for Active; 'I' for Inactive)
REMARK    1  A    between atoms: C_1  and  C_2
REMARK    2  A    between atoms: C_5  and  C_9
REMARK    3  A    between atoms: C_11  and  C_14
REMARK    4  A    between atoms: C_14  and  C_16
REMARK    5  A    between atoms: C_14  and  N_17
REMARK    6  A    between atoms: N_17  and  C_18
REMARK    7  A    between atoms: C_18  and  C_20
REMARK    8  A    between atoms: C_18  and  C_21
REMARK                            x       y       z     vdW  Elec       q    Type
REMARK                         _______ _______ _______ _____ _____    ______ ____
ROOT
ATOM      1  C   UNL     1       0.013  -7.429   1.637  0.00  0.00    +0.016 C 
ATOM      2  C   UNL     1       0.299  -6.441   0.505  0.00  0.00    -0.004 C 
ENDROOT
BRANCH   1   5
ATOM      3  C   UNL     1      -1.032  -5.743   4.676  0.00  0.00    +0.202 A 
ATOM      4  N   UNL     1      -0.130  -6.367   3.898  0.00  0.00    -0.193 NA
ATOM      5  C   UNL     1      -0.678  -6.711   2.768  0.00  0.00    +0.213 A 
ATOM      6  O   UNL     1      -1.958  -6.318   2.780  0.00  0.00    -0.339 OA
ATOM      7  N   UNL     1      -2.174  -5.693   4.036  0.00  0.00    -0.056 NA
BRANCH   3  12
ATOM      8  C   UNL     1      -0.053  -3.658   9.957  0.00  0.00    +0.047 C 
ATOM      9  C   UNL     1      -0.308  -4.204   8.576  0.00  0.00    -0.015 A 
ATOM     10  C   UNL     1      -1.565  -4.086   8.010  0.00  0.00    +0.007 A 
ATOM     11  C   UNL     1      -1.804  -4.583   6.745  0.00  0.00    +0.012 A 
ATOM     12  C   UNL     1      -0.779  -5.206   6.037  0.00  0.00    +0.025 A 
ATOM     13  C   UNL     1       0.485  -5.324   6.610  0.00  0.00    +0.050 A 
ATOM     14  C   UNL     1       0.717  -4.817   7.875  0.00  0.00    +0.127 A 
ATOM     15  F   UNL     1       1.944  -4.926   8.431  0.00  0.00    -0.205 F 
ENDBRANCH   3  12
ENDBRANCH   1   5
BRANCH   1  16
ATOM     16  N   UNL     1      -0.854  -8.506   1.139  0.00  0.00    +0.391 N 
ATOM     17  H   UNL     1      -1.756  -8.126   0.894  0.00  0.00    -0.084 HD
ATOM     18  H   UNL     1      -0.433  -8.927   0.324  0.00  0.00    -0.084 HD
BRANCH  16  19
ATOM     19  C   UNL     1      -1.020  -9.524   2.185  0.00  0.00    -0.043 C 
ATOM     20  C   UNL     1       0.324 -10.204   2.453  0.00  0.00    -0.009 C 
BRANCH  19  21
ATOM     21  C   UNL     1      -2.022 -10.553   1.730  0.00  0.00    -0.058 A 
ATOM     22  C   UNL     1      -2.015 -10.990   0.419  0.00  0.00    +0.006 A 
ATOM     23  C   UNL     1      -2.934 -11.933  -0.002  0.00  0.00    +0.049 A 
ATOM     24  C   UNL     1      -3.865 -12.443   0.890  0.00  0.00    +0.162 A 
ATOM     25  C   UNL     1      -3.870 -12.005   2.209  0.00  0.00    +0.162 A 
ATOM     26  C   UNL     1      -2.943 -11.062   2.626  0.00  0.00    +0.051 A 
ATOM     27  O   UNL     1      -4.771 -12.498   3.103  0.00  0.00    -0.485 OA
ATOM     28  C   UNL     1      -5.915 -13.166   2.562  0.00  0.00    +0.270 C 
ATOM     29  C   UNL     1      -5.437 -14.131   1.468  0.00  0.00    +0.270 C 
ATOM     30  O   UNL     1      -4.766 -13.368   0.460  0.00  0.00    -0.485 OA
ENDBRANCH  19  21
ENDBRANCH  16  19
ENDBRANCH   1  16
TORSDOF 5
