REMARK  Name = ZINC64981423
REMARK  5 active torsions:
REMARK  status: ('A' for Active; 'I' for Inactive)
REMARK    1  A    between atoms: C_1  and  C_2
REMARK    2  A    between atoms: C_2  and  C_3
REMARK    3  A    between atoms: C_3  and  N_4
REMARK    4  A    between atoms: N_17  and  N_18
REMARK    5  A    between atoms: C_19  and  C_20
REMARK                            x       y       z     vdW  Elec       q    Type
REMARK                         _______ _______ _______ _____ _____    ______ ____
ROOT
ATOM      1  N   UNL     1      -1.413  -1.998   0.005  0.00  0.00    -0.323 N 
ATOM      2  C   UNL     1      -1.408  -2.783  -1.137  0.00  0.00    +0.053 A 
ATOM      3  C   UNL     1      -1.419  -2.465  -2.491  0.00  0.00    +0.026 A 
ATOM      4  C   UNL     1      -1.409  -3.468  -3.437  0.00  0.00    +0.002 A 
ATOM      5  C   UNL     1      -1.390  -4.800  -3.051  0.00  0.00    +0.001 A 
ATOM      6  C   UNL     1      -1.380  -5.135  -1.714  0.00  0.00    +0.012 A 
ATOM      7  C   UNL     1      -1.388  -4.131  -0.749  0.00  0.00    +0.029 A 
ATOM      8  C   UNL     1      -1.381  -4.139   0.724  0.00  0.00    +0.138 A 
ATOM      9  C   UNL     1      -1.392  -2.788   1.128  0.00  0.00    +0.166 A 
ATOM     10  N   UNL     1      -1.382  -2.519   2.430  0.00  0.00    -0.192 NA
ATOM     11  C   UNL     1      -1.360  -3.520   3.299  0.00  0.00    +0.256 A 
ATOM     12  N   UNL     1      -1.347  -4.785   2.894  0.00  0.00    -0.111 NA
ATOM     13  N   UNL     1      -1.363  -5.094   1.643  0.00  0.00    -0.142 NA
ATOM     14  N   UNL     1      -1.350  -3.241   4.656  0.00  0.00    -0.204 N 
ATOM     15  H   UNL     1      -1.359  -2.321   4.962  0.00  0.00    +0.177 HD
ENDROOT
BRANCH  14  16
ATOM     16  N   UNL     1      -1.327  -4.288   5.586  0.00  0.00    -0.187 NA
ATOM     17  C   UNL     1      -1.317  -4.027   6.857  0.00  0.00    +0.139 C 
BRANCH  17  18
ATOM     18  C   UNL     1      -1.292  -5.129   7.837  0.00  0.00    +0.013 A 
ATOM     19  C   UNL     1      -1.288  -4.861   9.212  0.00  0.00    +0.012 A 
ATOM     20  C   UNL     1      -1.264  -5.931  10.088  0.00  0.00    +0.020 A 
ATOM     21  C   UNL     1      -1.246  -7.219   9.584  0.00  0.00    +0.111 A 
ATOM     22  N   UNL     1      -1.251  -7.443   8.284  0.00  0.00    -0.263 NA
ATOM     23  C   UNL     1      -1.279  -6.459   7.409  0.00  0.00    +0.120 A 
ENDBRANCH  17  18
ENDBRANCH  14  16
BRANCH   1  24
ATOM     24  C   UNL     1      -1.433  -0.534   0.013  0.00  0.00    +0.123 C 
BRANCH  24  26
ATOM     25  C   UNL     1      -0.019   1.526   0.010  0.00  0.00    +0.005 C 
ATOM     26  C   UNL     1       0.002  -0.004   0.002  0.00  0.00    +0.018 C 
ENDBRANCH  24  26
ENDBRANCH   1  24
TORSDOF 4
