REMARK  Name = ZINC49120961
REMARK  8 active torsions:
REMARK  status: ('A' for Active; 'I' for Inactive)
REMARK    1  A    between atoms: C_1  and  C_2
REMARK    2  A    between atoms: C_2  and  C_3
REMARK    3  A    between atoms: C_9  and  N_11
REMARK    4  A    between atoms: N_11  and  S_12
REMARK    5  A    between atoms: S_12  and  C_15
REMARK    6  A    between atoms: C_15  and  C_16
REMARK    7  A    between atoms: C_21  and  C_22
REMARK    8  A    between atoms: C_22  and  N_23
REMARK                            x       y       z     vdW  Elec       q    Type
REMARK                         _______ _______ _______ _____ _____    ______ ____
ROOT
ATOM      1  S   UNL     1      -1.249  -3.831   0.613  0.00  0.00    +0.034 S 
ATOM      2  O   UNL     1      -2.646  -3.898   0.865  0.00  0.00    -0.158 OA
ATOM      3  O   UNL     1      -0.757  -3.718  -0.715  0.00  0.00    -0.158 OA
ENDROOT
BRANCH   1   4
ATOM      4  N   UNL     1      -0.750  -2.444   1.369  0.00  0.00    -0.191 NA
ATOM      5  H   UNL     1      -1.389  -1.902   1.857  0.00  0.00    +0.148 HD
BRANCH   4  11
ATOM      6  C   UNL     1       0.742  -0.511   1.242  0.00  0.00    +0.007 C 
ATOM      7  C   UNL     1       2.210  -0.086   1.169  0.00  0.00    +0.005 C 
ATOM      8  C   UNL     1       2.950  -0.593   2.408  0.00  0.00    +0.000 C 
ATOM      9  C   UNL     1       2.863  -2.119   2.465  0.00  0.00    +0.002 C 
ATOM     10  C   UNL     1       1.395  -2.544   2.538  0.00  0.00    +0.020 C 
ATOM     11  C   UNL     1       0.655  -2.037   1.299  0.00  0.00    +0.079 C 
BRANCH   6  13
ATOM     12  C   UNL     1      -0.019   1.526   0.010  0.00  0.00    +0.004 C 
ATOM     13  C   UNL     1       0.002  -0.004   0.002  0.00  0.00    +0.002 C 
ENDBRANCH   6  13
ENDBRANCH   4  11
ENDBRANCH   1   4
BRANCH   1  14
ATOM     14  C   UNL     1      -0.392  -5.171   1.485  0.00  0.00    +0.220 C 
BRANCH  14  15
ATOM     15  C   UNL     1      -0.776  -6.494   0.874  0.00  0.00    -0.024 A 
ATOM     16  C   UNL     1      -1.872  -7.186   1.357  0.00  0.00    +0.005 A 
ATOM     17  C   UNL     1      -2.224  -8.399   0.797  0.00  0.00    +0.000 A 
ATOM     18  C   UNL     1      -1.481  -8.921  -0.246  0.00  0.00    +0.000 A 
ATOM     19  C   UNL     1      -0.386  -8.229  -0.729  0.00  0.00    +0.002 A 
ATOM     20  C   UNL     1      -0.036  -7.013  -0.171  0.00  0.00    -0.060 A 
BRANCH  20  21
ATOM     21  C   UNL     1       1.154  -6.256  -0.701  0.00  0.00    -0.050 C 
BRANCH  21  22
ATOM     22  N   UNL     1       2.309  -6.481   0.179  0.00  0.00    +0.381 N 
ATOM     23  H   UNL     1       3.106  -5.975  -0.176  0.00  0.00    -0.090 HD
ATOM     24  H   UNL     1       2.091  -6.157   1.109  0.00  0.00    -0.090 HD
ATOM     25  H   UNL     1       2.522  -7.467   0.207  0.00  0.00    -0.090 HD
ENDBRANCH  21  22
ENDBRANCH  20  21
ENDBRANCH  14  15
ENDBRANCH   1  14
TORSDOF 7
