REMARK  Name = ZINC09325464
REMARK  9 active torsions:
REMARK  status: ('A' for Active; 'I' for Inactive)
REMARK    1  A    between atoms: C_1  and  C_2
REMARK    2  A    between atoms: C_2  and  C_4
REMARK    3  A    between atoms: C_7  and  C_10
REMARK    4  A    between atoms: N_12  and  C_13
REMARK    5  A    between atoms: C_14  and  C_26
REMARK    6  A    between atoms: C_22  and  O_24
REMARK    7  A    between atoms: O_24  and  C_25
REMARK    8  A    between atoms: C_29  and  O_31
REMARK    9  A    between atoms: O_31  and  C_32
REMARK                            x       y       z     vdW  Elec       q    Type
REMARK                         _______ _______ _______ _____ _____    ______ ____
ROOT
ATOM      1  C   UNL     1       1.178   1.675  -0.001  0.00  0.00    +0.085 A 
ATOM      2  C   UNL     1       2.477   1.182  -0.008  0.00  0.00    +0.069 A 
ATOM      3  C   UNL     1       3.563   2.149  -0.016  0.00  0.00    -0.020 A 
ATOM      4  C   UNL     1       3.177   3.443  -0.020  0.00  0.00    +0.013 A 
ATOM      5  S   UNL     1       1.408   3.393  -0.014  0.00  0.00    -0.076 S 
ATOM      6  C   UNL     1       4.071   4.647  -0.034  0.00  0.00    +0.153 C 
ATOM      7  N   UNL     1       5.448   4.169   0.195  0.00  0.00    -0.262 N 
ATOM      8  C   UNL     1       5.869   2.947  -0.506  0.00  0.00    +0.116 C 
ATOM      9  C   UNL     1       5.036   1.761  -0.015  0.00  0.00    +0.056 C 
ATOM     10  C   UNL     1       6.289   4.828   1.017  0.00  0.00    +0.403 C 
ATOM     11  O   UNL     1       7.419   4.414   1.190  0.00  0.00    -0.226 OA
ENDROOT
BRANCH   2  12
ATOM     12  C   UNL     1       2.742  -0.259  -0.007  0.00  0.00    +0.255 C 
ATOM     13  O   UNL     1       2.845  -0.858  -1.061  0.00  0.00    -0.270 OA
ATOM     14  N   UNL     1       2.872  -0.919   1.160  0.00  0.00    -0.217 N 
ATOM     15  C   UNL     1       3.115  -2.245   1.161  0.00  0.00    +0.407 C 
ATOM     16  O   UNL     1       3.219  -2.844   0.109  0.00  0.00    -0.226 OA
ATOM     17  H   UNL     1       2.789  -0.441   2.000  0.00  0.00    +0.161 HD
BRANCH  15  18
ATOM     18  O   UNL     1       3.245  -2.905   2.326  0.00  0.00    -0.453 OA
ATOM     19  C   UNL     1       3.507  -4.331   2.251  0.00  0.00    +0.282 C 
ENDBRANCH  15  18
ENDBRANCH   2  12
BRANCH   1  22
ATOM     20  C   UNL     1      -1.188   1.624   0.009  0.00  0.00    +0.249 C 
ATOM     21  O   UNL     1      -1.204   2.840   0.006  0.00  0.00    -0.270 OA
ATOM     22  N   UNL     1      -0.011   0.967   0.009  0.00  0.00    -0.275 N 
ATOM     23  H   UNL     1       0.002  -0.003   0.011  0.00  0.00    +0.156 HD
BRANCH  20  27
ATOM     24  C   UNL     1      -4.843  -0.553   0.021  0.00  0.00    +0.017 A 
ATOM     25  C   UNL     1      -4.861   0.845   0.017  0.00  0.00    +0.012 A 
ATOM     26  C   UNL     1      -3.677   1.549   0.013  0.00  0.00    +0.014 A 
ATOM     27  C   UNL     1      -2.459   0.867   0.013  0.00  0.00    +0.037 A 
ATOM     28  C   UNL     1      -2.439  -0.529   0.010  0.00  0.00    +0.014 A 
ATOM     29  C   UNL     1      -3.622  -1.235   0.020  0.00  0.00    +0.012 A 
BRANCH  24  31
ATOM     30  C   UNL     1      -6.092  -2.809  -0.097  0.00  0.00    +0.091 C 
ATOM     31  C   UNL     1      -6.109  -1.308   0.025  0.00  0.00    +0.160 C 
ATOM     32  O   UNL     1      -7.164  -0.720   0.127  0.00  0.00    -0.292 OA
ENDBRANCH  24  31
ENDBRANCH  20  27
ENDBRANCH   1  22
BRANCH  10  33
ATOM     33  O   UNL     1       5.878   5.944   1.647  0.00  0.00    -0.454 OA
ATOM     34  C   UNL     1       6.836   6.602   2.517  0.00  0.00    +0.282 C 
ENDBRANCH  10  33
TORSDOF 6
