REMARK  Name = ZINC20615703
REMARK  6 active torsions:
REMARK  status: ('A' for Active; 'I' for Inactive)
REMARK    1  A    between atoms: C_1  and  C_2
REMARK    2  A    between atoms: C_2  and  N_3
REMARK    3  A    between atoms: C_4  and  C_8
REMARK    4  A    between atoms: C_10  and  C_27
REMARK    5  A    between atoms: N_14  and  C_20
REMARK    6  A    between atoms: C_24  and  C_26
REMARK                            x       y       z     vdW  Elec       q    Type
REMARK                         _______ _______ _______ _____ _____    ______ ____
ROOT
ATOM      1  C   UNL     1      -1.392   6.026  -3.016  0.00  0.00    +0.092 A 
ATOM      2  C   UNL     1      -1.358   7.425  -2.974  0.00  0.00    +0.046 A 
ATOM      3  C   UNL     1      -0.796   8.057  -1.869  0.00  0.00    +0.081 A 
ATOM      4  C   UNL     1      -0.284   7.246  -0.839  0.00  0.00    +0.096 A 
ATOM      5  C   UNL     1      -0.356   5.847  -0.956  0.00  0.00    +0.154 A 
ATOM      6  N   UNL     1      -0.899   5.293  -2.025  0.00  0.00    -0.227 NA
ATOM      7  N   UNL     1       0.156   5.079   0.074  0.00  0.00    -0.274 N 
ATOM      8  C   UNL     1       0.706   5.674   1.169  0.00  0.00    +0.167 A 
ATOM      9  N   UNL     1       0.794   6.980   1.308  0.00  0.00    -0.302 N 
ATOM     10  C   UNL     1       0.330   7.819   0.371  0.00  0.00    +0.262 A 
ATOM     11  O   UNL     1       0.414   9.027   0.516  0.00  0.00    -0.267 OA
ATOM     12  S   UNL     1       1.336   4.647   2.456  0.00  0.00    -0.012 S 
ATOM     13  H   UNL     1       1.257   7.407   2.210  0.00  0.00    +0.171 HD
ENDROOT
BRANCH   7  14
ATOM     14  C   UNL     1       0.103   3.682  -0.007  0.00  0.00    +0.051 A 
ATOM     15  C   UNL     1      -1.124   3.031  -0.010  0.00  0.00    +0.026 A 
ATOM     16  C   UNL     1      -1.173   1.654  -0.096  0.00  0.00    +0.002 A 
ATOM     17  C   UNL     1      -0.002   0.922  -0.167  0.00  0.00    +0.003 A 
ATOM     18  C   UNL     1       1.221   1.567  -0.164  0.00  0.00    -0.048 A 
ATOM     19  C   UNL     1       1.277   2.945  -0.084  0.00  0.00    +0.029 A 
ATOM     20  C   UNL     1       2.495   0.765  -0.248  0.00  0.00    +0.044 C 
ENDBRANCH   7  14
BRANCH   1  22
ATOM     21  N   UNL     1      -2.034   4.006  -4.412  0.00  0.00    -0.262 N 
ATOM     22  C   UNL     1      -1.988   5.351  -4.187  0.00  0.00    +0.087 A 
ATOM     23  C   UNL     1      -2.607   5.962  -5.256  0.00  0.00    +0.051 A 
ATOM     24  C   UNL     1      -3.020   4.961  -6.134  0.00  0.00    +0.135 A 
ATOM     25  N   UNL     1      -2.684   3.799  -5.635  0.00  0.00    -0.179 NA
BRANCH  21  27
ATOM     26  C   UNL     1      -2.625   2.402  -2.663  0.00  0.00    +0.029 C 
ATOM     27  C   UNL     1      -1.498   2.965  -3.531  0.00  0.00    +0.141 C 
ENDBRANCH  21  27
ENDBRANCH   1  22
BRANCH   3  28
ATOM     28  C   UNL     1      -0.738   9.534  -1.780  0.00  0.00    +0.387 C 
ATOM     29  O   UNL     1      -1.199  10.102  -0.811  0.00  0.00    -0.241 OA
ATOM     30  O   UNL     1      -0.174  10.247  -2.773  0.00  0.00    -0.241 OA
ENDBRANCH   3  28
TORSDOF 4
