REMARK  Name = ZINC08961463
REMARK  5 active torsions:
REMARK  status: ('A' for Active; 'I' for Inactive)
REMARK    1  A    between atoms: C_1  and  C_2
REMARK    2  A    between atoms: N_8  and  C_28
REMARK    3  A    between atoms: C_13  and  N_18
REMARK    4  A    between atoms: N_18  and  S_19
REMARK    5  A    between atoms: S_19  and  C_22
REMARK                            x       y       z     vdW  Elec       q    Type
REMARK                         _______ _______ _______ _____ _____    ______ ____
ROOT
ATOM      1  C   UNL     1      -1.903  -0.147  -0.134  0.00  0.00    +0.044 C 
ATOM      2  C   UNL     1      -0.583   0.578  -0.086  0.00  0.00    -0.048 A 
ATOM      3  C   UNL     1       0.592  -0.136   0.056  0.00  0.00    +0.007 A 
ATOM      4  C   UNL     1       1.804   0.527   0.087  0.00  0.00    +0.048 A 
ATOM      5  C   UNL     1       1.847   1.911  -0.016  0.00  0.00    +0.150 A 
ATOM      6  C   UNL     1       0.666   2.632  -0.137  0.00  0.00    +0.079 A 
ATOM      7  C   UNL     1      -0.549   1.955  -0.183  0.00  0.00    +0.030 A 
ATOM      8  N   UNL     1       0.662   4.026  -0.173  0.00  0.00    -0.267 N 
ATOM      9  C   UNL     1       1.534   4.795  -0.809  0.00  0.00    +0.254 C 
ATOM     10  O   UNL     1       1.371   5.998  -0.750  0.00  0.00    -0.270 OA
ATOM     11  C   UNL     1       2.685   4.303  -1.579  0.00  0.00    +0.081 A 
ATOM     12  C   UNL     1       3.064   4.960  -2.755  0.00  0.00    +0.041 A 
ATOM     13  C   UNL     1       4.182   4.536  -3.452  0.00  0.00    +0.049 A 
ATOM     14  C   UNL     1       4.928   3.459  -2.987  0.00  0.00    +0.028 A 
ATOM     15  C   UNL     1       4.552   2.799  -1.834  0.00  0.00    +0.049 A 
ATOM     16  C   UNL     1       3.427   3.206  -1.131  0.00  0.00    +0.141 A 
ATOM     17  O   UNL     1       3.052   2.532  -0.019  0.00  0.00    -0.453 OA
ATOM     18  C   UNL     1      -0.410   4.705   0.559  0.00  0.00    +0.139 C 
ENDROOT
BRANCH  13  19
ATOM     19  N   UNL     1       4.562   5.193  -4.628  0.00  0.00    -0.216 N 
ATOM     20  H   UNL     1       4.982   6.066  -4.582  0.00  0.00    +0.174 HD
BRANCH  19  21
ATOM     21  S   UNL     1       4.294   4.479  -6.099  0.00  0.00    +0.072 S 
ATOM     22  O   UNL     1       4.730   5.405  -7.085  0.00  0.00    -0.150 OA
ATOM     23  O   UNL     1       4.812   3.159  -6.010  0.00  0.00    -0.150 OA
BRANCH  21  24
ATOM     24  C   UNL     1       2.549   4.323  -6.292  0.00  0.00    +0.108 A 
ATOM     25  C   UNL     1       1.898   3.205  -5.807  0.00  0.00    +0.029 A 
ATOM     26  C   UNL     1       0.528   3.085  -5.954  0.00  0.00    +0.002 A 
ATOM     27  C   UNL     1      -0.188   4.079  -6.595  0.00  0.00    +0.000 A 
ATOM     28  C   UNL     1       0.465   5.194  -7.085  0.00  0.00    +0.002 A 
ATOM     29  C   UNL     1       1.833   5.317  -6.933  0.00  0.00    +0.029 A 
ENDBRANCH  21  24
ENDBRANCH  19  21
ENDBRANCH  13  19
TORSDOF 3
