REMARK  Name = ZINC21263542
REMARK  12 active torsions:
REMARK  status: ('A' for Active; 'I' for Inactive)
REMARK    1  A    between atoms: C_1  and  C_2
REMARK    2  A    between atoms: C_2  and  C_4
REMARK    3  A    between atoms: C_2  and  N_10
REMARK    4  A    between atoms: N_10  and  C_11
REMARK    5  A    between atoms: N_10  and  C_17
REMARK    6  A    between atoms: C_11  and  C_12
REMARK    7  A    between atoms: C_17  and  N_19
REMARK    8  A    between atoms: N_19  and  C_20
REMARK    9  A    between atoms: C_22  and  C_28
REMARK   10  A    between atoms: C_22  and  C_29
REMARK   11  A    between atoms: C_24  and  C_26
REMARK   12  A    between atoms: C_24  and  C_27
REMARK                            x       y       z     vdW  Elec       q    Type
REMARK                         _______ _______ _______ _____ _____    ______ ____
ROOT
ATOM      1  C   UNL     1      -1.475   3.106  -0.974  0.00  0.00    +0.134 C 
ATOM      2  S   UNL     1      -1.303   4.165   0.360  0.00  0.00    -0.019 S 
ENDROOT
BRANCH   1   3
ATOM      3  N   UNL     1      -1.073   1.824  -0.873  0.00  0.00    -0.324 N 
ATOM      4  H   UNL     1      -1.183   1.144  -1.731  0.00  0.00    +0.148 HD
BRANCH   3   5
ATOM      5  C   UNL     1      -0.488   1.334   0.382  0.00  0.00    +0.069 C 
ATOM      6  C   UNL     1       1.013   1.622   0.383  0.00  0.00    +0.009 C 
ATOM      7  C   UNL     1       1.651   1.104   1.670  0.00  0.00    -0.072 C 
ATOM      8  N   UNL     1       1.285  -0.264   1.971  0.00  0.00    +0.386 N 
ATOM      9  C   UNL     1      -0.074  -0.718   1.763  0.00  0.00    -0.072 C 
ATOM     10  C   UNL     1      -0.693  -0.177   0.477  0.00  0.00    +0.009 C 
ATOM     11  C   UNL     1      -0.968  -0.355   2.954  0.00  0.00    -0.010 C 
ATOM     12  C   UNL     1      -0.056  -2.260   1.658  0.00  0.00    -0.010 C 
ATOM     13  C   UNL     1       1.298   2.041   2.831  0.00  0.00    -0.010 C 
ATOM     14  C   UNL     1       3.184   1.163   1.485  0.00  0.00    -0.010 C 
ATOM     15  H   UNL     1       1.888  -0.949   1.357  0.00  0.00    -0.084 HD
ATOM     16  H   UNL     1       1.470  -0.467   3.036  0.00  0.00    -0.084 HD
ENDBRANCH   3   5
ENDBRANCH   1   3
BRANCH   1  17
ATOM     17  N   UNL     1      -2.012   3.556  -2.126  0.00  0.00    -0.299 N 
BRANCH  17  19
ATOM     18  C   UNL     1      -3.148   5.161  -3.580  0.00  0.00    +0.033 C 
ATOM     19  C   UNL     1      -2.448   4.950  -2.236  0.00  0.00    +0.103 C 
BRANCH  19  20
ATOM     20  C   UNL     1      -1.251   5.860  -2.144  0.00  0.00    -0.027 A 
ATOM     21  C   UNL     1      -0.068   5.510  -2.768  0.00  0.00    +0.005 A 
ATOM     22  C   UNL     1       1.030   6.348  -2.688  0.00  0.00    +0.000 A 
ATOM     23  C   UNL     1       0.946   7.530  -1.976  0.00  0.00    +0.000 A 
ATOM     24  C   UNL     1      -0.235   7.877  -1.348  0.00  0.00    +0.000 A 
ATOM     25  C   UNL     1      -1.333   7.042  -1.432  0.00  0.00    +0.005 A 
ENDBRANCH  19  20
ENDBRANCH  17  19
BRANCH  17  26
ATOM     26  C   UNL     1      -2.158   2.650  -3.268  0.00  0.00    +0.181 C 
BRANCH  26  27
ATOM     27  C   UNL     1      -3.448   1.882  -3.137  0.00  0.00    +0.122 A 
ATOM     28  C   UNL     1      -4.618   2.203  -3.719  0.00  0.00    +0.046 A 
ATOM     29  C   UNL     1      -5.553   1.217  -3.330  0.00  0.00    +0.041 A 
ATOM     30  C   UNL     1      -4.900   0.352  -2.533  0.00  0.00    +0.195 A 
ATOM     31  O   UNL     1      -3.624   0.757  -2.425  0.00  0.00    -0.466 OA
ENDBRANCH  26  27
ENDBRANCH  17  26
ENDBRANCH   1  17
TORSDOF 7
