REMARK  Name = ZINC36990445
REMARK  3 active torsions:
REMARK  status: ('A' for Active; 'I' for Inactive)
REMARK    1  A    between atoms: C_3  and  N_13
REMARK    2  A    between atoms: C_6  and  N_7
REMARK    3  A    between atoms: N_7  and  C_8
REMARK                            x       y       z     vdW  Elec       q    Type
REMARK                         _______ _______ _______ _____ _____    ______ ____
ROOT
ATOM      1  C   UNL     1      -0.017   1.389   0.010  0.00  0.00    +0.028 A 
ATOM      2  C   UNL     1       1.191   2.064   0.002  0.00  0.00    +0.050 A 
ATOM      3  C   UNL     1       2.374   1.336  -0.013  0.00  0.00    +0.156 A 
ATOM      4  N   UNL     1       2.355   0.013  -0.020  0.00  0.00    -0.234 NA
ATOM      5  C   UNL     1       1.224  -0.664  -0.013  0.00  0.00    +0.136 A 
ATOM      6  C   UNL     1       0.002  -0.004   0.002  0.00  0.00    +0.046 A 
ENDROOT
BRANCH   3   7
ATOM      7  N   UNL     1       3.601   2.010  -0.022  0.00  0.00    -0.202 N 
ATOM      8  C   UNL     1       4.828   1.454  -0.042  0.00  0.00    +0.226 A 
ATOM      9  N   UNL     1       5.710   2.420  -0.045  0.00  0.00    -0.222 NA
ATOM     10  C   UNL     1       5.090   3.600  -0.026  0.00  0.00    +0.245 A 
ATOM     11  N   UNL     1       3.798   3.401  -0.017  0.00  0.00    -0.152 NA
ENDBRANCH   3   7
BRANCH   6  12
ATOM     12  N   UNL     1      -1.194  -0.729   0.010  0.00  0.00    -0.340 N 
ATOM     13  H   UNL     1      -2.044  -0.261   0.021  0.00  0.00    +0.146 HD
BRANCH  12  14
ATOM     14  C   UNL     1      -1.163  -2.193   0.002  0.00  0.00    +0.070 C 
ATOM     15  C   UNL     1      -1.083  -2.728   1.447  0.00  0.00    +0.022 C 
ATOM     16  C   UNL     1      -2.555  -3.031   1.822  0.00  0.00    +0.002 C 
ATOM     17  C   UNL     1      -3.135  -3.595   0.501  0.00  0.00    +0.002 C 
ATOM     18  C   UNL     1      -2.468  -2.745  -0.599  0.00  0.00    +0.022 C 
ENDBRANCH  12  14
ENDBRANCH   6  12
TORSDOF 3
