REMARK  Name = ZINC09015855
REMARK  7 active torsions:
REMARK  status: ('A' for Active; 'I' for Inactive)
REMARK    1  A    between atoms: C_1  and  C_2
REMARK    2  A    between atoms: C_4  and  O_11
REMARK    3  A    between atoms: C_7  and  C_8
REMARK    4  A    between atoms: C_8  and  C_9
REMARK    5  A    between atoms: C_8  and  C_10
REMARK    6  A    between atoms: O_11  and  C_12
REMARK    7  A    between atoms: C_12  and  C_13
REMARK                            x       y       z     vdW  Elec       q    Type
REMARK                         _______ _______ _______ _____ _____    ______ ____
ROOT
ATOM      1  C   UNL     1      -0.072  -4.729  -3.726  0.00  0.00    +0.256 C 
ATOM      2  O   UNL     1      -0.380  -4.008  -4.651  0.00  0.00    -0.272 OA
ATOM      3  N   UNL     1       0.129  -6.045  -3.937  0.00  0.00    -0.262 N 
ATOM      4  C   UNL     1      -0.015  -6.573  -5.209  0.00  0.00    +0.166 A 
ATOM      5  N   UNL     1      -0.334  -5.959  -6.324  0.00  0.00    -0.225 NA
ATOM      6  C   UNL     1      -0.440  -6.606  -7.505  0.00  0.00    +0.080 A 
ATOM      7  C   UNL     1      -0.774  -6.067  -8.769  0.00  0.00    +0.029 A 
ATOM      8  C   UNL     1      -0.839  -6.870  -9.877  0.00  0.00    +0.002 A 
ATOM      9  C   UNL     1      -0.583  -8.231  -9.803  0.00  0.00    +0.001 A 
ATOM     10  C   UNL     1      -0.253  -8.792  -8.582  0.00  0.00    +0.017 A 
ATOM     11  C   UNL     1      -0.185  -7.996  -7.467  0.00  0.00    +0.041 A 
ATOM     12  S   UNL     1       0.192  -8.264  -5.751  0.00  0.00    -0.052 S 
ATOM     13  H   UNL     1       0.376  -6.622  -3.197  0.00  0.00    +0.157 HD
ENDROOT
BRANCH   1  14
ATOM     14  C   UNL     1       0.085  -4.154  -2.342  0.00  0.00    +0.324 C 
BRANCH  14  15
ATOM     15  O   UNL     1      -0.179  -2.750  -2.376  0.00  0.00    -0.483 OA
BRANCH  15  19
ATOM     16  C   UNL     1      -0.484   1.457   0.078  0.00  0.00    +0.044 C 
ATOM     17  C   UNL     1      -0.221  -0.026   0.034  0.00  0.00    -0.044 A 
ATOM     18  C   UNL     1      -0.322  -0.710  -1.162  0.00  0.00    +0.049 A 
ATOM     19  C   UNL     1      -0.079  -2.075  -1.201  0.00  0.00    +0.121 A 
ATOM     20  C   UNL     1       0.265  -2.750  -0.039  0.00  0.00    +0.046 A 
ATOM     21  C   UNL     1       0.365  -2.062   1.154  0.00  0.00    +0.008 A 
ATOM     22  C   UNL     1       0.127  -0.700   1.190  0.00  0.00    -0.042 A 
BRANCH  22  23
ATOM     23  C   UNL     1       0.243   0.050   2.492  0.00  0.00    +0.013 C 
ATOM     24  C   UNL     1      -0.844  -0.430   3.456  0.00  0.00    +0.012 C 
ATOM     25  C   UNL     1       1.620  -0.206   3.108  0.00  0.00    +0.012 C 
ENDBRANCH  22  23
ENDBRANCH  15  19
ENDBRANCH  14  15
ENDBRANCH   1  14
TORSDOF 4
