REMARK  Name = ZINC05348666
REMARK  7 active torsions:
REMARK  status: ('A' for Active; 'I' for Inactive)
REMARK    1  A    between atoms: C_1  and  C_2
REMARK    2  A    between atoms: C_4  and  O_27
REMARK    3  A    between atoms: C_6  and  C_26
REMARK    4  A    between atoms: C_7  and  C_13
REMARK    5  A    between atoms: C_13  and  C_14
REMARK    6  A    between atoms: N_16  and  C_17
REMARK    7  A    between atoms: C_17  and  C_18
REMARK                            x       y       z     vdW  Elec       q    Type
REMARK                         _______ _______ _______ _____ _____    ______ ____
ROOT
ATOM      1  C   UNL     1       3.885  11.705   0.888  0.00  0.00    +0.044 C 
ATOM      2  C   UNL     1       3.648  10.219   0.970  0.00  0.00    -0.043 A 
ATOM      3  C   UNL     1       3.679   9.588   2.202  0.00  0.00    +0.049 A 
ATOM      4  C   UNL     1       3.464   8.224   2.293  0.00  0.00    +0.128 A 
ATOM      5  C   UNL     1       3.212   7.486   1.126  0.00  0.00    +0.062 A 
ATOM      6  C   UNL     1       2.980   6.042   1.182  0.00  0.00    -0.026 A 
ATOM      7  C   UNL     1       2.743   5.384   0.016  0.00  0.00    +0.049 A 
ATOM      8  C   UNL     1       2.733   6.097  -1.200  0.00  0.00    +0.341 A 
ATOM      9  O   UNL     1       2.524   5.495  -2.239  0.00  0.00    -0.245 OA
ATOM     10  O   UNL     1       2.942   7.422  -1.243  0.00  0.00    -0.422 OA
ATOM     11  C   UNL     1       3.183   8.134  -0.121  0.00  0.00    +0.143 A 
ATOM     12  C   UNL     1       3.402   9.503  -0.185  0.00  0.00    +0.050 A 
ATOM     13  C   UNL     1       3.002   5.304   2.496  0.00  0.00    +0.045 C 
ENDROOT
BRANCH   4  14
ATOM     14  O   UNL     1       3.494   7.606   3.501  0.00  0.00    -0.506 OA
ATOM     15  H   UNL     1       4.369   7.282   3.755  0.00  0.00    +0.292 HD
ENDBRANCH   4  14
BRANCH   7  16
ATOM     16  C   UNL     1       2.497   3.897   0.024  0.00  0.00    +0.138 C 
BRANCH  16  17
ATOM     17  C   UNL     1       1.022   3.632   0.179  0.00  0.00    +0.218 C 
ATOM     18  O   UNL     1       0.246   4.560   0.275  0.00  0.00    -0.275 OA
ATOM     19  N   UNL     1       0.565   2.365   0.212  0.00  0.00    -0.311 N 
ATOM     20  H   UNL     1       1.185   1.623   0.136  0.00  0.00    +0.149 HD
BRANCH  19  21
ATOM     21  C   UNL     1      -0.869   2.107   0.364  0.00  0.00    +0.144 C 
BRANCH  21  22
ATOM     22  C   UNL     1      -1.115   0.621   0.371  0.00  0.00    +0.023 A 
ATOM     23  C   UNL     1      -1.362  -0.047  -0.817  0.00  0.00    +0.129 A 
ATOM     24  C   UNL     1      -1.581  -1.414  -0.809  0.00  0.00    +0.039 A 
ATOM     25  C   UNL     1      -1.565  -2.110   0.385  0.00  0.00    +0.004 A 
ATOM     26  C   UNL     1      -1.324  -1.443   1.571  0.00  0.00    +0.020 A 
ATOM     27  C   UNL     1      -1.099  -0.077   1.565  0.00  0.00    +0.048 A 
ATOM     28 CL   UNL     1      -0.796   0.759   3.056  0.00  0.00    -0.083 Cl
ATOM     29  F   UNL     1      -1.383   0.635  -1.983  0.00  0.00    -0.205 F 
ENDBRANCH  21  22
ENDBRANCH  19  21
ENDBRANCH  16  17
ENDBRANCH   7  16
TORSDOF 5
