REMARK  Name = ZINC36159867
REMARK  8 active torsions:
REMARK  status: ('A' for Active; 'I' for Inactive)
REMARK    1  A    between atoms: C_4  and  N_7
REMARK    2  A    between atoms: N_7  and  C_8
REMARK    3  A    between atoms: N_7  and  C_23
REMARK    4  A    between atoms: C_8  and  C_9
REMARK    5  A    between atoms: C_23  and  C_24
REMARK    6  A    between atoms: C_24  and  C_26
REMARK    7  A    between atoms: C_24  and  O_33
REMARK    8  A    between atoms: C_26  and  N_27
REMARK                            x       y       z     vdW  Elec       q    Type
REMARK                         _______ _______ _______ _____ _____    ______ ____
ROOT
ATOM      1  N   UNL     1       2.651  -0.369  -2.298  0.00  0.00    +0.388 N 
ATOM      2  H   UNL     1       1.805   0.105  -2.577  0.00  0.00    -0.081 HD
ENDROOT
BRANCH   1   6
ATOM      3  C   UNL     1       2.825  -2.095   1.604  0.00  0.00    -0.000 C 
ATOM      4  C   UNL     1       1.533  -1.396   1.179  0.00  0.00    -0.002 C 
ATOM      5  C   UNL     1       1.490  -1.286  -0.346  0.00  0.00    -0.015 C 
ATOM      6  C   UNL     1       2.692  -0.475  -0.833  0.00  0.00    -0.068 C 
ATOM      7  C   UNL     1       3.985  -1.174  -0.409  0.00  0.00    -0.015 C 
ATOM      8  C   UNL     1       4.028  -1.284   1.117  0.00  0.00    -0.002 C 
ENDBRANCH   1   6
BRANCH   1   9
ATOM      9  C   UNL     1       2.675  -1.715  -2.887  0.00  0.00    -0.003 C 
BRANCH   9  10
ATOM     10  C   UNL     1       1.278  -2.281  -2.904  0.00  0.00    +0.094 A 
ATOM     11  N   UNL     1       1.089  -3.576  -3.266  0.00  0.00    -0.312 N 
ATOM     12  H   UNL     1       1.856  -4.119  -3.507  0.00  0.00    +0.170 HD
ATOM     13  C   UNL     1      -0.142  -4.122  -3.295  0.00  0.00    +0.260 A 
ATOM     14  O   UNL     1      -0.297  -5.286  -3.622  0.00  0.00    -0.267 OA
ATOM     15  C   UNL     1      -1.265  -3.309  -2.936  0.00  0.00    +0.075 A 
ATOM     16  C   UNL     1      -2.685  -3.690  -2.896  0.00  0.00    -0.023 A 
ATOM     17  C   UNL     1      -3.559  -2.739  -2.524  0.00  0.00    -0.004 A 
ATOM     18  S   UNL     1      -2.564  -1.300  -2.204  0.00  0.00    -0.073 S 
ATOM     19  C   UNL     1      -0.972  -1.987  -2.577  0.00  0.00    +0.116 A 
ATOM     20  N   UNL     1       0.273  -1.518  -2.566  0.00  0.00    -0.229 NA
ATOM     21  C   UNL     1      -4.978  -3.240  -2.526  0.00  0.00    +0.043 C 
ATOM     22  C   UNL     1      -4.932  -4.533  -3.369  0.00  0.00    +0.010 C 
ATOM     23  C   UNL     1      -3.467  -4.974  -3.187  0.00  0.00    +0.037 C 
ENDBRANCH   9  10
ENDBRANCH   1   9
BRANCH   1  24
ATOM     24  C   UNL     1       3.816   0.392  -2.767  0.00  0.00    -0.045 C 
BRANCH  24  25
ATOM     25  C   UNL     1       3.716   1.835  -2.271  0.00  0.00    +0.112 C 
BRANCH  25  26
ATOM     26  O   UNL     1       2.521   2.432  -2.778  0.00  0.00    -0.392 OA
ATOM     27  H   UNL     1       2.473   2.458  -3.744  0.00  0.00    +0.210 HD
ENDBRANCH  25  26
BRANCH  25  28
ATOM     28  C   UNL     1       4.929   2.628  -2.761  0.00  0.00    +0.114 C 
BRANCH  28  29
ATOM     29  N   UNL     1       4.822   4.020  -2.303  0.00  0.00    -0.296 NA
ATOM     30  C   UNL     1       5.682   4.905  -3.101  0.00  0.00    +0.112 C 
ATOM     31  C   UNL     1       5.496   6.350  -2.630  0.00  0.00    +0.175 C 
ATOM     32  O   UNL     1       5.785   6.431  -1.232  0.00  0.00    -0.377 OA
ATOM     33  C   UNL     1       4.965   5.582  -0.424  0.00  0.00    +0.175 C 
ATOM     34  C   UNL     1       5.147   4.130  -0.873  0.00  0.00    +0.112 C 
ENDBRANCH  28  29
ENDBRANCH  25  28
ENDBRANCH  24  25
ENDBRANCH   1  24
TORSDOF 8
