REMARK  Name = ZINC08620762
REMARK  6 active torsions:
REMARK  status: ('A' for Active; 'I' for Inactive)
REMARK    1  A    between atoms: C_7  and  C_20
REMARK    2  A    between atoms: C_12  and  C_13
REMARK    3  A    between atoms: C_20  and  O_22
REMARK    4  A    between atoms: O_22  and  C_23
REMARK    5  A    between atoms: C_23  and  C_24
REMARK    6  A    between atoms: N_29  and  C_30
REMARK                            x       y       z     vdW  Elec       q    Type
REMARK                         _______ _______ _______ _____ _____    ______ ____
ROOT
ATOM      1  C   UNL     1      12.333   0.990   4.809  0.00  0.00    +0.001 A 
ATOM      2  C   UNL     1      13.150   1.722   5.667  0.00  0.00    +0.002 A 
ATOM      3  C   UNL     1      13.350   3.056   5.480  0.00  0.00    +0.028 A 
ATOM      4  C   UNL     1      12.709   3.716   4.414  0.00  0.00    +0.072 A 
ATOM      5  C   UNL     1      11.874   2.965   3.549  0.00  0.00    +0.015 A 
ATOM      6  C   UNL     1      11.700   1.594   3.762  0.00  0.00    +0.011 A 
ATOM      7  C   UNL     1      11.216   3.658   2.440  0.00  0.00    +0.073 A 
ATOM      8  C   UNL     1      11.443   5.020   2.311  0.00  0.00    -0.007 A 
ATOM      9  C   UNL     1      12.283   5.682   3.223  0.00  0.00    +0.072 A 
ATOM     10  N   UNL     1      12.871   5.022   4.217  0.00  0.00    -0.247 NA
ATOM     11  C   UNL     1      12.370   7.113   2.886  0.00  0.00    -0.018 C 
ATOM     12  C   UNL     1      13.090   8.040   3.554  0.00  0.00    +0.052 C 
ATOM     13  C   UNL     1      11.518   7.367   1.668  0.00  0.00    +0.042 C 
ATOM     14  C   UNL     1      10.917   6.005   1.296  0.00  0.00    +0.043 C 
ENDROOT
BRANCH  12  15
ATOM     15  C   UNL     1      13.086   9.432   3.106  0.00  0.00    +0.128 A 
ATOM     16  C   UNL     1      13.762  10.466   3.690  0.00  0.00    +0.049 A 
ATOM     17  C   UNL     1      13.476  11.615   2.933  0.00  0.00    +0.042 A 
ATOM     18  C   UNL     1      12.643  11.239   1.940  0.00  0.00    +0.195 A 
ATOM     19  O   UNL     1      12.410   9.922   2.047  0.00  0.00    -0.464 OA
ENDBRANCH  12  15
BRANCH   7  20
ATOM     20  C   UNL     1      10.338   2.934   1.497  0.00  0.00    +0.341 C 
ATOM     21  O   UNL     1      10.804   2.440   0.490  0.00  0.00    -0.245 OA
BRANCH  20  22
ATOM     22  O   UNL     1       9.020   2.822   1.755  0.00  0.00    -0.452 OA
BRANCH  22  23
ATOM     23  C   UNL     1       8.218   2.098   0.785  0.00  0.00    +0.328 C 
BRANCH  23  24
ATOM     24  C   UNL     1       6.781   2.076   1.238  0.00  0.00    +0.258 C 
ATOM     25  O   UNL     1       6.464   2.617   2.276  0.00  0.00    -0.272 OA
ATOM     26  N   UNL     1       5.848   1.455   0.490  0.00  0.00    -0.237 N 
ATOM     27  C   UNL     1       4.563   1.435   0.895  0.00  0.00    +0.306 C 
ATOM     28  O   UNL     1       4.245   1.978   1.935  0.00  0.00    -0.252 OA
ATOM     29  N   UNL     1       3.630   0.814   0.146  0.00  0.00    -0.296 N 
ATOM     30  H   UNL     1       6.101   1.022  -0.341  0.00  0.00    +0.159 HD
ATOM     31  H   UNL     1       3.883   0.381  -0.684  0.00  0.00    +0.151 HD
BRANCH  29  32
ATOM     32  C   UNL     1       2.232   0.792   0.586  0.00  0.00    +0.074 C 
ATOM     33  C   UNL     1       1.453   1.995  -0.001  0.00  0.00    +0.022 C 
ATOM     34  C   UNL     1      -0.019   1.534   0.011  0.00  0.00    +0.002 C 
ATOM     35  C   UNL     1       0.002  -0.004   0.002  0.00  0.00    +0.002 C 
ATOM     36  C   UNL     1       1.486  -0.425  -0.014  0.00  0.00    +0.022 C 
ENDBRANCH  29  32
ENDBRANCH  23  24
ENDBRANCH  22  23
ENDBRANCH  20  22
ENDBRANCH   7  20
TORSDOF 6
