REMARK  Name = ZINC04453080
REMARK  7 active torsions:
REMARK  status: ('A' for Active; 'I' for Inactive)
REMARK    1  A    between atoms: C_1  and  C_2
REMARK    2  A    between atoms: C_2  and  O_3
REMARK    3  A    between atoms: O_3  and  C_4
REMARK    4  A    between atoms: C_7  and  C_10
REMARK    5  A    between atoms: C_17  and  N_28
REMARK    6  A    between atoms: C_18  and  C_26
REMARK    7  A    between atoms: C_19  and  C_21
REMARK                            x       y       z     vdW  Elec       q    Type
REMARK                         _______ _______ _______ _____ _____    ______ ____
ROOT
ATOM      1  C   UNL     1       1.109  -6.012  -1.842  0.00  0.00    +0.074 A 
ATOM      2  C   UNL     1       2.190  -6.685  -2.305  0.00  0.00    +0.054 A 
ATOM      3  C   UNL     1       1.878  -8.059  -2.315  0.00  0.00    +0.245 A 
ATOM      4  N   UNL     1       0.660  -8.206  -1.877  0.00  0.00    -0.135 NA
ATOM      5  N   UNL     1       0.144  -6.939  -1.562  0.00  0.00    -0.273 N 
ATOM      6  H   UNL     1      -0.741  -6.753  -1.211  0.00  0.00    +0.189 HD
ATOM      7  O   UNL     1       2.772  -8.997  -2.730  0.00  0.00    -0.421 OA
ATOM      8  C   UNL     1       4.054  -8.611  -2.876  0.00  0.00    +0.201 C 
ATOM      9  C   UNL     1       4.470  -7.328  -2.895  0.00  0.00    +0.099 C 
ATOM     10  C   UNL     1       3.528  -6.158  -2.756  0.00  0.00    +0.108 C 
ENDROOT
BRANCH   1  14
ATOM     11  C   UNL     1       0.784  -1.804  -1.334  0.00  0.00    +0.121 A 
ATOM     12  C   UNL     1      -0.237  -2.507  -1.959  0.00  0.00    +0.046 A 
ATOM     13  C   UNL     1      -0.135  -3.872  -2.126  0.00  0.00    +0.013 A 
ATOM     14  C   UNL     1       0.996  -4.547  -1.665  0.00  0.00    +0.000 A 
ATOM     15  C   UNL     1       2.021  -3.837  -1.038  0.00  0.00    +0.013 A 
ATOM     16  C   UNL     1       1.914  -2.472  -0.879  0.00  0.00    +0.046 A 
BRANCH  11  17
ATOM     17  O   UNL     1       0.681  -0.460  -1.171  0.00  0.00    -0.492 OA
BRANCH  17  19
ATOM     18  C   UNL     1      -0.444   1.668  -1.392  0.00  0.00    +0.048 C 
ATOM     19  C   UNL     1      -0.508   0.164  -1.663  0.00  0.00    +0.225 C 
ENDBRANCH  17  19
ENDBRANCH  11  17
ENDBRANCH   1  14
BRANCH  10  20
ATOM     20  C   UNL     1       3.380  -5.463  -4.085  0.00  0.00    +0.003 A 
ATOM     21  C   UNL     1       3.735  -4.202  -4.432  0.00  0.00    +0.012 A 
ATOM     22  C   UNL     1       3.502  -3.772  -5.725  0.00  0.00    +0.008 A 
ATOM     23  C   UNL     1       2.926  -4.625  -6.607  0.00  0.00    +0.045 A 
ATOM     24  S   UNL     1       2.700  -6.090  -5.612  0.00  0.00    -0.101 S 
ENDBRANCH  10  20
BRANCH   8  25
ATOM     25  N   UNL     1       5.004  -9.592  -3.016  0.00  0.00    -0.328 N 
ATOM     26  H   UNL     1       4.742 -10.526  -3.008  0.00  0.00    +0.145 HD
ATOM     27  H   UNL     1       5.938  -9.352  -3.124  0.00  0.00    +0.145 HD
ENDBRANCH   8  25
BRANCH   9  28
ATOM     28  C   UNL     1       5.868  -7.064  -3.054  0.00  0.00    +0.101 C 
ATOM     29  N   UNL     1       6.978  -6.855  -3.180  0.00  0.00    -0.191 NA
ENDBRANCH   9  28
TORSDOF 6
