REMARK  Name = ZINC35484827
REMARK  9 active torsions:
REMARK  status: ('A' for Active; 'I' for Inactive)
REMARK    1  A    between atoms: C_1  and  C_2
REMARK    2  A    between atoms: C_9  and  C_12
REMARK    3  A    between atoms: C_10  and  C_11
REMARK    4  A    between atoms: C_12  and  C_13
REMARK    5  A    between atoms: C_14  and  C_29
REMARK    6  A    between atoms: N_16  and  C_21
REMARK    7  A    between atoms: C_21  and  C_22
REMARK    8  A    between atoms: C_22  and  C_23
REMARK    9  A    between atoms: C_32  and  O_35
REMARK                            x       y       z     vdW  Elec       q    Type
REMARK                         _______ _______ _______ _____ _____    ______ ____
ROOT
ATOM      1  C   UNL     1      -0.330  -0.111   5.530  0.00  0.00    +0.078 C 
ATOM      2  C   UNL     1      -0.562   1.238   4.889  0.00  0.00    +0.145 C 
ATOM      3  N   UNL     1      -0.395   2.232   5.957  0.00  0.00    -0.283 N 
ATOM      4  C   UNL     1      -0.102   1.574   7.093  0.00  0.00    +0.288 C 
ATOM      5  O   UNL     1       0.098   2.098   8.171  0.00  0.00    -0.266 OA
ATOM      6  C   UNL     1      -0.065   0.119   6.838  0.00  0.00    +0.249 C 
ATOM      7  O   UNL     1       0.195  -0.833   7.763  0.00  0.00    -0.282 OA
ENDROOT
BRANCH   2   8
ATOM      8  C   UNL     1      -1.958   1.311   4.326  0.00  0.00    -0.022 A 
ATOM      9  C   UNL     1      -3.042   1.398   5.179  0.00  0.00    +0.009 A 
ATOM     10  C   UNL     1      -4.323   1.465   4.665  0.00  0.00    +0.046 A 
ATOM     11  C   UNL     1      -4.520   1.445   3.292  0.00  0.00    +0.117 A 
ATOM     12  C   UNL     1      -3.430   1.359   2.438  0.00  0.00    +0.046 A 
ATOM     13  C   UNL     1      -2.151   1.297   2.957  0.00  0.00    +0.009 A 
BRANCH  11  14
ATOM     14  O   UNL     1      -5.779   1.511   2.784  0.00  0.00    -0.507 OA
ATOM     15  H   UNL     1      -6.089   2.411   2.617  0.00  0.00    +0.292 HD
ENDBRANCH  11  14
ENDBRANCH   2   8
BRANCH   1  16
ATOM     16  C   UNL     1      -0.388  -1.416   4.865  0.00  0.00    +0.215 C 
ATOM     17  O   UNL     1      -0.471  -1.478   3.653  0.00  0.00    -0.285 OA
BRANCH  16  26
ATOM     18  C   UNL     1      -0.433  -3.783   9.895  0.00  0.00    +0.047 C 
ATOM     19  C   UNL     1      -0.341  -4.618   8.644  0.00  0.00    -0.008 A 
ATOM     20  C   UNL     1      -0.273  -5.973   8.726  0.00  0.00    +0.008 A 
ATOM     21  C   UNL     1      -0.188  -6.740   7.551  0.00  0.00    +0.018 A 
ATOM     22  C   UNL     1      -0.173  -6.138   6.345  0.00  0.00    +0.093 A 
ATOM     23  N   UNL     1      -0.241  -4.776   6.245  0.00  0.00    -0.303 N 
ATOM     24  C   UNL     1      -0.331  -4.000   7.374  0.00  0.00    +0.141 A 
ATOM     25  N   UNL     1      -0.390  -2.730   7.010  0.00  0.00    -0.224 NA
ATOM     26  C   UNL     1      -0.346  -2.655   5.667  0.00  0.00    +0.133 A 
ATOM     27  C   UNL     1      -0.244  -3.937   5.172  0.00  0.00    +0.051 A 
ATOM     28  C   UNL     1      -0.166  -4.335   3.721  0.00  0.00    +0.066 C 
ENDBRANCH  16  26
ENDBRANCH   1  16
BRANCH   3  29
ATOM     29  C   UNL     1      -0.525   3.684   5.810  0.00  0.00    +0.114 C 
BRANCH  29  30
ATOM     30  C   UNL     1      -1.976   4.095   6.067  0.00  0.00    +0.054 C 
BRANCH  30  31
ATOM     31  C   UNL     1      -2.110   5.588   5.916  0.00  0.00    -0.046 A 
ATOM     32  C   UNL     1      -1.921   6.412   7.010  0.00  0.00    +0.004 A 
ATOM     33  C   UNL     1      -2.043   7.782   6.872  0.00  0.00    +0.000 A 
ATOM     34  C   UNL     1      -2.354   8.328   5.640  0.00  0.00    +0.000 A 
ATOM     35  C   UNL     1      -2.543   7.504   4.547  0.00  0.00    +0.000 A 
ATOM     36  C   UNL     1      -2.416   6.134   4.684  0.00  0.00    +0.004 A 
ENDBRANCH  30  31
ENDBRANCH  29  30
ENDBRANCH   3  29
TORSDOF 7
