REMARK  Name = ZINC40011180
REMARK  8 active torsions:
REMARK  status: ('A' for Active; 'I' for Inactive)
REMARK    1  A    between atoms: C_1  and  O_2
REMARK    2  A    between atoms: O_2  and  C_3
REMARK    3  A    between atoms: C_3  and  C_4
REMARK    4  A    between atoms: C_4  and  N_5
REMARK    5  A    between atoms: N_5  and  C_6
REMARK    6  A    between atoms: C_8  and  C_18
REMARK    7  A    between atoms: C_24  and  O_30
REMARK    8  A    between atoms: O_30  and  C_31
REMARK                            x       y       z     vdW  Elec       q    Type
REMARK                         _______ _______ _______ _____ _____    ______ ____
ROOT
ATOM      1  C   UNL     1      -0.436  -4.025   1.410  0.00  0.00    +0.173 C 
ATOM      2  C   UNL     1       0.913  -4.429   2.031  0.00  0.00    +0.158 C 
ATOM      3  N   UNL     1       0.542  -5.129   3.266  0.00  0.00    -0.261 NA
ATOM      4  C   UNL     1      -0.768  -5.161   3.398  0.00  0.00    +0.122 C 
ATOM      5  N   UNL     1      -1.430  -4.545   2.365  0.00  0.00    -0.272 N 
ATOM      6  C   UNL     1      -2.794  -4.486   2.338  0.00  0.00    +0.098 C 
ATOM      7  C   UNL     1      -3.531  -5.034   3.327  0.00  0.00    +0.055 C 
ATOM      8  C   UNL     1      -2.895  -5.676   4.404  0.00  0.00    +0.024 C 
ATOM      9  C   UNL     1      -1.533  -5.742   4.449  0.00  0.00    +0.045 C 
ATOM     10 CL   UNL     1      -5.263  -4.945   3.269  0.00  0.00    -0.082 Cl
ENDROOT
BRANCH   2  11
ATOM     11  C   UNL     1       1.752  -3.189   2.346  0.00  0.00    +0.126 C 
ATOM     12  C   UNL     1       3.183  -3.638   2.563  0.00  0.00    -0.003 C 
ATOM     13  C   UNL     1       3.757  -3.341   3.760  0.00  0.00    -0.007 A 
ATOM     14  C   UNL     1       5.137  -3.740   4.047  0.00  0.00    +0.013 A 
ATOM     15  C   UNL     1       5.676  -3.428   5.250  0.00  0.00    +0.046 A 
ATOM     16  C   UNL     1       4.938  -2.732   6.220  0.00  0.00    +0.122 A 
ATOM     17  C   UNL     1       3.638  -2.331   6.008  0.00  0.00    +0.069 A 
ATOM     18  C   UNL     1       2.999  -2.612   4.793  0.00  0.00    +0.044 A 
ATOM     19  N   UNL     1       1.737  -2.219   4.598  0.00  0.00    -0.284 N 
ATOM     20  C   UNL     1       1.076  -2.448   3.478  0.00  0.00    +0.226 C 
ATOM     21  O   UNL     1      -0.072  -2.065   3.359  0.00  0.00    -0.275 OA
ATOM     22  H   UNL     1       1.286  -1.742   5.313  0.00  0.00    +0.155 HD
BRANCH  16  23
ATOM     23  O   UNL     1       5.526  -2.446   7.407  0.00  0.00    -0.495 OA
ATOM     24  C   UNL     1       6.875  -2.880   7.584  0.00  0.00    +0.277 C 
ENDBRANCH  16  23
ENDBRANCH   2  11
BRANCH   1  25
ATOM     25  N   UNL     1      -0.538  -2.564   1.301  0.00  0.00    -0.294 NA
ATOM     26  H   UNL     1       0.296  -2.173   0.889  0.00  0.00    +0.124 HD
BRANCH  25  27
ATOM     27  C   UNL     1      -1.733  -2.174   0.541  0.00  0.00    +0.110 C 
BRANCH  27  28
ATOM     28  C   UNL     1      -1.725  -0.661   0.319  0.00  0.00    +0.174 C 
BRANCH  28  30
ATOM     29  C   UNL     1      -0.517   1.092  -0.783  0.00  0.00    +0.194 C 
ATOM     30  O   UNL     1      -0.617  -0.307  -0.512  0.00  0.00    -0.382 OA
ENDBRANCH  28  30
ENDBRANCH  27  28
ENDBRANCH  25  27
ENDBRANCH   1  25
TORSDOF 6
