REMARK  Name = ZINC66976823
REMARK  4 active torsions:
REMARK  status: ('A' for Active; 'I' for Inactive)
REMARK    1  A    between atoms: C_10  and  C_11
REMARK    2  A    between atoms: C_10  and  O_26
REMARK    3  A    between atoms: C_11  and  N_12
REMARK    4  A    between atoms: N_15  and  C_16
REMARK                            x       y       z     vdW  Elec       q    Type
REMARK                         _______ _______ _______ _____ _____    ______ ____
ROOT
ATOM      1  N   UNL     1       4.837   1.444   0.478  0.00  0.00    -0.296 N 
ATOM      2  C   UNL     1       5.710   2.251   1.112  0.00  0.00    +0.300 C 
ATOM      3  O   UNL     1       6.375   1.822   2.035  0.00  0.00    -0.253 OA
ATOM      4  N   UNL     1       5.846   3.534   0.723  0.00  0.00    -0.297 N 
ATOM      5  H   UNL     1       4.306   1.786  -0.259  0.00  0.00    +0.150 HD
ATOM      6  H   UNL     1       5.316   3.877  -0.014  0.00  0.00    +0.151 HD
ENDROOT
BRANCH   4   7
ATOM      7  C   UNL     1       6.795   4.412   1.412  0.00  0.00    +0.075 C 
ATOM      8  C   UNL     1       8.188   4.233   0.806  0.00  0.00    +0.027 C 
ATOM      9  C   UNL     1       9.180   5.147   1.528  0.00  0.00    +0.067 C 
ATOM     10  C   UNL     1       8.736   6.602   1.376  0.00  0.00    +0.170 C 
ATOM     11  C   UNL     1       7.341   6.784   1.976  0.00  0.00    +0.067 C 
ATOM     12  C   UNL     1       6.352   5.868   1.253  0.00  0.00    +0.027 C 
ATOM     13  O   UNL     1       9.666   7.460   2.057  0.00  0.00    -0.346 OA
ATOM     14  C   UNL     1      10.588   7.896   1.030  0.00  0.00    +0.191 C 
ATOM     15  C   UNL     1       9.652   8.034  -0.196  0.00  0.00    +0.191 C 
ATOM     16  O   UNL     1       8.713   6.955  -0.013  0.00  0.00    -0.346 OA
ENDBRANCH   4   7
BRANCH   1  17
ATOM     17  C   UNL     1       4.689   0.049   0.901  0.00  0.00    +0.145 C 
BRANCH  17  27
ATOM     18  C   UNL     1       3.502  -4.769   1.163  0.00  0.00    +0.000 A 
ATOM     19  C   UNL     1       3.495  -3.749   2.096  0.00  0.00    +0.000 A 
ATOM     20  C   UNL     1       3.578  -2.438   1.677  0.00  0.00    +0.007 A 
ATOM     21  C   UNL     1       3.670  -2.133   0.325  0.00  0.00    -0.011 A 
ATOM     22  C   UNL     1       3.682  -3.149  -0.604  0.00  0.00    -0.041 A 
ATOM     23  C   UNL     1       3.594  -4.469  -0.180  0.00  0.00    +0.004 A 
ATOM     24  C   UNL     1       3.796  -2.893  -2.084  0.00  0.00    +0.035 C 
ATOM     25  C   UNL     1       3.451  -1.440  -2.406  0.00  0.00    +0.008 C 
ATOM     26  C   UNL     1       4.277  -0.532  -1.488  0.00  0.00    +0.041 C 
ATOM     27  C   UNL     1       3.750  -0.679  -0.063  0.00  0.00    +0.107 C 
BRANCH  27  28
ATOM     28  O   UNL     1       2.447  -0.097   0.020  0.00  0.00    -0.382 OA
ATOM     29  H   UNL     1       2.054  -0.138   0.902  0.00  0.00    +0.211 HD
ENDBRANCH  27  28
ENDBRANCH  17  27
ENDBRANCH   1  17
TORSDOF 4
