REMARK  Name = ZINC04308686
REMARK  10 active torsions:
REMARK  status: ('A' for Active; 'I' for Inactive)
REMARK    1  A    between atoms: C_1  and  C_2
REMARK    2  A    between atoms: C_2  and  O_3
REMARK    3  A    between atoms: O_3  and  C_4
REMARK    4  A    between atoms: C_4  and  C_6
REMARK    5  A    between atoms: C_7  and  C_30
REMARK    6  A    between atoms: C_8  and  C_13
REMARK    7  A    between atoms: C_11  and  C_12
REMARK    8  A    between atoms: C_13  and  C_15
REMARK    9  A    between atoms: C_15  and  N_16
REMARK   10  A    between atoms: C_24  and  C_26
REMARK                            x       y       z     vdW  Elec       q    Type
REMARK                         _______ _______ _______ _____ _____    ______ ____
ROOT
ATOM      1  C   UNL     1      -0.718   1.572   1.248  0.00  0.00    +0.197 C 
ATOM      2  O   UNL     1      -1.716   2.257   1.150  0.00  0.00    -0.289 OA
ENDROOT
BRANCH   1   5
ATOM      3  C   UNL     1       0.054   1.045   4.743  0.00  0.00    +0.083 A 
ATOM      4  C   UNL     1      -0.762   1.605   3.736  0.00  0.00    -0.008 A 
ATOM      5  C   UNL     1      -0.218   1.230   2.527  0.00  0.00    +0.088 A 
ATOM      6  N   UNL     1       0.897   0.457   2.781  0.00  0.00    -0.355 N 
ATOM      7  H   UNL     1       1.469   0.058   2.107  0.00  0.00    +0.166 HD
ATOM      8  C   UNL     1       1.067   0.347   4.107  0.00  0.00    +0.028 A 
ATOM      9  C   UNL     1       2.173  -0.413   4.791  0.00  0.00    +0.064 C 
ATOM     10  C   UNL     1      -1.992   2.450   3.944  0.00  0.00    +0.047 C 
BRANCH   3  11
ATOM     11  C   UNL     1      -0.137   1.177   6.197  0.00  0.00    +0.341 C 
ATOM     12  O   UNL     1      -0.812   0.364   6.798  0.00  0.00    -0.245 OA
BRANCH  11  13
ATOM     13  O   UNL     1       0.437   2.199   6.862  0.00  0.00    -0.461 OA
BRANCH  13  15
ATOM     14  C   UNL     1       0.930   3.484   8.871  0.00  0.00    +0.048 C 
ATOM     15  C   UNL     1       0.205   2.266   8.294  0.00  0.00    +0.229 C 
ENDBRANCH  13  15
ENDBRANCH  11  13
ENDBRANCH   3  11
ENDBRANCH   1   5
BRANCH   1  16
ATOM     16  C   UNL     1      -0.013   1.086   0.008  0.00  0.00    +0.199 C 
BRANCH  16  17
ATOM     17  N   UNL     1      -0.721   1.571  -1.179  0.00  0.00    -0.217 N 
ATOM     18  C   UNL     1      -1.716   0.900  -1.795  0.00  0.00    +0.247 C 
ATOM     19  O   UNL     1      -2.177  -0.177  -1.484  0.00  0.00    -0.273 OA
ATOM     20  C   UNL     1      -2.137   1.776  -2.953  0.00  0.00    +0.115 C 
ATOM     21  C   UNL     1      -1.919   1.046  -4.274  0.00  0.00    +0.035 C 
ATOM     22  C   UNL     1      -2.315   1.962  -5.435  0.00  0.00    +0.003 C 
ATOM     23  C   UNL     1      -3.785   2.361  -5.290  0.00  0.00    +0.000 C 
ATOM     24  C   UNL     1      -3.984   3.110  -3.971  0.00  0.00    +0.006 C 
ATOM     25  C   UNL     1      -3.594   2.199  -2.804  0.00  0.00    +0.018 C 
ATOM     26  C   UNL     1      -3.774   2.954  -1.485  0.00  0.00    +0.010 C 
ATOM     27  N   UNL     1      -1.251   2.943  -2.858  0.00  0.00    -0.285 N 
ATOM     28  C   UNL     1      -0.458   2.733  -1.790  0.00  0.00    +0.310 C 
ATOM     29  O   UNL     1       0.400   3.511  -1.421  0.00  0.00    -0.252 OA
ATOM     30  H   UNL     1      -1.238   3.712  -3.448  0.00  0.00    +0.151 HD
ENDBRANCH  16  17
ENDBRANCH   1  16
TORSDOF 6
