REMARK  Name = ZINC67287875
REMARK  13 active torsions:
REMARK  status: ('A' for Active; 'I' for Inactive)
REMARK    1  A    between atoms: C_1  and  C_2
REMARK    2  A    between atoms: C_2  and  O_3
REMARK    3  A    between atoms: O_3  and  C_4
REMARK    4  A    between atoms: C_9  and  C_10
REMARK    5  A    between atoms: C_12  and  C_30
REMARK    6  A    between atoms: C_13  and  C_18
REMARK    7  A    between atoms: C_18  and  N_19
REMARK    8  A    between atoms: C_22  and  C_25
REMARK    9  A    between atoms: C_25  and  O_27
REMARK   10  A    between atoms: O_27  and  C_28
REMARK   11  A    between atoms: C_28  and  C_29
REMARK   12  A    between atoms: C_30  and  O_32
REMARK   13  A    between atoms: O_32  and  C_33
REMARK                            x       y       z     vdW  Elec       q    Type
REMARK                         _______ _______ _______ _____ _____    ______ ____
ROOT
ATOM      1  C   UNL     1       2.010  -1.667  -3.492  0.00  0.00    +0.147 C 
ATOM      2  C   UNL     1       3.300  -1.099  -2.936  0.00  0.00    +0.079 C 
ATOM      3  C   UNL     1       4.386  -1.106  -3.738  0.00  0.00    +0.038 C 
ATOM      4  N   UNL     1       4.324  -1.609  -5.006  0.00  0.00    -0.271 N 
ATOM      5  C   UNL     1       3.212  -2.123  -5.547  0.00  0.00    +0.304 C 
ATOM      6  O   UNL     1       3.253  -2.548  -6.685  0.00  0.00    -0.252 OA
ATOM      7  N   UNL     1       2.048  -2.185  -4.870  0.00  0.00    -0.288 N 
ATOM      8  H   UNL     1       5.130  -1.594  -5.545  0.00  0.00    +0.156 HD
ATOM      9  H   UNL     1       1.255  -2.562  -5.281  0.00  0.00    +0.151 HD
ENDROOT
BRANCH   1  15
ATOM     10  C   UNL     1       0.900  -2.503  -1.405  0.00  0.00    +0.126 A 
ATOM     11  C   UNL     1       0.490  -3.538  -0.576  0.00  0.00    +0.046 A 
ATOM     12  C   UNL     1       0.752  -4.848  -0.927  0.00  0.00    +0.004 A 
ATOM     13  C   UNL     1       1.423  -5.129  -2.104  0.00  0.00    +0.001 A 
ATOM     14  C   UNL     1       1.833  -4.100  -2.931  0.00  0.00    +0.009 A 
ATOM     15  C   UNL     1       1.568  -2.788  -2.587  0.00  0.00    +0.019 A 
BRANCH  10  16
ATOM     16  O   UNL     1       0.643  -1.214  -1.062  0.00  0.00    -0.492 OA
BRANCH  16  18
ATOM     17  C   UNL     1      -0.292   0.499   0.363  0.00  0.00    +0.048 C 
ATOM     18  C   UNL     1       0.002  -0.993   0.196  0.00  0.00    +0.225 C 
ENDBRANCH  16  18
ENDBRANCH  10  16
ENDBRANCH   1  15
BRANCH   2  19
ATOM     19  C   UNL     1       3.363  -0.578  -1.623  0.00  0.00    +0.339 C 
ATOM     20  O   UNL     1       2.902   0.522  -1.381  0.00  0.00    -0.245 OA
BRANCH  19  21
ATOM     21  O   UNL     1       3.936  -1.300  -0.637  0.00  0.00    -0.465 OA
ATOM     22  C   UNL     1       3.893  -0.748   0.680  0.00  0.00    +0.280 C 
ENDBRANCH  19  21
ENDBRANCH   2  19
BRANCH   3  23
ATOM     23  C   UNL     1       5.690  -0.550  -3.225  0.00  0.00    +0.135 C 
BRANCH  23  24
ATOM     24  N   UNL     1       6.068   0.625  -4.021  0.00  0.00    -0.297 NA
ATOM     25  C   UNL     1       5.202   1.770  -3.712  0.00  0.00    +0.085 C 
ATOM     26  C   UNL     1       5.529   2.927  -4.659  0.00  0.00    +0.030 C 
ATOM     27  C   UNL     1       7.000   3.317  -4.494  0.00  0.00    +0.100 C 
ATOM     28  C   UNL     1       7.878   2.094  -4.774  0.00  0.00    +0.030 C 
ATOM     29  C   UNL     1       7.484   0.961  -3.823  0.00  0.00    +0.085 C 
BRANCH  27  30
ATOM     30  C   UNL     1       7.343   4.416  -5.466  0.00  0.00    +0.310 C 
ATOM     31  O   UNL     1       6.497   4.845  -6.216  0.00  0.00    -0.251 OA
BRANCH  30  32
ATOM     32  O   UNL     1       8.587   4.918  -5.500  0.00  0.00    -0.465 OA
BRANCH  32  33
ATOM     33  C   UNL     1       8.841   5.958  -6.447  0.00  0.00    +0.229 C 
ATOM     34  C   UNL     1      10.302   6.400  -6.339  0.00  0.00    +0.048 C 
ENDBRANCH  32  33
ENDBRANCH  30  32
ENDBRANCH  27  30
ENDBRANCH  23  24
ENDBRANCH   3  23
TORSDOF 10
