REMARK  Name = ZINC39623910
REMARK  7 active torsions:
REMARK  status: ('A' for Active; 'I' for Inactive)
REMARK    1  A    between atoms: C_1  and  C_2
REMARK    2  A    between atoms: C_2  and  C_3
REMARK    3  A    between atoms: C_3  and  C_4
REMARK    4  A    between atoms: C_4  and  N_5
REMARK    5  A    between atoms: C_6  and  C_8
REMARK    6  A    between atoms: C_19  and  C_21
REMARK    7  A    between atoms: C_21  and  C_27
REMARK                            x       y       z     vdW  Elec       q    Type
REMARK                         _______ _______ _______ _____ _____    ______ ____
ROOT
ATOM      1  C   UNL     1       2.294  -4.317  -3.933  0.00  0.00    +0.100 C 
ATOM      2  C   UNL     1       1.456  -3.978  -5.187  0.00  0.00    +0.121 C 
ATOM      3  N   UNL     1       1.629  -5.148  -6.080  0.00  0.00    -0.300 N 
ATOM      4  C   UNL     1       1.603  -6.316  -5.167  0.00  0.00    +0.115 C 
ATOM      5  C   UNL     1       2.388  -5.852  -3.924  0.00  0.00    -0.004 C 
ATOM      6  C   UNL     1       1.747  -6.412  -2.657  0.00  0.00    -0.010 C 
ATOM      7  C   UNL     1       1.905  -7.935  -2.642  0.00  0.00    -0.082 C 
ATOM      8  N   UNL     1       3.330  -8.282  -2.688  0.00  0.00    +0.379 N 
ATOM      9  C   UNL     1       3.917  -7.821  -3.952  0.00  0.00    -0.082 C 
ATOM     10  C   UNL     1       3.845  -6.293  -4.023  0.00  0.00    -0.010 C 
ATOM     11  C   UNL     1       1.778  -5.150  -7.420  0.00  0.00    +0.222 C 
ATOM     12  O   UNL     1       1.826  -6.201  -8.023  0.00  0.00    -0.275 OA
ATOM     13  H   UNL     1       3.808  -7.841  -1.917  0.00  0.00    -0.086 HD
ATOM     14  H   UNL     1       3.434  -9.283  -2.617  0.00  0.00    -0.086 HD
ENDROOT
BRANCH  11  15
ATOM     15  C   UNL     1       1.883  -3.846  -8.168  0.00  0.00    +0.044 C 
ATOM     16  C   UNL     1       0.668  -2.973  -7.845  0.00  0.00    +0.016 C 
ATOM     17  C   UNL     1      -0.610  -3.702  -8.266  0.00  0.00    +0.001 C 
ATOM     18  C   UNL     1      -0.567  -3.979  -9.770  0.00  0.00    +0.000 C 
ATOM     19  C   UNL     1       0.648  -4.852 -10.093  0.00  0.00    +0.001 C 
ATOM     20  C   UNL     1       1.926  -4.123  -9.672  0.00  0.00    +0.016 C 
ATOM     21  C   UNL     1       3.160  -3.118  -7.747  0.00  0.00    +0.021 C 
ENDBRANCH  11  15
BRANCH   1  23
ATOM     22  N   UNL     1       2.303  -3.633  -1.556  0.00  0.00    -0.315 N 
ATOM     23  C   UNL     1       1.599  -3.825  -2.690  0.00  0.00    +0.218 C 
ATOM     24  O   UNL     1       0.407  -3.603  -2.709  0.00  0.00    -0.275 OA
ATOM     25  H   UNL     1       3.256  -3.811  -1.541  0.00  0.00    +0.149 HD
BRANCH  22  26
ATOM     26  C   UNL     1       1.628  -3.155  -0.347  0.00  0.00    +0.104 C 
BRANCH  26  27
ATOM     27  C   UNL     1       2.646  -3.023   0.787  0.00  0.00    +0.018 C 
BRANCH  27  29
ATOM     28  C   UNL     1       2.959  -2.392   3.184  0.00  0.00    +0.004 C 
ATOM     29  C   UNL     1       1.941  -2.524   2.050  0.00  0.00    -0.002 C 
ENDBRANCH  27  29
ENDBRANCH  26  27
ENDBRANCH  22  26
ENDBRANCH   1  23
TORSDOF 5
