REMARK  Name = ZINC39710296
REMARK  12 active torsions:
REMARK  status: ('A' for Active; 'I' for Inactive)
REMARK    1  A    between atoms: C_1  and  C_2
REMARK    2  A    between atoms: C_9  and  C_14
REMARK    3  A    between atoms: C_14  and  C_16
REMARK    4  A    between atoms: C_14  and  N_25
REMARK    5  A    between atoms: N_20  and  C_21
REMARK    6  A    between atoms: C_21  and  C_22
REMARK    7  A    between atoms: C_22  and  O_23
REMARK    8  A    between atoms: O_23  and  C_24
REMARK    9  A    between atoms: N_25  and  C_26
REMARK   10  A    between atoms: N_25  and  C_34
REMARK   11  A    between atoms: C_26  and  C_27
REMARK   12  A    between atoms: C_34  and  C_35
REMARK                            x       y       z     vdW  Elec       q    Type
REMARK                         _______ _______ _______ _____ _____    ______ ____
ROOT
ATOM      1  C   UNL     1      -0.739  -4.792   3.235  0.00  0.00    +0.019 C 
ENDROOT
BRANCH   1  10
ATOM      2  C   UNL     1       3.421   0.774   1.586  0.00  0.00    +0.044 C 
ATOM      3  C   UNL     1       2.837  -0.592   1.332  0.00  0.00    -0.050 A 
ATOM      4  C   UNL     1       2.809  -1.092   0.030  0.00  0.00    +0.005 A 
ATOM      5  C   UNL     1       2.299  -2.313  -0.276  0.00  0.00    +0.024 A 
ATOM      6  C   UNL     1       1.768  -3.139   0.733  0.00  0.00    +0.040 A 
ATOM      7  N   UNL     1       1.272  -4.336   0.422  0.00  0.00    -0.285 N 
ATOM      8  C   UNL     1       0.758  -5.160   1.320  0.00  0.00    +0.223 C 
ATOM      9  O   UNL     1       0.319  -6.241   0.975  0.00  0.00    -0.275 OA
ATOM     10  C   UNL     1       0.720  -4.754   2.776  0.00  0.00    +0.092 C 
ATOM     11  C   UNL     1       1.284  -3.393   3.135  0.00  0.00    -0.006 C 
ATOM     12  C   UNL     1       1.785  -2.636   2.118  0.00  0.00    -0.007 A 
ATOM     13  C   UNL     1       2.354  -1.313   2.377  0.00  0.00    +0.012 A 
ATOM     14  H   UNL     1       1.287  -4.615  -0.507  0.00  0.00    +0.155 HD
ENDBRANCH   1  10
BRANCH   1  15
ATOM     15  C   UNL     1      -1.583  -3.967   2.298  0.00  0.00    +0.139 A 
ATOM     16  N   UNL     1      -1.925  -4.280   1.072  0.00  0.00    -0.115 NA
ATOM     17  N   UNL     1      -2.646  -3.321   0.603  0.00  0.00    -0.023 NA
ATOM     18  N   UNL     1      -2.773  -2.404   1.498  0.00  0.00    -0.044 NA
ATOM     19  N   UNL     1      -2.136  -2.768   2.559  0.00  0.00    -0.229 N 
BRANCH  19  20
ATOM     20  C   UNL     1      -2.032  -2.016   3.812  0.00  0.00    +0.175 C 
BRANCH  20  21
ATOM     21  C   UNL     1      -0.848  -1.050   3.729  0.00  0.00    +0.183 C 
BRANCH  21  22
ATOM     22  O   UNL     1      -0.689  -0.383   4.983  0.00  0.00    -0.381 OA
ATOM     23  C   UNL     1       0.396   0.547   5.013  0.00  0.00    +0.194 C 
ENDBRANCH  21  22
ENDBRANCH  20  21
ENDBRANCH  19  20
ENDBRANCH   1  15
BRANCH   1  24
ATOM     24  N   UNL     1      -1.218  -6.181   3.231  0.00  0.00    +0.394 N 
ATOM     25  H   UNL     1      -1.201  -6.539   2.288  0.00  0.00    -0.080 HD
BRANCH  24  26
ATOM     26  C   UNL     1      -0.347  -7.002   4.082  0.00  0.00    -0.040 C 
BRANCH  26  27
ATOM     27  C   UNL     1      -0.876  -8.412   4.130  0.00  0.00    -0.046 A 
ATOM     28  C   UNL     1      -1.637  -8.829   5.206  0.00  0.00    +0.003 A 
ATOM     29  C   UNL     1      -2.122 -10.122   5.251  0.00  0.00    +0.000 A 
ATOM     30  C   UNL     1      -1.847 -11.000   4.218  0.00  0.00    +0.001 A 
ATOM     31  C   UNL     1      -1.086 -10.585   3.142  0.00  0.00    +0.020 A 
ATOM     32  C   UNL     1      -0.605  -9.288   3.095  0.00  0.00    +0.042 A 
ATOM     33 CL   UNL     1       0.345  -8.764   1.740  0.00  0.00    -0.083 Cl
ENDBRANCH  26  27
ENDBRANCH  24  26
BRANCH  24  34
ATOM     34  C   UNL     1      -2.592  -6.227   3.748  0.00  0.00    -0.002 C 
BRANCH  34  35
ATOM     35  C   UNL     1      -3.526  -5.589   2.751  0.00  0.00    +0.089 A 
ATOM     36  C   UNL     1      -4.051  -6.191   1.669  0.00  0.00    +0.042 A 
ATOM     37  C   UNL     1      -4.863  -5.232   1.020  0.00  0.00    +0.041 A 
ATOM     38  C   UNL     1      -4.785  -4.101   1.745  0.00  0.00    +0.195 A 
ATOM     39  O   UNL     1      -3.978  -4.325   2.796  0.00  0.00    -0.470 OA
ENDBRANCH  34  35
ENDBRANCH  24  34
ENDBRANCH   1  24
TORSDOF 10
