REMARK  Name = ZINC42711583
REMARK  9 active torsions:
REMARK  status: ('A' for Active; 'I' for Inactive)
REMARK    1  A    between atoms: C_1  and  C_2
REMARK    2  A    between atoms: C_2  and  C_35
REMARK    3  A    between atoms: C_4  and  N_10
REMARK    4  A    between atoms: C_6  and  C_8
REMARK    5  A    between atoms: C_6  and  C_9
REMARK    6  A    between atoms: C_11  and  C_13
REMARK    7  A    between atoms: N_24  and  C_26
REMARK    8  A    between atoms: C_29  and  O_32
REMARK    9  A    between atoms: O_32  and  C_33
REMARK                            x       y       z     vdW  Elec       q    Type
REMARK                         _______ _______ _______ _____ _____    ______ ____
ROOT
ATOM      1  C   UNL     1       4.312  -0.866  -4.426  0.00  0.00    +0.122 C 
ATOM      2  C   UNL     1       4.691  -2.377  -4.298  0.00  0.00    +0.155 C 
ATOM      3  C   UNL     1       5.616  -2.503  -3.082  0.00  0.00    +0.004 C 
ATOM      4  C   UNL     1       6.799  -1.980  -3.426  0.00  0.00    +0.008 C 
ATOM      5  C   UNL     1       6.584  -1.505  -4.818  0.00  0.00    +0.116 C 
ATOM      6  C   UNL     1       5.671  -0.225  -4.759  0.00  0.00    +0.127 C 
ATOM      7  C   UNL     1       5.794   0.306  -6.159  0.00  0.00    +0.227 C 
ATOM      8  O   UNL     1       4.976   1.004  -6.719  0.00  0.00    -0.275 OA
ATOM      9  N   UNL     1       6.965  -0.118  -6.698  0.00  0.00    -0.268 N 
ATOM     10  C   UNL     1       7.672  -1.055  -5.742  0.00  0.00    +0.153 C 
ATOM     11  O   UNL     1       5.661  -2.489  -5.402  0.00  0.00    -0.359 OA
ENDROOT
BRANCH   9  12
ATOM     12  C   UNL     1       7.457   0.282  -7.948  0.00  0.00    +0.037 A 
ATOM     13  C   UNL     1       8.667  -0.218  -8.411  0.00  0.00    +0.027 A 
ATOM     14  C   UNL     1       9.150   0.176  -9.643  0.00  0.00    +0.047 A 
ATOM     15  C   UNL     1       8.427   1.071 -10.418  0.00  0.00    +0.120 A 
ATOM     16  C   UNL     1       7.218   1.571  -9.956  0.00  0.00    +0.047 A 
ATOM     17  C   UNL     1       6.731   1.173  -8.727  0.00  0.00    +0.027 A 
BRANCH  15  18
ATOM     18  O   UNL     1       8.904   1.459 -11.631  0.00  0.00    -0.495 OA
ATOM     19  C   UNL     1       8.107   2.383 -12.376  0.00  0.00    +0.277 C 
ENDBRANCH  15  18
ENDBRANCH   9  12
BRANCH   1  21
ATOM     20  N   UNL     1       2.615  -0.819  -2.626  0.00  0.00    -0.312 N 
ATOM     21  C   UNL     1       3.770  -0.334  -3.123  0.00  0.00    +0.220 C 
ATOM     22  O   UNL     1       4.374   0.530  -2.523  0.00  0.00    -0.275 OA
ATOM     23  H   UNL     1       2.133  -1.510  -3.106  0.00  0.00    +0.149 HD
BRANCH  20  27
ATOM     24  C   UNL     1      -0.019   1.528   0.010  0.00  0.00    -0.010 C 
ATOM     25  C   UNL     1       0.002  -0.004   0.002  0.00  0.00    -0.072 C 
ATOM     26  C   UNL     1       0.573  -0.505  -1.321  0.00  0.00    +0.009 C 
ATOM     27  C   UNL     1       2.088  -0.301  -1.357  0.00  0.00    +0.070 C 
ATOM     28  C   UNL     1       2.703  -1.086  -0.198  0.00  0.00    +0.009 C 
ATOM     29  C   UNL     1       2.147  -0.590   1.133  0.00  0.00    -0.072 C 
ATOM     30  N   UNL     1       0.697  -0.529   1.164  0.00  0.00    +0.386 N 
ATOM     31  C   UNL     1       2.769   0.766   1.481  0.00  0.00    -0.010 C 
ATOM     32  C   UNL     1       2.600  -1.589   2.223  0.00  0.00    -0.010 C 
ATOM     33  C   UNL     1      -1.468  -0.478   0.079  0.00  0.00    -0.010 C 
ATOM     34  H   UNL     1       0.416   0.021   1.982  0.00  0.00    -0.084 HD
ATOM     35  H   UNL     1       0.341  -1.472   1.351  0.00  0.00    -0.084 HD
ENDBRANCH  20  27
ENDBRANCH   1  21
TORSDOF 4
