REMARK  Name = ZINC66562120
REMARK  6 active torsions:
REMARK  status: ('A' for Active; 'I' for Inactive)
REMARK    1  A    between atoms: C_1  and  C_2
REMARK    2  A    between atoms: C_7  and  N_12
REMARK    3  A    between atoms: C_9  and  C_11
REMARK    4  A    between atoms: C_13  and  C_15
REMARK    5  A    between atoms: C_15  and  N_16
REMARK    6  A    between atoms: C_19  and  C_22
REMARK                            x       y       z     vdW  Elec       q    Type
REMARK                         _______ _______ _______ _____ _____    ______ ____
ROOT
ATOM      1  N   UNL     1       3.340  -5.569   3.354  0.00  0.00    +0.385 N 
ATOM      2  C   UNL     1       4.345  -5.490   2.288  0.00  0.00    -0.077 C 
ATOM      3  C   UNL     1       4.852  -6.895   1.955  0.00  0.00    -0.006 C 
ATOM      4  C   UNL     1       5.480  -7.515   3.206  0.00  0.00    +0.072 C 
ATOM      5  C   UNL     1       4.445  -7.524   4.335  0.00  0.00    -0.006 C 
ATOM      6  C   UNL     1       3.953  -6.096   4.579  0.00  0.00    -0.077 C 
ATOM      7  H   UNL     1       2.591  -6.181   3.064  0.00  0.00    -0.081 HD
ENDROOT
BRANCH   4   8
ATOM      8  C   UNL     1       5.911  -8.928   2.907  0.00  0.00    +0.219 C 
ATOM      9  O   UNL     1       5.259  -9.613   2.147  0.00  0.00    -0.275 OA
ATOM     10  N   UNL     1       7.021  -9.430   3.483  0.00  0.00    -0.301 N 
ATOM     11  C   UNL     1       7.752  -8.660   4.498  0.00  0.00    +0.108 C 
ATOM     12  C   UNL     1       7.914  -9.525   5.752  0.00  0.00    +0.019 C 
ATOM     13  C   UNL     1       8.578 -10.850   5.370  0.00  0.00    +0.003 C 
ATOM     14  C   UNL     1       7.688 -11.601   4.377  0.00  0.00    +0.019 C 
ATOM     15  C   UNL     1       7.520 -10.761   3.112  0.00  0.00    +0.108 C 
ENDBRANCH   4   8
BRANCH   1  16
ATOM     16  C   UNL     1       2.800  -4.228   3.616  0.00  0.00    +0.019 C 
BRANCH  16  18
ATOM     17  N   UNL     1       1.480  -2.521   2.406  0.00  0.00    -0.314 N 
ATOM     18  C   UNL     1       2.063  -3.736   2.397  0.00  0.00    +0.197 C 
ATOM     19  O   UNL     1       1.994  -4.434   1.407  0.00  0.00    -0.278 OA
ATOM     20  H   UNL     1       1.536  -1.963   3.198  0.00  0.00    +0.149 HD
BRANCH  17  26
ATOM     21  C   UNL     1      -0.020   1.516  -0.022  0.00  0.00    +0.008 C 
ATOM     22  C   UNL     1      -0.002  -0.014  -0.019  0.00  0.00    -0.009 C 
ATOM     23  C   UNL     1      -1.438  -0.540   0.006  0.00  0.00    +0.003 C 
ATOM     24  C   UNL     1      -1.421  -2.070   0.009  0.00  0.00    +0.002 C 
ATOM     25  C   UNL     1      -0.672  -2.569   1.247  0.00  0.00    +0.022 C 
ATOM     26  C   UNL     1       0.764  -2.043   1.221  0.00  0.00    +0.076 C 
ATOM     27  C   UNL     1       0.746  -0.513   1.219  0.00  0.00    +0.009 C 
ATOM     28  C   UNL     1       0.041  -0.009   2.479  0.00  0.00    +0.009 C 
ENDBRANCH  17  26
ENDBRANCH  16  18
ENDBRANCH   1  16
TORSDOF 4
