REMARK  Name = ZINC37351936
REMARK  7 active torsions:
REMARK  status: ('A' for Active; 'I' for Inactive)
REMARK    1  A    between atoms: C_1  and  C_2
REMARK    2  A    between atoms: C_6  and  C_7
REMARK    3  A    between atoms: C_8  and  C_14
REMARK    4  A    between atoms: C_9  and  N_13
REMARK    5  A    between atoms: N_10  and  C_12
REMARK    6  A    between atoms: C_19  and  O_20
REMARK    7  A    between atoms: O_20  and  C_21
REMARK                            x       y       z     vdW  Elec       q    Type
REMARK                         _______ _______ _______ _____ _____    ______ ____
ROOT
ATOM      1  C   UNL     1       0.031  -0.386   2.500  0.00  0.00    +0.138 A 
ATOM      2  C   UNL     1       0.059  -1.238   3.635  0.00  0.00    +0.055 A 
ATOM      3  C   UNL     1       0.057  -0.428   4.755  0.00  0.00    +0.123 A 
ATOM      4  N   UNL     1       0.029   0.860   4.325  0.00  0.00    -0.253 N 
ATOM      5  N   UNL     1       0.018   0.859   2.926  0.00  0.00    -0.166 NA
ATOM      6  C   UNL     1       0.018   2.048   5.182  0.00  0.00    +0.174 C 
ENDROOT
BRANCH   1  12
ATOM      7  C   UNL     1      -0.018   1.503   0.010  0.00  0.00    +0.048 C 
ATOM      8  C   UNL     1       0.002  -0.004   0.002  0.00  0.00    -0.003 A 
ATOM      9  C   UNL     1       0.009  -0.839  -1.134  0.00  0.00    +0.045 A 
ATOM     10  C   UNL     1       0.028  -2.110  -0.689  0.00  0.00    +0.196 A 
ATOM     11  O   UNL     1       0.033  -2.096   0.654  0.00  0.00    -0.461 OA
ATOM     12  C   UNL     1       0.024  -0.821   1.089  0.00  0.00    +0.158 A 
ENDBRANCH   1  12
BRANCH   2  13
ATOM     13  C   UNL     1       0.085  -2.720   3.622  0.00  0.00    +0.029 A 
ATOM     14  C   UNL     1       1.302  -3.398   3.607  0.00  0.00    +0.012 A 
ATOM     15  C   UNL     1       1.320  -4.779   3.595  0.00  0.00    +0.001 A 
ATOM     16  C   UNL     1       0.134  -5.491   3.596  0.00  0.00    +0.004 A 
ATOM     17  C   UNL     1      -1.079  -4.827   3.610  0.00  0.00    +0.046 A 
ATOM     18  C   UNL     1      -1.112  -3.443   3.629  0.00  0.00    +0.128 A 
BRANCH  18  19
ATOM     19  O   UNL     1      -2.304  -2.790   3.649  0.00  0.00    -0.495 OA
ATOM     20  C   UNL     1      -3.485  -3.595   3.656  0.00  0.00    +0.277 C 
ENDBRANCH  18  19
ENDBRANCH   2  13
BRANCH   3  21
ATOM     21  N   UNL     1       0.079  -0.854   6.077  0.00  0.00    -0.343 N 
ATOM     22  H   UNL     1       0.098  -1.802   6.281  0.00  0.00    +0.144 HD
ATOM     23  H   UNL     1       0.076  -0.203   6.796  0.00  0.00    +0.144 HD
ENDBRANCH   3  21
TORSDOF 4
