REMARK  Name = ZINC01510586
REMARK  6 active torsions:
REMARK  status: ('A' for Active; 'I' for Inactive)
REMARK    1  A    between atoms: C_6  and  C_7
REMARK    2  A    between atoms: C_10  and  N_11
REMARK    3  A    between atoms: N_11  and  C_12
REMARK    4  A    between atoms: C_15  and  O_18
REMARK    5  A    between atoms: O_18  and  C_19
REMARK    6  A    between atoms: C_19  and  C_20
REMARK                            x       y       z     vdW  Elec       q    Type
REMARK                         _______ _______ _______ _____ _____    ______ ____
ROOT
ATOM      1  C   UNL     1      -1.265  -0.763   0.011  0.00  0.00    +0.232 C 
ATOM      2  N   UNL     1      -1.353  -2.064   0.010  0.00  0.00    -0.204 NA
ATOM      3  C   UNL     1      -2.674  -2.416   0.020  0.00  0.00    +0.165 C 
ATOM      4  C   UNL     1      -3.190  -3.696   0.022  0.00  0.00    +0.107 C 
ATOM      5  C   UNL     1      -3.410  -1.198   0.027  0.00  0.00    +0.366 C 
ATOM      6  O   UNL     1      -4.622  -1.075   0.038  0.00  0.00    -0.243 OA
ATOM      7  O   UNL     1      -2.494  -0.208   0.026  0.00  0.00    -0.402 OA
ENDROOT
BRANCH   1  13
ATOM      8  C   UNL     1      -0.017   1.392   0.010  0.00  0.00    +0.014 A 
ATOM      9  C   UNL     1       1.170   2.095   0.002  0.00  0.00    +0.021 A 
ATOM     10  C   UNL     1       2.378   1.419  -0.013  0.00  0.00    +0.041 A 
ATOM     11  C   UNL     1       2.404   0.034  -0.022  0.00  0.00    +0.021 A 
ATOM     12  C   UNL     1       1.224  -0.680  -0.014  0.00  0.00    +0.014 A 
ATOM     13  C   UNL     1       0.002  -0.004   0.002  0.00  0.00    +0.037 A 
ATOM     14 CL   UNL     1       3.868   2.311  -0.024  0.00  0.00    -0.084 Cl
ENDBRANCH   1  13
BRANCH   4  15
ATOM     15  N   UNL     1      -2.352  -4.767   0.014  0.00  0.00    -0.319 N 
ATOM     16  H   UNL     1      -1.391  -4.632   0.006  0.00  0.00    +0.152 HD
BRANCH  15  17
ATOM     17  C   UNL     1      -2.875  -6.064   0.017  0.00  0.00    +0.031 A 
ATOM     18  C   UNL     1      -4.250  -6.259   0.022  0.00  0.00    +0.027 A 
ATOM     19  C   UNL     1      -4.766  -7.540   0.025  0.00  0.00    +0.047 A 
ATOM     20  C   UNL     1      -3.910  -8.633   0.022  0.00  0.00    +0.121 A 
ATOM     21  C   UNL     1      -2.537  -8.439   0.017  0.00  0.00    +0.047 A 
ATOM     22  C   UNL     1      -2.019  -7.159   0.008  0.00  0.00    +0.027 A 
BRANCH  20  23
ATOM     23  O   UNL     1      -4.419  -9.893   0.026  0.00  0.00    -0.481 OA
BRANCH  23  24
ATOM     24  C   UNL     1      -3.481 -10.971   0.023  0.00  0.00    +0.353 C 
BRANCH  24  25
ATOM     25  C   UNL     1      -4.222 -12.283   0.027  0.00  0.00    +0.393 C 
ATOM     26  O   UNL     1      -5.441 -12.294   0.033  0.00  0.00    -0.243 OA
ATOM     27  O   UNL     1      -3.603 -13.334   0.026  0.00  0.00    -0.243 OA
ENDBRANCH  24  25
ENDBRANCH  23  24
ENDBRANCH  20  23
ENDBRANCH  15  17
ENDBRANCH   4  15
TORSDOF 6
