REMARK  Name = ZINC13938468
REMARK  5 active torsions:
REMARK  status: ('A' for Active; 'I' for Inactive)
REMARK    1  A    between atoms: C_1  and  C_2
REMARK    2  A    between atoms: C_4  and  S_10
REMARK    3  A    between atoms: C_5  and  C_9
REMARK    4  A    between atoms: S_10  and  N_13
REMARK    5  A    between atoms: N_13  and  C_14
REMARK                            x       y       z     vdW  Elec       q    Type
REMARK                         _______ _______ _______ _____ _____    ______ ____
ROOT
ATOM      1  S   UNL     1      -1.323   2.490   0.267  0.00  0.00    +0.059 S 
ATOM      2  O   UNL     1      -2.065   1.996   1.373  0.00  0.00    -0.153 OA
ATOM      3  O   UNL     1      -0.751   3.791   0.252  0.00  0.00    -0.153 OA
ENDROOT
BRANCH   1   7
ATOM      4  C   UNL     1       1.343  -1.825   1.527  0.00  0.00    +0.045 C 
ATOM      5  C   UNL     1       1.185  -0.629   0.625  0.00  0.00    -0.030 A 
ATOM      6  C   UNL     1       0.144   0.258   0.829  0.00  0.00    +0.033 A 
ATOM      7  C   UNL     1      -0.001   1.355   0.001  0.00  0.00    +0.108 A 
ATOM      8  C   UNL     1       0.894   1.567  -1.031  0.00  0.00    -0.023 A 
ATOM      9  C   UNL     1       1.935   0.681  -1.236  0.00  0.00    +0.025 A 
ATOM     10  C   UNL     1       2.081  -0.418  -0.408  0.00  0.00    +0.044 A 
ATOM     11 CL   UNL     1       3.388  -1.531  -0.664  0.00  0.00    -0.083 Cl
ATOM     12  C   UNL     1       0.735   2.763  -1.933  0.00  0.00    +0.046 C 
ENDBRANCH   1   7
BRANCH   1  13
ATOM     13  N   UNL     1      -2.321   2.396  -1.052  0.00  0.00    -0.187 NA
ATOM     14  H   UNL     1      -2.428   3.164  -1.635  0.00  0.00    +0.148 HD
BRANCH  13  15
ATOM     15  C   UNL     1      -3.041   1.153  -1.339  0.00  0.00    +0.077 C 
ATOM     16  C   UNL     1      -2.292   0.344  -2.417  0.00  0.00    +0.020 C 
ATOM     17  C   UNL     1      -3.419  -0.284  -3.273  0.00  0.00    +0.002 C 
ATOM     18  C   UNL     1      -4.479   0.844  -3.324  0.00  0.00    +0.002 C 
ATOM     19  C   UNL     1      -4.432   1.471  -1.915  0.00  0.00    +0.020 C 
ENDBRANCH  13  15
ENDBRANCH   1  13
TORSDOF 3
