REMARK  Name = ZINC12292304
REMARK  7 active torsions:
REMARK  status: ('A' for Active; 'I' for Inactive)
REMARK    1  A    between atoms: C_1  and  C_2
REMARK    2  A    between atoms: C_7  and  C_8
REMARK    3  A    between atoms: C_8  and  O_27
REMARK    4  A    between atoms: C_13  and  C_14
REMARK    5  A    between atoms: C_13  and  N_54
REMARK    6  A    between atoms: C_14  and  C_16
REMARK    7  A    between atoms: C_14  and  O_26
REMARK                            x       y       z     vdW  Elec       q    Type
REMARK                         _______ _______ _______ _____ _____    ______ ____
ROOT
ATOM      1  C   UNL     1       1.877  12.241   1.640  0.00  0.00    +0.088 C 
ATOM      2  C   UNL     1       0.961  11.585   2.678  0.00  0.00    +0.021 C 
ATOM      3  C   UNL     1       1.296  10.095   2.777  0.00  0.00    -0.076 C 
ATOM      4  C   UNL     1       2.013  10.043   0.464  0.00  0.00    -0.076 C 
ATOM      5  C   UNL     1       1.700  11.531   0.295  0.00  0.00    +0.021 C 
ATOM      6  N   UNL     1       1.083   9.466   1.457  0.00  0.00    +0.382 N 
ATOM      7  H   UNL     1       0.118   9.647   1.153  0.00  0.00    -0.082 HD
ENDROOT
BRANCH   1  14
ATOM      8  C   UNL     1       3.127  13.844  -0.413  0.00  0.00    +0.044 C 
ATOM      9  C   UNL     1       2.110  14.463   0.512  0.00  0.00    -0.045 A 
ATOM     10  C   UNL     1       1.772  15.796   0.375  0.00  0.00    +0.004 A 
ATOM     11  C   UNL     1       0.844  16.365   1.226  0.00  0.00    +0.000 A 
ATOM     12  C   UNL     1       0.249  15.599   2.211  0.00  0.00    +0.000 A 
ATOM     13  C   UNL     1       0.584  14.264   2.346  0.00  0.00    +0.007 A 
ATOM     14  C   UNL     1       1.512  13.695   1.494  0.00  0.00    -0.013 A 
ENDBRANCH   1  14
BRANCH   1  15
ATOM     15  O   UNL     1       3.237  12.128   2.064  0.00  0.00    -0.384 OA
ATOM     16  H   UNL     1       3.878  12.458   1.420  0.00  0.00    +0.211 HD
ENDBRANCH   1  15
BRANCH   6  17
ATOM     17  C   UNL     1       1.289   8.006   1.554  0.00  0.00    -0.042 C 
BRANCH  17  18
ATOM     18  C   UNL     1       0.048   7.379   2.193  0.00  0.00    +0.128 C 
BRANCH  18  19
ATOM     19  C   UNL     1       0.237   5.887   2.296  0.00  0.00    -0.020 A 
ATOM     20  C   UNL     1       0.025   5.089   1.174  0.00  0.00    +0.007 A 
ATOM     21  C   UNL     1       0.188   3.739   1.233  0.00  0.00    +0.009 A 
ATOM     22  C   UNL     1       0.573   3.138   2.444  0.00  0.00    -0.018 A 
ATOM     23  C   UNL     1       0.750   1.747   2.544  0.00  0.00    +0.008 A 
ATOM     24  C   UNL     1       1.124   1.200   3.732  0.00  0.00    +0.001 A 
ATOM     25  C   UNL     1       1.330   1.997   4.856  0.00  0.00    +0.001 A 
ATOM     26  C   UNL     1       1.174   3.348   4.795  0.00  0.00    +0.008 A 
ATOM     27  C   UNL     1       0.788   3.949   3.585  0.00  0.00    -0.018 A 
ATOM     28  C   UNL     1       0.611   5.340   3.485  0.00  0.00    +0.014 A 
ENDBRANCH  18  19
BRANCH  18  29
ATOM     29  O   UNL     1      -1.097   7.659   1.385  0.00  0.00    -0.389 OA
ATOM     30  H   UNL     1      -1.036   7.316   0.483  0.00  0.00    +0.210 HD
ENDBRANCH  18  29
ENDBRANCH  17  18
ENDBRANCH   6  17
TORSDOF 6
