REMARK  Name = ZINC05487723
REMARK  6 active torsions:
REMARK  status: ('A' for Active; 'I' for Inactive)
REMARK    1  A    between atoms: C_12  and  C_27
REMARK    2  A    between atoms: N_13  and  C1*_14
REMARK    3  A    between atoms: C2*_16  and  O2*_26
REMARK    4  A    between atoms: C3*_18  and  O3*_25
REMARK    5  A    between atoms: C4*_20  and  C5*_23
REMARK    6  A    between atoms: C5*_23  and  O5*_24
REMARK                            x       y       z     vdW  Elec       q    Type
REMARK                         _______ _______ _______ _____ _____    ______ ____
ROOT
ATOM      1  C   UNL     1       2.481  -2.720  -0.035  0.00  0.00    +0.001 A 
ATOM      2  C   UNL     1       3.673  -1.996  -0.043  0.00  0.00    +0.001 A 
ATOM      3  C   UNL     1       3.667  -0.636  -0.036  0.00  0.00    +0.008 A 
ATOM      4  C   UNL     1       2.442   0.057  -0.021  0.00  0.00    -0.016 A 
ATOM      5  C   UNL     1       2.407   1.458  -0.013  0.00  0.00    +0.036 A 
ATOM      6  C   UNL     1       1.196   2.111   0.002  0.00  0.00    +0.072 A 
ATOM      7  C   UNL     1      -0.017   1.382   0.010  0.00  0.00    +0.090 A 
ATOM      8  C   UNL     1       0.002  -0.004   0.002  0.00  0.00    +0.038 A 
ATOM      9  C   UNL     1       1.228  -0.680  -0.013  0.00  0.00    -0.016 A 
ATOM     10  C   UNL     1       1.277  -2.088  -0.021  0.00  0.00    +0.008 A 
ATOM     11  N   UNL     1      -1.024   2.297   0.030  0.00  0.00    -0.224 NA
ATOM     12  C   UNL     1      -0.527   3.498   0.026  0.00  0.00    +0.218 A 
ATOM     13  N   UNL     1       0.833   3.447   0.013  0.00  0.00    -0.291 N 
ENDROOT
BRANCH  13  14
ATOM     14  C1* UNL     1       1.745   4.594   0.010  0.00  0.00    +0.253 C 
ATOM     15  C2* UNL     1       1.770   5.265   1.402  0.00  0.00    +0.195 C 
ATOM     16  C3* UNL     1       1.879   6.774   1.090  0.00  0.00    +0.178 C 
ATOM     17  C4* UNL     1       1.907   6.837  -0.454  0.00  0.00    +0.177 C 
ATOM     18  O4* UNL     1       1.262   5.618  -0.887  0.00  0.00    -0.346 OA
BRANCH  16  19
ATOM     19  O3* UNL     1       0.743   7.474   1.601  0.00  0.00    -0.386 OA
ATOM     20  H3* UNL     1       0.759   8.427   1.433  0.00  0.00    +0.210 HD
ENDBRANCH  16  19
BRANCH  15  21
ATOM     21  O2* UNL     1       2.905   4.825   2.149  0.00  0.00    -0.385 OA
ATOM     22  H2* UNL     1       2.970   5.214   3.032  0.00  0.00    +0.210 HD
ENDBRANCH  15  21
BRANCH  17  23
ATOM     23  C5* UNL     1       1.132   8.059  -0.951  0.00  0.00    +0.190 C 
BRANCH  23  24
ATOM     24  O5* UNL     1       1.267   8.164  -2.370  0.00  0.00    -0.392 OA
ATOM     25  H5* UNL     1       0.800   8.918  -2.755  0.00  0.00    +0.210 HD
ENDBRANCH  23  24
ENDBRANCH  17  23
ENDBRANCH  13  14
BRANCH  12  26
ATOM     26  C   UNL     1      -1.341   4.766   0.041  0.00  0.00    +0.451 C 
ATOM     27  F   UNL     1      -2.662   4.468   0.393  0.00  0.00    -0.163 F 
ATOM     28  F   UNL     1      -0.799   5.657   0.973  0.00  0.00    -0.163 F 
ATOM     29  F   UNL     1      -1.318   5.350  -1.231  0.00  0.00    -0.163 F 
ENDBRANCH  12  26
TORSDOF 6
