REMARK  Name = ZINC13143139
REMARK  8 active torsions:
REMARK  status: ('A' for Active; 'I' for Inactive)
REMARK    1  A    between atoms: C_1  and  C_2
REMARK    2  A    between atoms: C_4  and  C_25
REMARK    3  A    between atoms: C_9  and  C_24
REMARK    4  A    between atoms: C_11  and  N_13
REMARK    5  A    between atoms: N_13  and  N_14
REMARK    6  A    between atoms: C_15  and  C_16
REMARK    7  A    between atoms: C_21  and  O_22
REMARK    8  A    between atoms: O_22  and  C_23
REMARK                            x       y       z     vdW  Elec       q    Type
REMARK                         _______ _______ _______ _____ _____    ______ ____
ROOT
ATOM      1  C   UNL     1      -7.084   0.319   1.020  0.00  0.00    +0.067 C 
ATOM      2  C   UNL     1      -5.926   0.691   1.910  0.00  0.00    +0.061 A 
ATOM      3  C   UNL     1      -5.951   1.649   2.930  0.00  0.00    +0.048 A 
ATOM      4  C   UNL     1      -4.724   1.686   3.498  0.00  0.00    +0.045 A 
ATOM      5  N   UNL     1      -3.943   0.783   2.849  0.00  0.00    -0.202 N 
ATOM      6  N   UNL     1      -4.726   0.172   1.861  0.00  0.00    -0.169 NA
ATOM      7  C   UNL     1      -2.603   0.509   3.122  0.00  0.00    +0.253 A 
ATOM      8  N   UNL     1      -1.971  -0.402   2.400  0.00  0.00    -0.216 NA
ATOM      9  C   UNL     1      -0.700  -0.695   2.632  0.00  0.00    +0.045 A 
ATOM     10  C   UNL     1      -0.026  -0.027   3.636  0.00  0.00    +0.068 A 
ATOM     11  C   UNL     1      -0.718   0.934   4.377  0.00  0.00    +0.144 A 
ATOM     12  N   UNL     1      -1.995   1.171   4.092  0.00  0.00    -0.194 NA
ATOM     13  C   UNL     1       0.004  -1.740   1.806  0.00  0.00    +0.066 C 
ATOM     14  C   UNL     1      -4.300   2.571   4.642  0.00  0.00    +0.066 C 
ENDROOT
BRANCH  11  15
ATOM     15  N   UNL     1      -0.083   1.629   5.394  0.00  0.00    -0.221 N 
ATOM     16  H   UNL     1       0.820   1.390   5.654  0.00  0.00    +0.176 HD
BRANCH  15  17
ATOM     17  N   UNL     1      -0.747   2.676   6.046  0.00  0.00    -0.189 NA
ATOM     18  C   UNL     1      -0.109   3.415   6.902  0.00  0.00    +0.141 C 
BRANCH  18  19
ATOM     19  C   UNL     1       1.360   3.521   6.834  0.00  0.00    +0.036 A 
ATOM     20  C   UNL     1       2.033   3.200   5.653  0.00  0.00    +0.013 A 
ATOM     21  C   UNL     1       3.407   3.307   5.595  0.00  0.00    +0.001 A 
ATOM     22  C   UNL     1       4.123   3.721   6.705  0.00  0.00    +0.004 A 
ATOM     23  C   UNL     1       3.468   4.035   7.881  0.00  0.00    +0.046 A 
ATOM     24  C   UNL     1       2.089   3.939   7.956  0.00  0.00    +0.129 A 
BRANCH  24  25
ATOM     25  O   UNL     1       1.445   4.249   9.111  0.00  0.00    -0.494 OA
ATOM     26  C   UNL     1       2.239   4.779  10.174  0.00  0.00    +0.277 C 
ENDBRANCH  24  25
ENDBRANCH  18  19
ENDBRANCH  15  17
ENDBRANCH  11  15
TORSDOF 4
