REMARK  Name = ZINC58075840
REMARK  7 active torsions:
REMARK  status: ('A' for Active; 'I' for Inactive)
REMARK    1  A    between atoms: C_1  and  C_2
REMARK    2  A    between atoms: C_2  and  C_3
REMARK    3  A    between atoms: C_2  and  C_4
REMARK    4  A    between atoms: C_2  and  C_5
REMARK    5  A    between atoms: C_11  and  C_13
REMARK    6  A    between atoms: N_15  and  N_16
REMARK    7  A    between atoms: C_17  and  C_19
REMARK                            x       y       z     vdW  Elec       q    Type
REMARK                         _______ _______ _______ _____ _____    ______ ____
ROOT
ATOM      1  C   UNL     1       5.898  -0.444  -4.723  0.00  0.00    +0.267 C 
ATOM      2  O   UNL     1       6.552   0.536  -4.421  0.00  0.00    -0.268 OA
ATOM      3  N   UNL     1       6.304  -1.241  -5.732  0.00  0.00    -0.230 N 
ATOM      4  H   UNL     1       5.782  -2.022  -5.972  0.00  0.00    +0.173 HD
ENDROOT
BRANCH   1  11
ATOM      5  C   UNL     1       0.718  -0.497  -1.257  0.00  0.00    -0.001 C 
ATOM      6  C   UNL     1       0.730  -2.029  -1.268  0.00  0.00    +0.009 C 
ATOM      7  C   UNL     1       1.202  -2.508  -2.648  0.00  0.00    +0.043 C 
ATOM      8  C   UNL     1       2.442  -1.750  -3.016  0.00  0.00    -0.006 A 
ATOM      9  C   UNL     1       2.907  -0.611  -2.426  0.00  0.00    -0.036 A 
ATOM     10  C   UNL     1       4.084  -0.082  -2.935  0.00  0.00    +0.024 A 
ATOM     11  C   UNL     1       4.669  -0.760  -3.989  0.00  0.00    +0.076 A 
ATOM     12  S   UNL     1       3.537  -2.117  -4.223  0.00  0.00    -0.088 S 
ATOM     13  C   UNL     1       2.152   0.033  -1.266  0.00  0.00    +0.040 C 
BRANCH   5  15
ATOM     14  C   UNL     1      -0.019   1.526   0.010  0.00  0.00    +0.011 C 
ATOM     15  C   UNL     1       0.002  -0.004   0.002  0.00  0.00    -0.035 C 
ATOM     16  C   UNL     1       0.742  -0.511   1.242  0.00  0.00    +0.011 C 
ATOM     17  C   UNL     1      -1.433  -0.534   0.013  0.00  0.00    +0.011 C 
ENDBRANCH   5  15
ENDBRANCH   1  11
BRANCH   3  18
ATOM     18  N   UNL     1       7.479  -0.939  -6.433  0.00  0.00    -0.233 N 
ATOM     19  C   UNL     1       7.884  -1.736  -7.442  0.00  0.00    +0.249 C 
ATOM     20  O   UNL     1       7.232  -2.713  -7.743  0.00  0.00    -0.272 OA
ATOM     21  H   UNL     1       8.000  -0.158  -6.192  0.00  0.00    +0.173 HD
BRANCH  19  22
ATOM     22  C   UNL     1       9.148  -1.412  -8.196  0.00  0.00    +0.161 C 
ATOM     23  C   UNL     1       8.865  -0.352  -9.284  0.00  0.00    +0.041 C 
ATOM     24  C   UNL     1       8.589  -1.238 -10.522  0.00  0.00    +0.098 C 
ATOM     25  C   UNL     1       9.321  -2.528 -10.225  0.00  0.00    +0.214 C 
ATOM     26  O   UNL     1       9.594  -3.377 -11.048  0.00  0.00    -0.276 OA
ATOM     27  N   UNL     1       9.627  -2.596  -8.918  0.00  0.00    -0.304 N 
ATOM     28  H   UNL     1      10.102  -3.334  -8.505  0.00  0.00    +0.149 HD
ENDBRANCH  19  22
ENDBRANCH   3  18
TORSDOF 4
