REMARK  Name = ZINC39675749
REMARK  9 active torsions:
REMARK  status: ('A' for Active; 'I' for Inactive)
REMARK    1  A    between atoms: C_1  and  C_2
REMARK    2  A    between atoms: C_6  and  C_9
REMARK    3  A    between atoms: C_13  and  C_22
REMARK    4  A    between atoms: N_24  and  C_25
REMARK    5  A    between atoms: C_25  and  C_26
REMARK    6  A    between atoms: C_26  and  C_28
REMARK    7  A    between atoms: C_26  and  N_34
REMARK    8  A    between atoms: N_34  and  C_35
REMARK    9  A    between atoms: N_34  and  C_36
REMARK                            x       y       z     vdW  Elec       q    Type
REMARK                         _______ _______ _______ _____ _____    ______ ____
ROOT
ATOM      1  C   UNL     1      -0.494  -2.261   2.256  0.00  0.00    +0.251 C 
ATOM      2  O   UNL     1       0.567  -2.431   2.825  0.00  0.00    -0.270 OA
ATOM      3  N   UNL     1      -1.641  -2.673   2.832  0.00  0.00    -0.296 N 
ATOM      4  C   UNL     1      -3.017  -2.561   2.295  0.00  0.00    +0.121 C 
ATOM      5  C   UNL     1      -3.698  -3.892   2.686  0.00  0.00    +0.100 C 
ATOM      6  C   UNL     1      -2.902  -4.398   3.901  0.00  0.00    -0.004 C 
ATOM      7  C   UNL     1      -1.809  -3.347   4.142  0.00  0.00    +0.115 C 
ATOM      8  C   UNL     1      -3.812  -4.505   5.121  0.00  0.00    -0.010 C 
ATOM      9  C   UNL     1      -3.012  -5.065   6.300  0.00  0.00    -0.082 C 
ATOM     10  N   UNL     1      -2.476  -6.385   5.948  0.00  0.00    +0.379 N 
ATOM     11  C   UNL     1      -1.530  -6.260   4.832  0.00  0.00    -0.082 C 
ATOM     12  C   UNL     1      -2.268  -5.750   3.590  0.00  0.00    -0.010 C 
ATOM     13  H   UNL     1      -2.001  -6.779   6.747  0.00  0.00    -0.086 HD
ATOM     14  H   UNL     1      -3.234  -6.994   5.677  0.00  0.00    -0.086 HD
ENDROOT
BRANCH   1  20
ATOM     15  C   UNL     1      -0.831   1.891  -0.497  0.00  0.00    +0.047 C 
ATOM     16  C   UNL     1      -0.688   0.394  -0.397  0.00  0.00    -0.014 A 
ATOM     17  C   UNL     1      -0.587  -0.368  -1.546  0.00  0.00    +0.007 A 
ATOM     18  C   UNL     1      -0.456  -1.743  -1.464  0.00  0.00    +0.021 A 
ATOM     19  C   UNL     1      -0.425  -2.365  -0.232  0.00  0.00    +0.056 A 
ATOM     20  C   UNL     1      -0.526  -1.603   0.935  0.00  0.00    +0.091 A 
ATOM     21  C   UNL     1      -0.653  -0.213   0.845  0.00  0.00    +0.140 A 
ATOM     22  F   UNL     1      -0.746   0.533   1.967  0.00  0.00    -0.204 F 
ATOM     23 CL   UNL     1      -0.261  -4.091  -0.133  0.00  0.00    -0.083 Cl
ENDBRANCH   1  20
BRANCH   5  24
ATOM     24  C   UNL     1      -3.611  -4.879   1.550  0.00  0.00    +0.218 C 
ATOM     25  O   UNL     1      -2.721  -4.784   0.731  0.00  0.00    -0.275 OA
ATOM     26  N   UNL     1      -4.521  -5.867   1.445  0.00  0.00    -0.316 N 
ATOM     27  H   UNL     1      -5.233  -5.943   2.100  0.00  0.00    +0.149 HD
BRANCH  26  28
ATOM     28  C   UNL     1      -4.436  -6.827   0.341  0.00  0.00    +0.093 C 
BRANCH  28  29
ATOM     29  C   UNL     1      -5.641  -7.768   0.389  0.00  0.00    -0.021 C 
BRANCH  29  30
ATOM     30  C   UNL     1      -5.578  -8.601   1.643  0.00  0.00    -0.059 A 
ATOM     31  C   UNL     1      -4.749  -9.706   1.698  0.00  0.00    +0.002 A 
ATOM     32  C   UNL     1      -4.691 -10.471   2.848  0.00  0.00    +0.000 A 
ATOM     33  C   UNL     1      -5.460 -10.130   3.944  0.00  0.00    +0.000 A 
ATOM     34  C   UNL     1      -6.288  -9.024   3.890  0.00  0.00    +0.000 A 
ATOM     35  C   UNL     1      -6.343  -8.257   2.742  0.00  0.00    +0.002 A 
ENDBRANCH  29  30
BRANCH  29  36
ATOM     36  N   UNL     1      -5.622  -8.649  -0.786  0.00  0.00    +0.382 N 
ATOM     37  C   UNL     1      -6.768  -9.566  -0.729  0.00  0.00    -0.096 C 
ATOM     38  C   UNL     1      -5.704  -7.838  -2.008  0.00  0.00    -0.096 C 
ATOM     39  H   UNL     1      -4.765  -9.182  -0.792  0.00  0.00    -0.082 HD
ENDBRANCH  29  36
ENDBRANCH  28  29
ENDBRANCH  26  28
ENDBRANCH   5  24
TORSDOF 6
