REMARK  Name = ZINC40758798
REMARK  5 active torsions:
REMARK  status: ('A' for Active; 'I' for Inactive)
REMARK    1  A    between atoms: C_1  and  C_2
REMARK    2  A    between atoms: C_9  and  N_12
REMARK    3  A    between atoms: C_14  and  N_27
REMARK    4  A    between atoms: C_15  and  N_19
REMARK    5  A    between atoms: N_19  and  C_20
REMARK                            x       y       z     vdW  Elec       q    Type
REMARK                         _______ _______ _______ _____ _____    ______ ____
ROOT
ATOM      1  N   UNL     1       0.012  -1.965   3.619  0.00  0.00    -0.296 N 
ATOM      2  C   UNL     1      -0.071  -2.645   4.829  0.00  0.00    +0.149 A 
ATOM      3  C   UNL     1      -0.178  -1.942   6.031  0.00  0.00    +0.106 A 
ATOM      4  C   UNL     1      -0.259  -2.674   7.217  0.00  0.00    +0.149 A 
ATOM      5  N   UNL     1      -0.230  -4.004   7.158  0.00  0.00    -0.219 NA
ATOM      6  C   UNL     1      -0.128  -4.628   6.002  0.00  0.00    +0.225 A 
ATOM      7  N   UNL     1      -0.055  -3.975   4.859  0.00  0.00    -0.219 NA
ATOM      8  H   UNL     1       0.086  -0.998   3.610  0.00  0.00    +0.154 HD
ENDROOT
BRANCH   1  17
ATOM      9  C   UNL     1       2.342   0.955   0.287  0.00  0.00    +0.065 C 
ATOM     10  C   UNL     1       1.698  -0.405   0.204  0.00  0.00    +0.039 A 
ATOM     11  C   UNL     1       1.695  -1.081  -1.015  0.00  0.00    +0.023 A 
ATOM     12  C   UNL     1       1.116  -2.314  -1.109  0.00  0.00    +0.012 A 
ATOM     13  C   UNL     1       0.534  -2.865   0.050  0.00  0.00    +0.002 A 
ATOM     14  C   UNL     1      -0.079  -4.129   0.028  0.00  0.00    +0.010 A 
ATOM     15  C   UNL     1      -0.632  -4.635   1.164  0.00  0.00    +0.003 A 
ATOM     16  C   UNL     1      -0.602  -3.917   2.357  0.00  0.00    +0.025 A 
ATOM     17  C   UNL     1      -0.011  -2.674   2.418  0.00  0.00    +0.059 A 
ATOM     18  C   UNL     1       0.573  -2.124   1.255  0.00  0.00    +0.092 A 
ATOM     19  N   UNL     1       1.159  -0.924   1.281  0.00  0.00    -0.250 NA
ENDBRANCH   1  17
BRANCH   3  20
ATOM     20  N   UNL     1      -0.204  -0.539   6.046  0.00  0.00    -0.353 N 
ATOM     21  H   UNL     1      -0.147  -0.044   5.214  0.00  0.00    +0.143 HD
ATOM     22  H   UNL     1      -0.279  -0.064   6.889  0.00  0.00    +0.143 HD
ENDBRANCH   3  20
BRANCH   4  23
ATOM     23  N   UNL     1      -0.366  -2.024   8.442  0.00  0.00    -0.295 N 
ATOM     24  H   UNL     1      -0.454  -1.059   8.472  0.00  0.00    +0.154 HD
BRANCH  23  25
ATOM     25  C   UNL     1      -0.347  -2.763   9.629  0.00  0.00    +0.070 A 
ATOM     26  C   UNL     1      -0.919  -4.031   9.681  0.00  0.00    +0.028 A 
ATOM     27  C   UNL     1      -0.876  -4.724  10.880  0.00  0.00    +0.022 A 
ATOM     28  C   UNL     1      -0.271  -4.139  11.977  0.00  0.00    +0.112 A 
ATOM     29  N   UNL     1       0.262  -2.936  11.896  0.00  0.00    -0.242 NA
ATOM     30  C   UNL     1       0.248  -2.244  10.774  0.00  0.00    +0.150 A 
ATOM     31 CL   UNL     1       0.972  -0.667  10.726  0.00  0.00    -0.060 Cl
ENDBRANCH  23  25
ENDBRANCH   4  23
TORSDOF 4
