REMARK  Name = ZINC39710569
REMARK  13 active torsions:
REMARK  status: ('A' for Active; 'I' for Inactive)
REMARK    1  A    between atoms: C_1  and  C_2
REMARK    2  A    between atoms: C_2  and  C_3
REMARK    3  A    between atoms: C_10  and  C_15
REMARK    4  A    between atoms: C_15  and  C_17
REMARK    5  A    between atoms: C_15  and  N_27
REMARK    6  A    between atoms: N_22  and  C_23
REMARK    7  A    between atoms: C_23  and  C_24
REMARK    8  A    between atoms: C_23  and  C_25
REMARK    9  A    between atoms: C_23  and  C_26
REMARK   10  A    between atoms: N_27  and  C_28
REMARK   11  A    between atoms: N_27  and  C_36
REMARK   12  A    between atoms: C_28  and  C_29
REMARK   13  A    between atoms: C_36  and  C_37
REMARK                            x       y       z     vdW  Elec       q    Type
REMARK                         _______ _______ _______ _____ _____    ______ ____
ROOT
ATOM      1  C   UNL     1       5.730  -0.447  -4.562  0.00  0.00    -0.009 C 
ENDROOT
BRANCH   1   9
ATOM      2  C   UNL     1       2.936  -5.271  -6.285  0.00  0.00    -0.047 A 
ATOM      3  C   UNL     1       4.048  -6.070  -6.016  0.00  0.00    +0.005 A 
ATOM      4  C   UNL     1       5.119  -5.621  -5.311  0.00  0.00    +0.024 A 
ATOM      5  C   UNL     1       5.147  -4.304  -4.815  0.00  0.00    +0.040 A 
ATOM      6  N   UNL     1       6.203  -3.875  -4.125  0.00  0.00    -0.285 N 
ATOM      7  C   UNL     1       6.294  -2.652  -3.630  0.00  0.00    +0.223 C 
ATOM      8  O   UNL     1       7.284  -2.316  -3.008  0.00  0.00    -0.275 OA
ATOM      9  C   UNL     1       5.162  -1.671  -3.841  0.00  0.00    +0.088 C 
ATOM     10  C   UNL     1       3.958  -2.155  -4.626  0.00  0.00    -0.006 C 
ATOM     11  C   UNL     1       3.986  -3.439  -5.084  0.00  0.00    -0.007 A 
ATOM     12  C   UNL     1       2.868  -3.985  -5.854  0.00  0.00    +0.013 A 
ATOM     13  H   UNL     1       6.940  -4.488  -3.978  0.00  0.00    +0.155 HD
BRANCH   2  15
ATOM     14  C   UNL     1       2.022  -5.598  -8.567  0.00  0.00    +0.009 C 
ATOM     15  C   UNL     1       1.789  -5.846  -7.075  0.00  0.00    +0.032 C 
ENDBRANCH   2  15
ENDBRANCH   1   9
BRANCH   1  16
ATOM     16  C   UNL     1       6.895   0.126  -3.752  0.00  0.00    +0.205 C 
ATOM     17  N   UNL     1       7.898  -0.914  -3.490  0.00  0.00    -0.152 NA
ATOM     18  N   UNL     1       8.002  -1.071  -2.271  0.00  0.00    -0.070 NA
ATOM     19  N   UNL     1       7.157  -0.233  -1.543  0.00  0.00    -0.179 N 
ATOM     20  N   UNL     1       6.434   0.547  -2.412  0.00  0.00    -0.183 NA
ATOM     21  H   UNL     1       7.091  -0.205  -0.576  0.00  0.00    +0.191 HD
BRANCH  20  22
ATOM     22  C   UNL     1       4.992   0.315  -2.254  0.00  0.00    +0.035 C 
ATOM     23  C   UNL     1       4.762  -1.071  -1.647  0.00  0.00    +0.029 C 
ATOM     24  C   UNL     1       4.402   1.381  -1.329  0.00  0.00    +0.029 C 
ATOM     25  C   UNL     1       4.311   0.392  -3.622  0.00  0.00    +0.029 C 
ENDBRANCH  20  22
ENDBRANCH   1  16
BRANCH   1  26
ATOM     26  N   UNL     1       6.207  -0.840  -5.894  0.00  0.00    +0.389 N 
ATOM     27  H   UNL     1       6.842  -1.619  -5.808  0.00  0.00    -0.081 HD
BRANCH  26  28
ATOM     28  C   UNL     1       6.903   0.292  -6.519  0.00  0.00    -0.042 C 
BRANCH  28  29
ATOM     29  C   UNL     1       7.508  -0.149  -7.827  0.00  0.00    -0.064 A 
ATOM     30  C   UNL     1       8.739  -0.778  -7.841  0.00  0.00    +0.003 A 
ATOM     31  C   UNL     1       9.294  -1.184  -9.040  0.00  0.00    +0.020 A 
ATOM     32  C   UNL     1       8.618  -0.960 -10.226  0.00  0.00    +0.041 A 
ATOM     33  C   UNL     1       7.386  -0.331 -10.211  0.00  0.00    +0.020 A 
ATOM     34  C   UNL     1       6.829   0.069  -9.011  0.00  0.00    +0.003 A 
ATOM     35 CL   UNL     1       9.315  -1.469 -11.732  0.00  0.00    -0.084 Cl
ENDBRANCH  28  29
ENDBRANCH  26  28
BRANCH  26  36
ATOM     36  C   UNL     1       5.062  -1.231  -6.728  0.00  0.00    -0.046 C 
BRANCH  36  37
ATOM     37  C   UNL     1       4.072  -0.067  -6.814  0.00  0.00    +0.102 C 
ATOM     38  C   UNL     1       2.766  -0.539  -7.488  0.00  0.00    +0.032 C 
ATOM     39  C   UNL     1       2.393   0.681  -8.373  0.00  0.00    +0.030 C 
ATOM     40  C   UNL     1       3.799   1.191  -8.779  0.00  0.00    +0.160 C 
ATOM     41  O   UNL     1       4.624   0.981  -7.620  0.00  0.00    -0.378 OA
ENDBRANCH  36  37
ENDBRANCH  26  36
ENDBRANCH   1  26
TORSDOF 9
