REMARK  Name = ZINC39724284
REMARK  8 active torsions:
REMARK  status: ('A' for Active; 'I' for Inactive)
REMARK    1  A    between atoms: C_1  and  C_2
REMARK    2  A    between atoms: C_2  and  N_3
REMARK    3  A    between atoms: C_4  and  S_17
REMARK    4  A    between atoms: C_12  and  C_16
REMARK    5  A    between atoms: C_13  and  C_15
REMARK    6  A    between atoms: S_17  and  C_18
REMARK    7  A    between atoms: C_18  and  C_19
REMARK    8  A    between atoms: C_27  and  C_31
REMARK                            x       y       z     vdW  Elec       q    Type
REMARK                         _______ _______ _______ _____ _____    ______ ____
ROOT
ATOM      1  C   UNL     1       1.464   1.298  -3.690  0.00  0.00    +0.147 C 
ENDROOT
BRANCH   1   2
ATOM      2  C   UNL     1       1.493   2.597  -4.453  0.00  0.00    +0.120 A 
ATOM      3  N   UNL     1       2.698   3.087  -4.846  0.00  0.00    -0.310 N 
ATOM      4  H   UNL     1       3.508   2.599  -4.631  0.00  0.00    +0.170 HD
ATOM      5  C   UNL     1       2.778   4.250  -5.534  0.00  0.00    +0.259 A 
ATOM      6  O   UNL     1       3.850   4.700  -5.891  0.00  0.00    -0.267 OA
ATOM      7  C   UNL     1       1.516   4.949  -5.833  0.00  0.00    +0.065 A 
ATOM      8  C   UNL     1       1.492   6.152  -6.537  0.00  0.00    +0.016 A 
ATOM      9  C   UNL     1       0.300   6.766  -6.793  0.00  0.00    +0.016 A 
ATOM     10  C   UNL     1      -0.904   6.197  -6.355  0.00  0.00    +0.065 A 
ATOM     11  C   UNL     1      -0.901   4.998  -5.652  0.00  0.00    +0.043 A 
ATOM     12  C   UNL     1       0.313   4.362  -5.385  0.00  0.00    +0.079 A 
ATOM     13  N   UNL     1       0.365   3.188  -4.707  0.00  0.00    -0.233 NA
BRANCH  10  14
ATOM     14  C   UNL     1      -2.184   6.878  -6.643  0.00  0.00    +0.387 C 
ATOM     15  O   UNL     1      -2.191   7.932  -7.260  0.00  0.00    -0.241 OA
ATOM     16  O   UNL     1      -3.237   6.385  -6.262  0.00  0.00    -0.241 OA
ENDBRANCH  10  14
ENDBRANCH   1   2
BRANCH   1  17
ATOM     17  S   UNL     1      -0.253   0.866  -3.297  0.00  0.00    -0.107 S 
BRANCH  17  19
ATOM     18  N   UNL     1       0.688  -0.476  -1.203  0.00  0.00    -0.267 N 
ATOM     19  C   UNL     1      -0.116  -0.700  -2.391  0.00  0.00    +0.255 C 
ATOM     20  N   UNL     1       0.424  -1.715  -3.301  0.00  0.00    -0.243 NA
ATOM     21  C   UNL     1       1.683  -1.962  -3.295  0.00  0.00    +0.107 C 
ATOM     22  C   UNL     1       2.641  -1.358  -2.311  0.00  0.00    +0.068 C 
ATOM     23  C   UNL     1       2.023  -0.668  -1.130  0.00  0.00    +0.251 C 
ATOM     24  O   UNL     1       2.679  -0.309  -0.171  0.00  0.00    -0.270 OA
ATOM     25  C   UNL     1       3.932  -1.481  -2.564  0.00  0.00    -0.045 C 
ATOM     26  C   UNL     1       4.330  -2.249  -3.812  0.00  0.00    +0.076 C 
ATOM     27  S   UNL     1       2.713  -2.984  -4.309  0.00  0.00    -0.098 S 
ATOM     28  C   UNL     1       5.354  -3.339  -3.486  0.00  0.00    +0.024 C 
ATOM     29  C   UNL     1       4.969  -0.883  -1.649  0.00  0.00    +0.041 C 
BRANCH  18  31
ATOM     30  C   UNL     1      -0.019   1.526   0.010  0.00  0.00    +0.024 C 
ATOM     31  C   UNL     1       0.002  -0.004   0.002  0.00  0.00    +0.107 C 
ENDBRANCH  18  31
ENDBRANCH  17  19
ENDBRANCH   1  17
TORSDOF 5
