REMARK  Name = ZINC48890911
REMARK  7 active torsions:
REMARK  status: ('A' for Active; 'I' for Inactive)
REMARK    1  A    between atoms: C_1  and  N_2
REMARK    2  A    between atoms: N_2  and  C_3
REMARK    3  A    between atoms: C_3  and  C_4
REMARK    4  A    between atoms: C_14  and  C_16
REMARK    5  A    between atoms: C_16  and  C_17
REMARK    6  A    between atoms: C_17  and  C_18
REMARK    7  A    between atoms: C_18  and  C_19
REMARK                            x       y       z     vdW  Elec       q    Type
REMARK                         _______ _______ _______ _____ _____    ______ ____
ROOT
ATOM      1  C   UNL     1      -0.018   1.461   0.010  0.00  0.00    +0.134 C 
ATOM      2  N   UNL     1       0.002  -0.004   0.002  0.00  0.00    -0.284 N 
ATOM      3  C   UNL     1       0.000  -0.672  -1.169  0.00  0.00    +0.309 C 
ATOM      4  O   UNL     1       0.017  -1.887  -1.175  0.00  0.00    -0.252 OA
ATOM      5  N   UNL     1      -0.020   0.009  -2.332  0.00  0.00    -0.240 N 
ATOM      6  C   UNL     1      -0.022  -0.659  -3.503  0.00  0.00    +0.220 C 
ATOM      7  O   UNL     1      -0.006  -1.871  -3.510  0.00  0.00    -0.275 OA
ATOM      8  H   UNL     1      -0.033   0.978  -2.327  0.00  0.00    +0.159 HD
ENDROOT
BRANCH   2   9
ATOM      9  C   UNL     1       0.024  -0.743   1.267  0.00  0.00    +0.144 C 
BRANCH   9  10
ATOM     10  C   UNL     1      -1.389  -1.016   1.714  0.00  0.00    -0.030 A 
ATOM     11  C   UNL     1      -2.047  -0.105   2.518  0.00  0.00    +0.006 A 
ATOM     12  C   UNL     1      -3.343  -0.354   2.928  0.00  0.00    +0.015 A 
ATOM     13  C   UNL     1      -3.982  -1.516   2.533  0.00  0.00    +0.018 A 
ATOM     14  C   UNL     1      -3.323  -2.428   1.728  0.00  0.00    +0.015 A 
ATOM     15  C   UNL     1      -2.029  -2.175   1.314  0.00  0.00    +0.006 A 
ATOM     16 BR   UNL     1      -5.755  -1.859   3.094  0.00  0.00    -0.050 Br
ENDBRANCH   9  10
ENDBRANCH   2   9
BRANCH   6  17
ATOM     17  C   UNL     1      -0.045   0.101  -4.804  0.00  0.00    +0.097 C 
BRANCH  17  18
ATOM     18  C   UNL     1      -0.043  -0.886  -5.972  0.00  0.00    +0.020 C 
BRANCH  18  19
ATOM     19  C   UNL     1      -0.066  -0.115  -7.293  0.00  0.00    +0.125 C 
BRANCH  19  20
ATOM     20  C   UNL     1      -0.063  -1.087  -8.444  0.00  0.00    +0.356 C 
ATOM     21  O   UNL     1      -0.045  -2.287  -8.228  0.00  0.00    -0.246 OA
ATOM     22  O   UNL     1      -0.080  -0.675  -9.591  0.00  0.00    -0.246 OA
ENDBRANCH  19  20
ENDBRANCH  18  19
ENDBRANCH  17  18
ENDBRANCH   6  17
TORSDOF 6
