REMARK  Name = ZINC43244568
REMARK  7 active torsions:
REMARK  status: ('A' for Active; 'I' for Inactive)
REMARK    1  A    between atoms: C_1  and  C_2
REMARK    2  A    between atoms: C_5  and  C_7
REMARK    3  A    between atoms: C_7  and  C_9
REMARK    4  A    between atoms: C_7  and  O_13
REMARK    5  A    between atoms: C_9  and  C_11
REMARK    6  A    between atoms: C_9  and  N_12
REMARK    7  A    between atoms: O_13  and  C_14
REMARK                            x       y       z     vdW  Elec       q    Type
REMARK                         _______ _______ _______ _____ _____    ______ ____
ROOT
ATOM      1  C   UNL     1       1.036  -4.057  -0.017  0.00  0.00    +0.196 C 
ENDROOT
BRANCH   1   6
ATOM      2  C   UNL     1      -0.139   1.480   0.212  0.00  0.00    +0.051 C 
ATOM      3  C   UNL     1      -0.087  -0.025   0.154  0.00  0.00    -0.013 A 
ATOM      4  C   UNL     1      -1.111  -0.913   0.131  0.00  0.00    +0.011 A 
ATOM      5  C   UNL     1      -0.824  -2.264   0.075  0.00  0.00    +0.015 A 
ATOM      6  C   UNL     1       0.471  -2.661   0.044  0.00  0.00    +0.029 A 
ATOM      7  S   UNL     1       1.336  -1.099   0.088  0.00  0.00    -0.095 S 
ENDBRANCH   1   6
BRANCH   1   8
ATOM      8  C   UNL     1       1.442  -4.380  -1.456  0.00  0.00    -0.032 C 
ATOM      9  C   UNL     1       0.216  -4.285  -2.366  0.00  0.00    -0.010 C 
BRANCH   8  10
ATOM     10  N   UNL     1       1.992  -5.741  -1.515  0.00  0.00    +0.382 N 
ATOM     11  H   UNL     1       1.293  -6.400  -1.207  0.00  0.00    -0.089 HD
ATOM     12  H   UNL     1       2.260  -5.954  -2.464  0.00  0.00    -0.089 HD
ATOM     13  H   UNL     1       2.801  -5.803  -0.915  0.00  0.00    -0.089 HD
ENDBRANCH   8  10
ENDBRANCH   1   8
BRANCH   1  14
ATOM     14  O   UNL     1       2.181  -4.145   0.833  0.00  0.00    -0.484 OA
BRANCH  14  15
ATOM     15  C   UNL     1       2.352  -5.306   1.519  0.00  0.00    +0.135 A 
ATOM     16  C   UNL     1       1.504  -6.380   1.290  0.00  0.00    +0.048 A 
ATOM     17  C   UNL     1       1.680  -7.559   1.988  0.00  0.00    +0.023 A 
ATOM     18  C   UNL     1       2.701  -7.670   2.915  0.00  0.00    +0.042 A 
ATOM     19  C   UNL     1       3.548  -6.601   3.146  0.00  0.00    +0.039 A 
ATOM     20  C   UNL     1       3.379  -5.421   2.446  0.00  0.00    +0.061 A 
ATOM     21 BR   UNL     1       4.542  -3.962   2.756  0.00  0.00    -0.046 Br
ATOM     22 CL   UNL     1       2.919  -9.153   3.791  0.00  0.00    -0.084 Cl
ENDBRANCH  14  15
ENDBRANCH   1  14
TORSDOF 5
