REMARK  Name = ZINC32733815
REMARK  13 active torsions:
REMARK  status: ('A' for Active; 'I' for Inactive)
REMARK    1  A    between atoms: C_1  and  C_2
REMARK    2  A    between atoms: C_2  and  C_3
REMARK    3  A    between atoms: C_6  and  C_9
REMARK    4  A    between atoms: C_9  and  C_11
REMARK    5  A    between atoms: C_9  and  N_34
REMARK    6  A    between atoms: C_11  and  N_12
REMARK    7  A    between atoms: C_13  and  C_15
REMARK    8  A    between atoms: C_15  and  C_16
REMARK    9  A    between atoms: C_16  and  S_17
REMARK   10  A    between atoms: S_17  and  C_18
REMARK   11  A    between atoms: C_18  and  C_19
REMARK   12  A    between atoms: N_34  and  C_35
REMARK   13  A    between atoms: N_34  and  C_36
REMARK                            x       y       z     vdW  Elec       q    Type
REMARK                         _______ _______ _______ _____ _____    ______ ____
ROOT
ATOM      1  C   UNL     1       4.136  -2.150   9.253  0.00  0.00    +0.106 C 
ENDROOT
BRANCH   1   3
ATOM      2  N   UNL     1       3.457  -1.988   6.880  0.00  0.00    -0.317 N 
ATOM      3  C   UNL     1       3.742  -1.354   8.035  0.00  0.00    +0.214 C 
ATOM      4  O   UNL     1       3.682  -0.144   8.094  0.00  0.00    -0.276 OA
ATOM      5  H   UNL     1       3.505  -2.955   6.833  0.00  0.00    +0.149 HD
BRANCH   2   6
ATOM      6  C   UNL     1       3.074  -1.215   5.696  0.00  0.00    +0.093 C 
BRANCH   6   7
ATOM      7  C   UNL     1       2.713  -2.171   4.558  0.00  0.00    -0.021 C 
BRANCH   7  11
ATOM      8  C   UNL     1       6.173  -4.404   3.422  0.00  0.00    -0.048 A 
ATOM      9  C   UNL     1       5.223  -4.974   4.249  0.00  0.00    +0.004 A 
ATOM     10  C   UNL     1       4.104  -4.251   4.617  0.00  0.00    +0.002 A 
ATOM     11  C   UNL     1       3.934  -2.958   4.157  0.00  0.00    -0.059 A 
ATOM     12  C   UNL     1       4.885  -2.388   3.331  0.00  0.00    +0.002 A 
ATOM     13  C   UNL     1       6.006  -3.109   2.967  0.00  0.00    +0.004 A 
BRANCH   8  15
ATOM     14  C   UNL     1       8.508  -4.961   4.044  0.00  0.00    +0.009 C 
ATOM     15  C   UNL     1       7.394  -5.192   3.021  0.00  0.00    +0.032 C 
ENDBRANCH   8  15
ENDBRANCH   7  11
BRANCH   7  16
ATOM     16  N   UNL     1       2.229  -1.399   3.405  0.00  0.00    +0.382 N 
ATOM     17  C   UNL     1       1.926  -2.314   2.296  0.00  0.00    -0.096 C 
ATOM     18  C   UNL     1       1.013  -0.667   3.782  0.00  0.00    -0.096 C 
ATOM     19  H   UNL     1       2.940  -0.744   3.116  0.00  0.00    -0.082 HD
ENDBRANCH   7  16
ENDBRANCH   6   7
ENDBRANCH   2   6
ENDBRANCH   1   3
BRANCH   1  20
ATOM     20  C   UNL     1       4.405  -1.196  10.419  0.00  0.00    +0.079 C 
BRANCH  20  21
ATOM     21  S   UNL     1       4.879  -2.154  11.886  0.00  0.00    -0.153 S 
BRANCH  21  22
ATOM     22  C   UNL     1       5.159  -0.894  13.161  0.00  0.00    +0.143 C 
BRANCH  22  23
ATOM     23  C   UNL     1       5.565  -1.564  14.448  0.00  0.00    +0.121 A 
ATOM     24  N   UNL     1       5.819  -0.804  15.544  0.00  0.00    -0.310 N 
ATOM     25  H   UNL     1       5.736   0.161  15.483  0.00  0.00    +0.170 HD
ATOM     26  C   UNL     1       6.184  -1.361  16.714  0.00  0.00    +0.260 A 
ATOM     27  O   UNL     1       6.409  -0.665  17.689  0.00  0.00    -0.267 OA
ATOM     28  C   UNL     1       6.304  -2.787  16.794  0.00  0.00    +0.075 A 
ATOM     29  C   UNL     1       6.683  -3.604  17.946  0.00  0.00    -0.023 A 
ATOM     30  C   UNL     1       6.723  -4.940  17.763  0.00  0.00    -0.004 A 
ATOM     31  S   UNL     1       6.263  -5.185  16.068  0.00  0.00    -0.073 S 
ATOM     32  C   UNL     1       6.021  -3.488  15.611  0.00  0.00    +0.116 A 
ATOM     33  N   UNL     1       5.660  -2.866  14.492  0.00  0.00    -0.226 NA
ATOM     34  C   UNL     1       7.079  -5.985  18.776  0.00  0.00    +0.043 C 
ATOM     35  C   UNL     1       7.759  -5.294  19.966  0.00  0.00    +0.005 C 
ATOM     36  C   UNL     1       6.919  -4.080  20.373  0.00  0.00    +0.005 C 
ATOM     37  C   UNL     1       7.023  -2.993  19.303  0.00  0.00    +0.037 C 
ENDBRANCH  22  23
ENDBRANCH  21  22
ENDBRANCH  20  21
ENDBRANCH   1  20
TORSDOF 10
