REMARK  Name = ZINC09549208
REMARK  8 active torsions:
REMARK  status: ('A' for Active; 'I' for Inactive)
REMARK    1  A    between atoms: C_1  and  C_2
REMARK    2  A    between atoms: C_2  and  C_3
REMARK    3  A    between atoms: C_3  and  C_27
REMARK    4  A    between atoms: N_6  and  C_10
REMARK    5  A    between atoms: C_10  and  C_11
REMARK    6  A    between atoms: N_13  and  C_14
REMARK    7  A    between atoms: C_14  and  C_16
REMARK    8  A    between atoms: C_14  and  C_17
REMARK                            x       y       z     vdW  Elec       q    Type
REMARK                         _______ _______ _______ _____ _____    ______ ____
ROOT
ATOM      1  C   UNL     1       4.600  -3.572  -2.438  0.00  0.00    +0.213 C 
ENDROOT
BRANCH   1   5
ATOM      2  C   UNL     1       8.004  -4.860  -3.178  0.00  0.00    +0.138 C 
ATOM      3  C   UNL     1       6.757  -4.802  -2.318  0.00  0.00    +0.251 C 
ATOM      4  O   UNL     1       6.546  -5.411  -1.291  0.00  0.00    -0.272 OA
ATOM      5  N   UNL     1       5.931  -3.932  -2.932  0.00  0.00    -0.215 N 
ATOM      6  C   UNL     1       6.475  -3.441  -4.051  0.00  0.00    +0.310 C 
ATOM      7  O   UNL     1       5.919  -2.641  -4.778  0.00  0.00    -0.252 OA
ATOM      8  N   UNL     1       7.708  -3.929  -4.280  0.00  0.00    -0.281 N 
ATOM      9  H   UNL     1       8.288  -3.711  -5.027  0.00  0.00    +0.152 HD
BRANCH   2  10
ATOM     10  C   UNL     1       8.221  -6.256  -3.704  0.00  0.00    -0.015 A 
ATOM     11  C   UNL     1       8.992  -7.152  -2.987  0.00  0.00    +0.006 A 
ATOM     12  C   UNL     1       9.187  -8.434  -3.466  0.00  0.00    +0.000 A 
ATOM     13  C   UNL     1       8.619  -8.817  -4.667  0.00  0.00    +0.000 A 
ATOM     14  C   UNL     1       7.853  -7.919  -5.387  0.00  0.00    +0.000 A 
ATOM     15  C   UNL     1       7.653  -6.639  -4.905  0.00  0.00    +0.006 A 
ENDBRANCH   2  10
BRANCH   2  17
ATOM     16  C   UNL     1       9.001  -2.952  -1.911  0.00  0.00    +0.007 C 
ATOM     17  C   UNL     1       9.226  -4.389  -2.387  0.00  0.00    +0.037 C 
ENDBRANCH   2  17
ENDBRANCH   1   5
BRANCH   1  18
ATOM     18  C   UNL     1       4.709  -2.383  -1.518  0.00  0.00    +0.231 C 
ATOM     19  O   UNL     1       5.793  -1.885  -1.298  0.00  0.00    -0.274 OA
ATOM     20  N   UNL     1       3.603  -1.873  -0.942  0.00  0.00    -0.307 N 
ATOM     21  H   UNL     1       2.736  -2.272  -1.118  0.00  0.00    +0.149 HD
BRANCH  20  22
ATOM     22  C   UNL     1       3.709  -0.717  -0.048  0.00  0.00    +0.100 C 
ATOM     23  C   UNL     1       4.048  -1.195   1.365  0.00  0.00    +0.033 C 
BRANCH  22  24
ATOM     24  C   UNL     1       2.397   0.024  -0.027  0.00  0.00    -0.024 A 
ATOM     25  C   UNL     1       1.207  -0.680  -0.016  0.00  0.00    +0.009 A 
ATOM     26  C   UNL     1       0.002  -0.004   0.002  0.00  0.00    +0.050 A 
ATOM     27  C   UNL     1      -0.017   1.383   0.010  0.00  0.00    +0.162 A 
ATOM     28  C   UNL     1       1.179   2.090   0.002  0.00  0.00    +0.162 A 
ATOM     29  C   UNL     1       2.385   1.406  -0.018  0.00  0.00    +0.055 A 
ATOM     30  O   UNL     1       1.184   3.451   0.018  0.00  0.00    -0.485 OA
ATOM     31  C   UNL     1      -0.040   4.103  -0.340  0.00  0.00    +0.270 C 
ATOM     32  C   UNL     1      -1.189   3.413   0.408  0.00  0.00    +0.270 C 
ATOM     33  O   UNL     1      -1.212   2.035   0.019  0.00  0.00    -0.485 OA
ENDBRANCH  22  24
ENDBRANCH  20  22
ENDBRANCH   1  18
TORSDOF 6
