REMARK  Name = ZINC09821792
REMARK  5 active torsions:
REMARK  status: ('A' for Active; 'I' for Inactive)
REMARK    1  A    between atoms: C_4  and  S_7
REMARK    2  A    between atoms: S_7  and  N_10
REMARK    3  A    between atoms: N_10  and  C_11
REMARK    4  A    between atoms: C_13  and  C_16
REMARK    5  A    between atoms: C_16  and  C_17
REMARK                            x       y       z     vdW  Elec       q    Type
REMARK                         _______ _______ _______ _____ _____    ______ ____
ROOT
ATOM      1  C   UNL     1       5.560  -1.740   1.827  0.00  0.00    +0.202 A 
ATOM      2  N   UNL     1       6.067  -2.028   3.007  0.00  0.00    -0.227 NA
ATOM      3  C   UNL     1       7.216  -2.671   3.117  0.00  0.00    +0.059 A 
ATOM      4  C   UNL     1       7.842  -3.015   1.966  0.00  0.00    +0.072 A 
ATOM      5  S   UNL     1       6.694  -2.376   0.758  0.00  0.00    -0.057 S 
ENDROOT
BRANCH   1   6
ATOM      6  N   UNL     1       4.378  -1.079   1.536  0.00  0.00    -0.070 NA
BRANCH   6   7
ATOM      7  S   UNL     1       3.934  -0.832  -0.041  0.00  0.00    +0.093 S 
ATOM      8  O   UNL     1       3.674  -2.114  -0.595  0.00  0.00    -0.148 OA
ATOM      9  O   UNL     1       4.890   0.060  -0.597  0.00  0.00    -0.148 OA
BRANCH   7  13
ATOM     10  C   UNL     1      -0.017   1.378   0.010  0.00  0.00    +0.000 A 
ATOM     11  C   UNL     1       1.171   2.086   0.002  0.00  0.00    +0.002 A 
ATOM     12  C   UNL     1       2.377   1.411  -0.013  0.00  0.00    +0.029 A 
ATOM     13  C   UNL     1       2.396   0.029  -0.020  0.00  0.00    +0.110 A 
ATOM     14  C   UNL     1       1.208  -0.679  -0.012  0.00  0.00    +0.029 A 
ATOM     15  C   UNL     1       0.002  -0.004   0.002  0.00  0.00    +0.002 A 
ENDBRANCH   7  13
ENDBRANCH   6   7
ENDBRANCH   1   6
BRANCH   3  16
ATOM     16  C   UNL     1       7.805  -3.005   4.464  0.00  0.00    +0.152 C 
BRANCH  16  17
ATOM     17  C   UNL     1       7.931  -1.747   5.283  0.00  0.00    +0.224 C 
ATOM     18  O   UNL     1       7.579  -0.683   4.820  0.00  0.00    -0.275 OA
ATOM     19  N   UNL     1       8.437  -1.804   6.531  0.00  0.00    -0.264 N 
ATOM     20  C   UNL     1       8.553  -0.647   7.285  0.00  0.00    +0.165 A 
ATOM     21  N   UNL     1       8.224   0.582   6.962  0.00  0.00    -0.225 NA
ATOM     22  C   UNL     1       8.395   1.624   7.805  0.00  0.00    +0.080 A 
ATOM     23  C   UNL     1       8.085   2.986   7.583  0.00  0.00    +0.029 A 
ATOM     24  C   UNL     1       8.324   3.925   8.552  0.00  0.00    +0.002 A 
ATOM     25  C   UNL     1       8.874   3.579   9.777  0.00  0.00    +0.001 A 
ATOM     26  C   UNL     1       9.189   2.256  10.029  0.00  0.00    +0.017 A 
ATOM     27  C   UNL     1       8.954   1.308   9.064  0.00  0.00    +0.041 A 
ATOM     28  S   UNL     1       9.183  -0.449   8.946  0.00  0.00    -0.052 S 
ATOM     29  H   UNL     1       8.719  -2.654   6.902  0.00  0.00    +0.157 HD
ENDBRANCH  16  17
ENDBRANCH   3  16
TORSDOF 5
