REMARK  Name = ZINC50831217
REMARK  4 active torsions:
REMARK  status: ('A' for Active; 'I' for Inactive)
REMARK    1  A    between atoms: C_3  and  O_12
REMARK    2  A    between atoms: O_12  and  C_13
REMARK    3  A    between atoms: C_13  and  C_14
REMARK    4  A    between atoms: C_15  and  N_19
REMARK                            x       y       z     vdW  Elec       q    Type
REMARK                         _______ _______ _______ _____ _____    ______ ____
ROOT
ATOM      1  C   UNL     1      -0.017   1.401   0.010  0.00  0.00    +0.012 A 
ATOM      2  C   UNL     1       1.155   2.092   0.002  0.00  0.00    +0.046 A 
ATOM      3  C   UNL     1       2.383   1.424  -0.013  0.00  0.00    +0.122 A 
ATOM      4  C   UNL     1       2.438   0.059  -0.021  0.00  0.00    +0.054 A 
ATOM      5  C   UNL     1       1.246  -0.684  -0.013  0.00  0.00    -0.014 A 
ATOM      6  C   UNL     1       0.002  -0.004   0.002  0.00  0.00    -0.017 A 
ATOM      7  C   UNL     1      -1.190  -0.749   0.009  0.00  0.00    +0.023 A 
ATOM      8  C   UNL     1      -1.134  -2.109   0.001  0.00  0.00    +0.018 A 
ATOM      9  C   UNL     1       0.090  -2.778  -0.015  0.00  0.00    +0.016 A 
ATOM     10  C   UNL     1       1.263  -2.090  -0.022  0.00  0.00    +0.010 A 
ATOM     11 BR   UNL     1      -2.741  -3.107   0.011  0.00  0.00    -0.050 Br
ENDROOT
BRANCH   3  12
ATOM     12  O   UNL     1       3.537   2.141  -0.022  0.00  0.00    -0.486 OA
BRANCH  12  13
ATOM     13  C   UNL     1       3.415   3.565  -0.013  0.00  0.00    +0.288 C 
BRANCH  13  14
ATOM     14  C   UNL     1       4.788   4.186  -0.024  0.00  0.00    +0.130 A 
ATOM     15  C   UNL     1       5.459   4.473   1.131  0.00  0.00    +0.110 A 
ATOM     16  S   UNL     1       6.892   5.130   0.548  0.00  0.00    +0.051 S 
ATOM     17  N   UNL     1       6.581   5.013  -1.095  0.00  0.00    -0.108 NA
ATOM     18  N   UNL     1       5.409   4.478  -1.145  0.00  0.00    -0.141 NA
BRANCH  15  19
ATOM     19  N   UNL     1       5.059   4.273   2.450  0.00  0.00    -0.350 N 
ATOM     20  H   UNL     1       4.193   3.879   2.639  0.00  0.00    +0.143 HD
ATOM     21  H   UNL     1       5.646   4.528   3.179  0.00  0.00    +0.143 HD
ENDBRANCH  15  19
ENDBRANCH  13  14
ENDBRANCH  12  13
ENDBRANCH   3  12
TORSDOF 4
