REMARK  Name = ZINC20413292
REMARK  10 active torsions:
REMARK  status: ('A' for Active; 'I' for Inactive)
REMARK    1  A    between atoms: C_1  and  C_2
REMARK    2  A    between atoms: C_2  and  C_32
REMARK    3  A    between atoms: C_6  and  C_16
REMARK    4  A    between atoms: C_11  and  S_13
REMARK    5  A    between atoms: S_13  and  C_14
REMARK    6  A    between atoms: C_19  and  O_24
REMARK    7  A    between atoms: C_20  and  O_22
REMARK    8  A    between atoms: O_22  and  C_23
REMARK    9  A    between atoms: O_24  and  C_25
REMARK   10  A    between atoms: C_25  and  C_26
REMARK                            x       y       z     vdW  Elec       q    Type
REMARK                         _______ _______ _______ _____ _____    ______ ____
ROOT
ATOM      1  C   UNL     1       3.778   2.862   3.393  0.00  0.00    +0.011 C 
ATOM      2  C   UNL     1       3.360   4.315   3.623  0.00  0.00    -0.023 C 
ATOM      3  C   UNL     1       3.780   5.169   2.425  0.00  0.00    +0.058 C 
ATOM      4  C   UNL     1       3.090   4.670   1.178  0.00  0.00    +0.020 C 
ATOM      5  C   UNL     1       1.867   4.101   1.242  0.00  0.00    +0.041 C 
ATOM      6  C   UNL     1       1.149   3.596   0.010  0.00  0.00    +0.176 C 
ATOM      7  N   UNL     1       1.805   4.096  -1.191  0.00  0.00    -0.220 N 
ATOM      8  C   UNL     1       3.034   4.667  -1.187  0.00  0.00    +0.219 A 
ATOM      9  N   UNL     1       3.334   4.993  -2.415  0.00  0.00    -0.187 NA
ATOM     10  C   UNL     1       2.323   4.654  -3.228  0.00  0.00    +0.210 A 
ATOM     11  N   UNL     1       1.366   4.102  -2.514  0.00  0.00    -0.141 NA
ATOM     12  N   UNL     1       3.755   4.823  -0.015  0.00  0.00    -0.287 N 
ATOM     13  C   UNL     1       1.203   3.954   2.474  0.00  0.00    +0.164 C 
ATOM     14  O   UNL     1       0.095   3.457   2.496  0.00  0.00    -0.292 OA
ATOM     15  C   UNL     1       1.836   4.398   3.764  0.00  0.00    +0.086 C 
ATOM     16  C   UNL     1       4.024   4.848   4.895  0.00  0.00    +0.011 C 
ATOM     17  H   UNL     1       4.828   5.064  -0.019  0.00  0.00    +0.155 HD
ENDROOT
BRANCH   6  18
ATOM     18  C   UNL     1       1.171   2.089   0.002  0.00  0.00    -0.015 A 
ATOM     19  C   UNL     1       2.379   1.417  -0.013  0.00  0.00    +0.010 A 
ATOM     20  C   UNL     1       2.405   0.035  -0.021  0.00  0.00    +0.050 A 
ATOM     21  C   UNL     1       1.218  -0.680  -0.013  0.00  0.00    +0.163 A 
ATOM     22  C   UNL     1       0.002  -0.004   0.002  0.00  0.00    +0.162 A 
ATOM     23  C   UNL     1      -0.017   1.381   0.010  0.00  0.00    +0.055 A 
BRANCH  22  24
ATOM     24  O   UNL     1      -1.165  -0.702   0.009  0.00  0.00    -0.491 OA
ATOM     25  C   UNL     1      -2.375   0.059   0.024  0.00  0.00    +0.277 C 
ENDBRANCH  22  24
BRANCH  21  26
ATOM     26  O   UNL     1       1.242  -2.040  -0.021  0.00  0.00    -0.479 OA
BRANCH  26  27
ATOM     27  C   UNL     1       2.526  -2.666  -0.037  0.00  0.00    +0.324 C 
BRANCH  27  28
ATOM     28  C   UNL     1       2.355  -4.164  -0.044  0.00  0.00    +0.248 C 
ATOM     29  O   UNL     1       1.242  -4.647  -0.036  0.00  0.00    -0.272 OA
ATOM     30  N   UNL     1       3.438  -4.966  -0.059  0.00  0.00    -0.327 N 
ATOM     31  H   UNL     1       3.312  -6.059  -0.064  0.00  0.00    +0.145 HD
ATOM     32  H   UNL     1       4.447  -4.528  -0.066  0.00  0.00    +0.145 HD
ENDBRANCH  27  28
ENDBRANCH  26  27
ENDBRANCH  21  26
ENDBRANCH   6  18
BRANCH  10  33
ATOM     33  S   UNL     1       2.284   4.907  -4.971  0.00  0.00    -0.088 S 
ATOM     34  C   UNL     1       3.876   5.696  -5.337  0.00  0.00    +0.093 C 
ENDBRANCH  10  33
TORSDOF 6
