REMARK  Name = ZINC64097988
REMARK  5 active torsions:
REMARK  status: ('A' for Active; 'I' for Inactive)
REMARK    1  A    between atoms: C_8  and  N_11
REMARK    2  A    between atoms: C_12  and  C_14
REMARK    3  A    between atoms: C_14  and  S_15
REMARK    4  A    between atoms: S_15  and  C_16
REMARK    5  A    between atoms: C_22  and  N_26
REMARK                            x       y       z     vdW  Elec       q    Type
REMARK                         _______ _______ _______ _____ _____    ______ ____
ROOT
ATOM      1  C   UNL     1       4.274  -5.124   2.436  0.00  0.00    +0.168 C 
ENDROOT
BRANCH   1   3
ATOM      2  N   UNL     1       2.955  -3.464   1.161  0.00  0.00    -0.288 N 
ATOM      3  C   UNL     1       4.011  -4.300   1.201  0.00  0.00    +0.225 C 
ATOM      4  O   UNL     1       4.751  -4.389   0.244  0.00  0.00    -0.275 OA
ATOM      5  H   UNL     1       2.363  -3.392   1.927  0.00  0.00    +0.151 HD
BRANCH   2  13
ATOM      6  C   UNL     1      -0.017   1.371   0.010  0.00  0.00    +0.002 A 
ATOM      7  C   UNL     1       1.157   2.102   0.002  0.00  0.00    +0.001 A 
ATOM      8  C   UNL     1       2.367   1.427  -0.013  0.00  0.00    +0.016 A 
ATOM      9  C   UNL     1       2.384   0.051  -0.020  0.00  0.00    +0.032 A 
ATOM     10  C   UNL     1       1.215  -0.716  -0.013  0.00  0.00    +0.043 A 
ATOM     11  C   UNL     1       0.002  -0.004   0.002  0.00  0.00    +0.024 A 
ATOM     12  N   UNL     1       1.341  -2.104  -0.022  0.00  0.00    -0.316 N 
ATOM     13  C   UNL     1       2.700  -2.663  -0.039  0.00  0.00    +0.224 C 
ATOM     14  S   UNL     1       3.714  -1.130  -0.039  0.00  0.00    -0.082 S 
ATOM     15  H   UNL     1       0.560  -2.680  -0.018  0.00  0.00    +0.149 HD
ENDBRANCH   2  13
ENDBRANCH   1   3
BRANCH   1  16
ATOM     16  S   UNL     1       5.755  -6.139   2.181  0.00  0.00    -0.106 S 
BRANCH  16  17
ATOM     17  C   UNL     1       5.930  -7.057   3.736  0.00  0.00    +0.236 C 
ATOM     18  N   UNL     1       6.041  -6.123   4.863  0.00  0.00    -0.355 N 
ATOM     19  C   UNL     1       5.038  -6.353   5.661  0.00  0.00    +0.061 A 
ATOM     20  C   UNL     1       4.615  -5.751   6.933  0.00  0.00    +0.029 A 
ATOM     21  C   UNL     1       3.506  -6.207   7.548  0.00  0.00    +0.035 A 
ATOM     22  C   UNL     1       2.721  -7.248   7.021  0.00  0.00    +0.128 A 
ATOM     23  C   UNL     1       3.019  -7.869   5.863  0.00  0.00    +0.060 A 
ATOM     24  C   UNL     1       4.207  -7.455   5.104  0.00  0.00    +0.063 A 
ATOM     25  N   UNL     1       4.729  -7.865   3.982  0.00  0.00    -0.355 N 
ATOM     26  H   UNL     1       4.387  -8.573   3.414  0.00  0.00    +0.162 HD
ATOM     27  H   UNL     1       6.734  -5.457   4.990  0.00  0.00    +0.162 HD
BRANCH  22  28
ATOM     28  N   UNL     1       1.519  -7.680   7.770  0.00  0.00    +0.056 N 
ATOM     29  O   UNL     1       1.229  -7.139   8.812  0.00  0.00    -0.126 OA
ATOM     30  O   UNL     1       0.827  -8.573   7.339  0.00  0.00    -0.126 OA
ENDBRANCH  22  28
ENDBRANCH  16  17
ENDBRANCH   1  16
TORSDOF 5
