REMARK  Name = ZINC32655333
REMARK  8 active torsions:
REMARK  status: ('A' for Active; 'I' for Inactive)
REMARK    1  A    between atoms: C_1  and  C_2
REMARK    2  A    between atoms: C_3  and  C_31
REMARK    3  A    between atoms: C_4  and  C_24
REMARK    4  A    between atoms: C_11  and  S_15
REMARK    5  A    between atoms: S_15  and  C_16
REMARK    6  A    between atoms: C_16  and  C_17
REMARK    7  A    between atoms: C_31  and  O_33
REMARK    8  A    between atoms: O_33  and  C_34
REMARK                            x       y       z     vdW  Elec       q    Type
REMARK                         _______ _______ _______ _____ _____    ______ ____
ROOT
ATOM      1  C   UNL     1       0.190   5.609  -0.736  0.00  0.00    +0.061 C 
ATOM      2  C   UNL     1       0.072   4.157  -0.349  0.00  0.00    +0.017 C 
ATOM      3  C   UNL     1      -1.137   3.572  -0.353  0.00  0.00    +0.065 C 
ATOM      4  C   UNL     1      -1.326   2.132   0.032  0.00  0.00    +0.096 C 
ATOM      5  C   UNL     1      -0.017   1.395   0.010  0.00  0.00    +0.069 A 
ATOM      6  C   UNL     1       0.002  -0.004   0.002  0.00  0.00    +0.258 A 
ATOM      7  O   UNL     1      -1.040  -0.640   0.007  0.00  0.00    -0.267 OA
ATOM      8  N   UNL     1       1.194  -0.637  -0.011  0.00  0.00    -0.302 N 
ATOM      9  H   UNL     1       1.232  -1.737  -0.018  0.00  0.00    +0.171 HD
ATOM     10  C   UNL     1       2.350   0.082  -0.015  0.00  0.00    +0.171 A 
ATOM     11  N   UNL     1       2.338   1.400  -0.008  0.00  0.00    -0.208 NA
ATOM     12  C   UNL     1       1.186   2.080   0.002  0.00  0.00    +0.135 A 
ATOM     13  N   UNL     1       1.196   3.463  -0.001  0.00  0.00    -0.302 N 
ATOM     14  H   UNL     1       2.112   4.004   0.278  0.00  0.00    +0.153 HD
ENDROOT
BRANCH   4  15
ATOM     15  C   UNL     1      -1.910   2.062   1.420  0.00  0.00    -0.035 A 
ATOM     16  C   UNL     1      -1.207   2.578   2.493  0.00  0.00    +0.005 A 
ATOM     17  C   UNL     1      -1.744   2.517   3.764  0.00  0.00    +0.015 A 
ATOM     18  C   UNL     1      -2.981   1.931   3.965  0.00  0.00    +0.018 A 
ATOM     19  C   UNL     1      -3.682   1.410   2.892  0.00  0.00    +0.015 A 
ATOM     20  C   UNL     1      -3.146   1.476   1.620  0.00  0.00    +0.005 A 
ATOM     21 BR   UNL     1      -3.714   1.843   5.706  0.00  0.00    -0.050 Br
ENDBRANCH   4  15
BRANCH   3  22
ATOM     22  C   UNL     1      -2.265   4.334  -0.731  0.00  0.00    +0.337 C 
ATOM     23  O   UNL     1      -2.134   5.502  -1.046  0.00  0.00    -0.245 OA
BRANCH  22  24
ATOM     24  O   UNL     1      -3.490   3.766  -0.742  0.00  0.00    -0.465 OA
ATOM     25  C   UNL     1      -4.586   4.595  -1.134  0.00  0.00    +0.280 C 
ENDBRANCH  22  24
ENDBRANCH   3  22
BRANCH  10  26
ATOM     26  S   UNL     1       3.895  -0.766  -0.029  0.00  0.00    -0.083 S 
BRANCH  26  27
ATOM     27  C   UNL     1       5.028   0.645  -0.029  0.00  0.00    +0.115 C 
BRANCH  27  28
ATOM     28  C   UNL     1       6.450   0.146  -0.041  0.00  0.00    -0.002 A 
ATOM     29  C   UNL     1       7.113  -0.083   1.150  0.00  0.00    +0.007 A 
ATOM     30  C   UNL     1       8.415  -0.546   1.139  0.00  0.00    +0.000 A 
ATOM     31  C   UNL     1       9.061  -0.768  -0.063  0.00  0.00    +0.003 A 
ATOM     32  C   UNL     1       8.403  -0.534  -1.255  0.00  0.00    +0.038 A 
ATOM     33  C   UNL     1       7.096  -0.076  -1.246  0.00  0.00    +0.127 A 
ATOM     34  F   UNL     1       6.452   0.154  -2.410  0.00  0.00    -0.205 F 
ENDBRANCH  27  28
ENDBRANCH  26  27
ENDBRANCH  10  26
TORSDOF 6
