REMARK  Name = ZINC09244538
REMARK  7 active torsions:
REMARK  status: ('A' for Active; 'I' for Inactive)
REMARK    1  A    between atoms: C_1  and  C_2
REMARK    2  A    between atoms: C_2  and  C_3
REMARK    3  A    between atoms: C_2  and  C_4
REMARK    4  A    between atoms: C_4  and  C_6
REMARK    5  A    between atoms: C_4  and  N_19
REMARK    6  A    between atoms: N_19  and  S_20
REMARK    7  A    between atoms: S_20  and  C_23
REMARK                            x       y       z     vdW  Elec       q    Type
REMARK                         _______ _______ _______ _____ _____    ______ ____
ROOT
ATOM      1  C   UNL     1       4.675  -0.044  -2.448  0.00  0.00    +0.165 C 
ENDROOT
BRANCH   1   2
ATOM      2  C   UNL     1       5.688  -0.408  -3.502  0.00  0.00    +0.237 C 
ATOM      3  O   UNL     1       6.290  -1.459  -3.427  0.00  0.00    -0.274 OA
ATOM      4  N   UNL     1       5.926   0.433  -4.528  0.00  0.00    -0.269 N 
ATOM      5  C   UNL     1       6.773   0.047  -5.562  0.00  0.00    +0.126 A 
ATOM      6  C   UNL     1       7.044  -1.315  -5.753  0.00  0.00    +0.044 A 
ATOM      7  C   UNL     1       7.872  -1.708  -6.761  0.00  0.00    +0.013 A 
ATOM      8  C   UNL     1       8.434  -0.714  -7.589  0.00  0.00    +0.001 A 
ATOM      9  C   UNL     1       9.294  -1.048  -8.647  0.00  0.00    +0.010 A 
ATOM     10  C   UNL     1       9.818  -0.062  -9.426  0.00  0.00    +0.001 A 
ATOM     11  C   UNL     1       9.511   1.276  -9.187  0.00  0.00    +0.002 A 
ATOM     12  C   UNL     1       8.681   1.635  -8.170  0.00  0.00    +0.028 A 
ATOM     13  C   UNL     1       8.121   0.645  -7.344  0.00  0.00    +0.073 A 
ATOM     14  N   UNL     1       7.297   0.970  -6.341  0.00  0.00    -0.232 NA
ATOM     15  H   UNL     1       5.506   1.307  -4.545  0.00  0.00    +0.156 HD
ENDBRANCH   1   2
BRANCH   1  17
ATOM     16  C   UNL     1       3.151  -1.908  -3.115  0.00  0.00    +0.009 C 
ATOM     17  C   UNL     1       3.271  -0.392  -2.948  0.00  0.00    +0.010 C 
ATOM     18  C   UNL     1       2.233   0.093  -1.935  0.00  0.00    +0.009 C 
ENDBRANCH   1  17
BRANCH   1  19
ATOM     19  N   UNL     1       4.955  -0.794  -1.221  0.00  0.00    -0.178 NA
ATOM     20  H   UNL     1       4.621  -1.698  -1.118  0.00  0.00    +0.149 HD
BRANCH  19  21
ATOM     21  S   UNL     1       5.844  -0.097  -0.010  0.00  0.00    +0.059 S 
ATOM     22  O   UNL     1       7.012   0.436  -0.618  0.00  0.00    -0.153 OA
ATOM     23  O   UNL     1       5.900  -1.043   1.049  0.00  0.00    -0.153 OA
BRANCH  21  24
ATOM     24  C   UNL     1       4.918   1.277   0.591  0.00  0.00    +0.109 A 
ATOM     25  C   UNL     1       3.944   1.085   1.553  0.00  0.00    +0.032 A 
ATOM     26  C   UNL     1       3.215   2.159   2.027  0.00  0.00    +0.051 A 
ATOM     27  C   UNL     1       3.459   3.434   1.537  0.00  0.00    +0.162 A 
ATOM     28  C   UNL     1       4.439   3.627   0.571  0.00  0.00    +0.164 A 
ATOM     29  C   UNL     1       5.166   2.545   0.100  0.00  0.00    +0.078 A 
ATOM     30  O   UNL     1       4.700   4.871   0.083  0.00  0.00    -0.485 OA
ATOM     31  C   UNL     1       3.701   5.872   0.304  0.00  0.00    +0.270 C 
ATOM     32  C   UNL     1       3.256   5.792   1.770  0.00  0.00    +0.270 C 
ATOM     33  O   UNL     1       2.727   4.481   2.006  0.00  0.00    -0.485 OA
ENDBRANCH  21  24
ENDBRANCH  19  21
ENDBRANCH   1  19
TORSDOF 5
