REMARK  Name = ZINC20502723
REMARK  6 active torsions:
REMARK  status: ('A' for Active; 'I' for Inactive)
REMARK    1  A    between atoms: C_1  and  C_2
REMARK    2  A    between atoms: C_2  and  C_28
REMARK    3  A    between atoms: N_16  and  C_17
REMARK    4  A    between atoms: C_17  and  C_18
REMARK    5  A    between atoms: C_18  and  C_19
REMARK    6  A    between atoms: C_19  and  N_20
REMARK                            x       y       z     vdW  Elec       q    Type
REMARK                         _______ _______ _______ _____ _____    ______ ____
ROOT
ATOM      1  C   UNL     1      -2.709   1.610   2.520  0.00  0.00    +0.041 C 
ATOM      2  C   UNL     1      -2.112   1.333   1.139  0.00  0.00    +0.068 C 
ATOM      3  C   UNL     1      -2.764   2.260   0.108  0.00  0.00    +0.071 C 
ATOM      4  C   UNL     1      -1.992   2.128  -1.202  0.00  0.00    -0.019 A 
ATOM      5  C   UNL     1      -0.751   1.589  -1.193  0.00  0.00    +0.021 A 
ATOM      6  S   UNL     1      -0.227   1.621  -2.883  0.00  0.00    -0.071 S 
ATOM      7  C   UNL     1      -1.676   2.358  -3.597  0.00  0.00    +0.116 A 
ATOM      8  C   UNL     1      -2.521   2.555  -2.492  0.00  0.00    +0.056 A 
ATOM      9  C   UNL     1      -3.827   3.168  -2.804  0.00  0.00    +0.169 A 
ATOM     10  N   UNL     1      -4.868   3.507  -2.067  0.00  0.00    -0.214 NA
ATOM     11  C   UNL     1      -5.809   4.033  -2.846  0.00  0.00    +0.246 A 
ATOM     12  N   UNL     1      -5.396   4.043  -4.089  0.00  0.00    -0.151 NA
ATOM     13  N   UNL     1      -4.108   3.488  -4.101  0.00  0.00    -0.181 N 
ATOM     14  C   UNL     1      -3.200   3.246  -5.090  0.00  0.00    +0.219 A 
ATOM     15  N   UNL     1      -2.034   2.701  -4.829  0.00  0.00    -0.207 NA
ATOM     16  N   UNL     1      -3.512   3.579  -6.389  0.00  0.00    -0.313 N 
ATOM     17  C   UNL     1      -0.013   1.086   0.008  0.00  0.00    +0.203 C 
ATOM     18  O   UNL     1      -0.699   1.556   1.179  0.00  0.00    -0.368 OA
ATOM     19  C   UNL     1      -2.382  -0.123   0.753  0.00  0.00    +0.041 C 
ATOM     20  H   UNL     1      -4.486   4.036  -6.620  0.00  0.00    +0.149 HD
ENDROOT
BRANCH  16  21
ATOM     21  C   UNL     1      -2.548   3.326  -7.463  0.00  0.00    +0.105 C 
BRANCH  21  22
ATOM     22  C   UNL     1      -3.139   3.786  -8.797  0.00  0.00    +0.034 C 
BRANCH  22  23
ATOM     23  C   UNL     1      -2.132   3.522  -9.918  0.00  0.00    +0.086 C 
BRANCH  23  24
ATOM     24  N   UNL     1      -2.699   3.963 -11.200  0.00  0.00    -0.298 NA
ATOM     25  C   UNL     1      -3.856   3.138 -11.576  0.00  0.00    +0.112 C 
ATOM     26  C   UNL     1      -4.451   3.668 -12.883  0.00  0.00    +0.175 C 
ATOM     27  O   UNL     1      -3.438   3.675 -13.894  0.00  0.00    -0.377 OA
ATOM     28  C   UNL     1      -2.297   4.469 -13.560  0.00  0.00    +0.175 C 
ATOM     29  C   UNL     1      -1.681   3.947 -12.260  0.00  0.00    +0.112 C 
ENDBRANCH  23  24
ENDBRANCH  22  23
ENDBRANCH  21  22
ENDBRANCH  16  21
TORSDOF 4
