REMARK  Name = ZINC05082330
REMARK  7 active torsions:
REMARK  status: ('A' for Active; 'I' for Inactive)
REMARK    1  A    between atoms: C_1  and  C_2
REMARK    2  A    between atoms: C_3  and  C_11
REMARK    3  A    between atoms: C_7  and  N_8
REMARK    4  A    between atoms: N_13  and  C_14
REMARK    5  A    between atoms: C_15  and  N_28
REMARK    6  A    between atoms: C_17  and  S_22
REMARK    7  A    between atoms: S_22  and  C_23
REMARK                            x       y       z     vdW  Elec       q    Type
REMARK                         _______ _______ _______ _____ _____    ______ ____
ROOT
ATOM      1  C   UNL     1       0.090   4.355   0.687  0.00  0.00    +0.139 A 
ATOM      2  C   UNL     1      -1.071   3.591   0.734  0.00  0.00    +0.146 A 
ATOM      3  N   UNL     1      -0.987   2.267   0.910  0.00  0.00    -0.207 NA
ATOM      4  C   UNL     1       0.178   1.671   1.052  0.00  0.00    +0.171 A 
ATOM      5  N   UNL     1       1.345   2.372   1.015  0.00  0.00    -0.300 N 
ATOM      6  H   UNL     1       2.217   1.895   1.121  0.00  0.00    +0.171 HD
ATOM      7  C   UNL     1       1.327   3.709   0.834  0.00  0.00    +0.275 A 
ATOM      8  O   UNL     1       2.368   4.346   0.798  0.00  0.00    -0.266 OA
ENDROOT
BRANCH   1  11
ATOM      9  C   UNL     1       0.572   6.579   1.407  0.00  0.00    +0.249 C 
ATOM     10  O   UNL     1       1.226   6.127   2.327  0.00  0.00    -0.270 OA
ATOM     11  N   UNL     1       0.025   5.749   0.496  0.00  0.00    -0.274 N 
ATOM     12  H   UNL     1      -0.412   6.111  -0.290  0.00  0.00    +0.155 HD
BRANCH   9  15
ATOM     13  C   UNL     1       1.502   8.326   3.517  0.00  0.00    +0.047 C 
ATOM     14  C   UNL     1       0.821   8.892   2.298  0.00  0.00    -0.008 A 
ATOM     15  C   UNL     1       0.377   8.040   1.286  0.00  0.00    +0.042 A 
ATOM     16  C   UNL     1      -0.258   8.571   0.162  0.00  0.00    +0.013 A 
ATOM     17  C   UNL     1      -0.437   9.935   0.056  0.00  0.00    +0.003 A 
ATOM     18  C   UNL     1       0.011  10.775   1.060  0.00  0.00    +0.033 A 
ATOM     19  C   UNL     1       0.641  10.254   2.176  0.00  0.00    +0.130 A 
BRANCH  19  20
ATOM     20  N   UNL     1       1.117  11.161   3.245  0.00  0.00    +0.057 N 
ATOM     21  O   UNL     1       0.860  12.350   3.194  0.00  0.00    -0.126 OA
ATOM     22  O   UNL     1       1.766  10.717   4.175  0.00  0.00    -0.126 OA
ENDBRANCH  19  20
ENDBRANCH   9  15
ENDBRANCH   1  11
BRANCH   2  23
ATOM     23  N   UNL     1      -2.307   4.195   0.592  0.00  0.00    -0.341 N 
ATOM     24  H   UNL     1      -2.366   5.154   0.460  0.00  0.00    +0.144 HD
ATOM     25  H   UNL     1      -3.116   3.660   0.625  0.00  0.00    +0.144 HD
ENDBRANCH   2  23
BRANCH   4  26
ATOM     26  S   UNL     1       0.229  -0.075   1.290  0.00  0.00    -0.084 S 
BRANCH  26  27
ATOM     27  C   UNL     1      -1.542  -0.449   1.254  0.00  0.00    +0.054 C 
ATOM     28  C   UNL     1      -2.237   0.167   2.486  0.00  0.00    +0.014 C 
ATOM     29  C   UNL     1      -3.306  -0.883   2.882  0.00  0.00    +0.001 C 
ATOM     30  C   UNL     1      -2.581  -2.226   2.619  0.00  0.00    +0.001 C 
ATOM     31  C   UNL     1      -1.761  -1.969   1.338  0.00  0.00    +0.014 C 
ENDBRANCH  26  27
ENDBRANCH   4  26
TORSDOF 6
