REMARK  Name = ZINC37474916
REMARK  9 active torsions:
REMARK  status: ('A' for Active; 'I' for Inactive)
REMARK    1  A    between atoms: C_1  and  C_2
REMARK    2  A    between atoms: C_3  and  C_36
REMARK    3  A    between atoms: N_4  and  C_29
REMARK    4  A    between atoms: C_5  and  N_9
REMARK    5  A    between atoms: C_6  and  C_7
REMARK    6  A    between atoms: C_10  and  C_12
REMARK    7  A    between atoms: C_12  and  N_13
REMARK    8  A    between atoms: C_18  and  C_20
REMARK    9  A    between atoms: C_29  and  C_30
REMARK                            x       y       z     vdW  Elec       q    Type
REMARK                         _______ _______ _______ _____ _____    ______ ____
ROOT
ATOM      1  N   UNL     1      -0.366  -3.652   2.209  0.00  0.00    -0.272 N 
ATOM      2  C   UNL     1      -0.465  -4.961   1.904  0.00  0.00    +0.202 C 
ATOM      3  O   UNL     1      -0.302  -5.331   0.760  0.00  0.00    -0.278 OA
ATOM      4  H   UNL     1      -0.415  -3.365   3.135  0.00  0.00    +0.156 HD
ENDROOT
BRANCH   1   9
ATOM      5  C   UNL     1      -0.483  -1.239  -2.229  0.00  0.00    +0.047 C 
ATOM      6  C   UNL     1      -0.229  -1.600  -0.788  0.00  0.00    -0.011 A 
ATOM      7  C   UNL     1       0.426  -0.859   0.121  0.00  0.00    +0.022 A 
ATOM      8  N   UNL     1       0.449  -1.526   1.317  0.00  0.00    -0.329 N 
ATOM      9  C   UNL     1      -0.195  -2.716   1.201  0.00  0.00    +0.123 A 
ATOM     10  C   UNL     1      -0.654  -2.827  -0.104  0.00  0.00    +0.095 A 
ATOM     11  C   UNL     1       1.040   0.493  -0.136  0.00  0.00    +0.064 C 
BRANCH  10  12
ATOM     12  C   UNL     1      -1.391  -3.918  -0.668  0.00  0.00    +0.103 C 
ATOM     13  N   UNL     1      -1.975  -4.783  -1.116  0.00  0.00    -0.191 NA
ENDBRANCH  10  12
BRANCH   8  14
ATOM     14  C   UNL     1       1.077  -1.027   2.543  0.00  0.00    +0.154 C 
BRANCH  14  15
ATOM     15  C   UNL     1       0.097  -0.114   3.282  0.00  0.00    +0.138 C 
ATOM     16  C   UNL     1       0.784   0.493   4.525  0.00  0.00    +0.035 C 
ATOM     17  C   UNL     1      -0.356   0.460   5.580  0.00  0.00    +0.031 C 
ATOM     18  C   UNL     1      -1.096  -0.838   5.172  0.00  0.00    +0.160 C 
ATOM     19  O   UNL     1      -1.029  -0.874   3.736  0.00  0.00    -0.375 OA
ENDBRANCH  14  15
ENDBRANCH   8  14
ENDBRANCH   1   9
BRANCH   2  20
ATOM     20  C   UNL     1      -0.779  -5.965   2.983  0.00  0.00    +0.020 C 
BRANCH  20  21
ATOM     21  N   UNL     1      -0.977  -7.289   2.378  0.00  0.00    +0.391 N 
ATOM     22  C   UNL     1      -2.181  -7.267   1.539  0.00  0.00    -0.077 C 
ATOM     23  C   UNL     1      -2.347  -8.619   0.843  0.00  0.00    -0.019 C 
ATOM     24  C   UNL     1      -2.479  -9.719   1.900  0.00  0.00    -0.003 C 
ATOM     25  C   UNL     1      -1.252  -9.685   2.815  0.00  0.00    -0.009 C 
ATOM     26  C   UNL     1      -1.127  -8.293   3.438  0.00  0.00    -0.011 C 
ATOM     27  H   UNL     1      -0.177  -7.520   1.808  0.00  0.00    -0.080 HD
BRANCH  26  28
ATOM     28  C   UNL     1       0.080  -8.254   4.340  0.00  0.00    +0.066 A 
ATOM     29  N   UNL     1       1.333  -8.187   3.994  0.00  0.00    -0.246 NA
ATOM     30  C   UNL     1       2.329  -8.158   4.903  0.00  0.00    +0.078 A 
ATOM     31  C   UNL     1       3.725  -8.087   4.714  0.00  0.00    +0.029 A 
ATOM     32  C   UNL     1       4.568  -8.069   5.783  0.00  0.00    +0.002 A 
ATOM     33  C   UNL     1       4.092  -8.119   7.086  0.00  0.00    +0.001 A 
ATOM     34  C   UNL     1       2.730  -8.188   7.311  0.00  0.00    +0.017 A 
ATOM     35  C   UNL     1       1.871  -8.206   6.239  0.00  0.00    +0.039 A 
ATOM     36  S   UNL     1       0.112  -8.280   6.023  0.00  0.00    -0.074 S 
ENDBRANCH  26  28
ENDBRANCH  20  21
ENDBRANCH   2  20
TORSDOF 7
