REMARK  Name = ZINC39659616
REMARK  6 active torsions:
REMARK  status: ('A' for Active; 'I' for Inactive)
REMARK    1  A    between atoms: C_1  and  C_2
REMARK    2  A    between atoms: C_2  and  C_32
REMARK    3  A    between atoms: C_5  and  C_8
REMARK    4  A    between atoms: C_8  and  N_9
REMARK    5  A    between atoms: C_10  and  C_12
REMARK    6  A    between atoms: C_23  and  C_25
REMARK                            x       y       z     vdW  Elec       q    Type
REMARK                         _______ _______ _______ _____ _____    ______ ____
ROOT
ATOM      1  C   UNL     1       4.005  -1.896   4.302  0.00  0.00    +0.100 C 
ATOM      2  C   UNL     1       3.631  -3.350   4.668  0.00  0.00    +0.121 C 
ATOM      3  N   UNL     1       4.931  -4.025   4.894  0.00  0.00    -0.300 N 
ATOM      4  C   UNL     1       5.754  -3.015   5.602  0.00  0.00    +0.115 C 
ATOM      5  C   UNL     1       5.397  -1.679   4.920  0.00  0.00    -0.004 C 
ATOM      6  C   UNL     1       5.348  -0.556   5.951  0.00  0.00    -0.010 C 
ATOM      7  C   UNL     1       6.754  -0.319   6.509  0.00  0.00    -0.082 C 
ATOM      8  N   UNL     1       7.664   0.036   5.413  0.00  0.00    +0.379 N 
ATOM      9  C   UNL     1       7.777  -1.086   4.473  0.00  0.00    -0.082 C 
ATOM     10  C   UNL     1       6.414  -1.356   3.830  0.00  0.00    -0.010 C 
ATOM     11  C   UNL     1       5.285  -5.276   4.537  0.00  0.00    +0.219 C 
ATOM     12  O   UNL     1       4.522  -5.961   3.891  0.00  0.00    -0.275 OA
ATOM     13  H   UNL     1       7.304   0.844   4.927  0.00  0.00    -0.086 HD
ATOM     14  H   UNL     1       8.575   0.251   5.790  0.00  0.00    -0.086 HD
ENDROOT
BRANCH  11  15
ATOM     15  C   UNL     1       6.630  -5.822   4.942  0.00  0.00    +0.079 C 
ATOM     16  C   UNL     1       7.060  -6.917   3.957  0.00  0.00    +0.017 C 
ATOM     17  C   UNL     1       8.497  -7.327   4.285  0.00  0.00    +0.027 C 
ATOM     18  C   UNL     1       8.633  -7.606   5.753  0.00  0.00    -0.031 C 
ATOM     19  C   UNL     1       7.782  -7.215   6.647  0.00  0.00    -0.030 C 
ATOM     20  C   UNL     1       6.537  -6.434   6.342  0.00  0.00    +0.039 C 
ENDBRANCH  11  15
BRANCH   1  22
ATOM     21  N   UNL     1       3.794  -0.533   2.249  0.00  0.00    -0.312 N 
ATOM     22  C   UNL     1       4.064  -1.730   2.806  0.00  0.00    +0.218 C 
ATOM     23  O   UNL     1       4.353  -2.675   2.102  0.00  0.00    -0.275 OA
ATOM     24  H   UNL     1       3.563   0.222   2.812  0.00  0.00    +0.149 HD
BRANCH  21  25
ATOM     25  C   UNL     1       3.851  -0.372   0.794  0.00  0.00    +0.138 C 
BRANCH  25  30
ATOM     26  C   UNL     1       6.119   2.839  -0.841  0.00  0.00    +0.074 C 
ATOM     27  C   UNL     1       4.712   2.932  -0.245  0.00  0.00    +0.165 C 
ATOM     28  O   UNL     1       3.737   2.653  -1.263  0.00  0.00    -0.347 OA
ATOM     29  C   UNL     1       3.434   1.245  -1.111  0.00  0.00    +0.196 C 
ATOM     30  C   UNL     1       3.505   1.073   0.427  0.00  0.00    +0.164 C 
ATOM     31  O   UNL     1       4.571   1.968   0.807  0.00  0.00    -0.342 OA
ATOM     32  C   UNL     1       4.482   4.338   0.312  0.00  0.00    +0.074 C 
ENDBRANCH  25  30
ENDBRANCH  21  25
ENDBRANCH   1  22
TORSDOF 4
