REMARK  Name = ZINC12433281
REMARK  12 active torsions:
REMARK  status: ('A' for Active; 'I' for Inactive)
REMARK    1  A    between atoms: C_10  and  C_11
REMARK    2  A    between atoms: C_10  and  N_61
REMARK    3  A    between atoms: C_11  and  C_13
REMARK    4  A    between atoms: C_11  and  O_30
REMARK    5  A    between atoms: C_13  and  O_14
REMARK    6  A    between atoms: O_14  and  C_15
REMARK    7  A    between atoms: C_19  and  C_21
REMARK    8  A    between atoms: C_21  and  N_63
REMARK    9  A    between atoms: C_22  and  C_23
REMARK   10  A    between atoms: C_22  and  N_63
REMARK   11  A    between atoms: C_23  and  C_24
REMARK   12  A    between atoms: C_24  and  N_25
REMARK                            x       y       z     vdW  Elec       q    Type
REMARK                         _______ _______ _______ _____ _____    ______ ____
ROOT
ATOM      1  C   UNL     1      -0.201   1.401  -7.249  0.00  0.00    +0.121 A 
ATOM      2  C   UNL     1       1.142   1.063  -7.329  0.00  0.00    +0.045 A 
ATOM      3  C   UNL     1       1.729   0.857  -8.563  0.00  0.00    +0.004 A 
ATOM      4  C   UNL     1       0.978   0.987  -9.717  0.00  0.00    +0.002 A 
ATOM      5  C   UNL     1      -0.361   1.323  -9.639  0.00  0.00    -0.061 A 
ATOM      6  C   UNL     1      -0.953   1.525  -8.408  0.00  0.00    +0.047 A 
ENDROOT
BRANCH   1   7
ATOM      7  O   UNL     1      -0.780   1.605  -6.037  0.00  0.00    -0.489 OA
BRANCH   7   8
ATOM      8  C   UNL     1       0.053   1.454  -4.886  0.00  0.00    +0.258 C 
BRANCH   8   9
ATOM      9  C   UNL     1      -0.768   1.720  -3.623  0.00  0.00    +0.135 C 
BRANCH   9  10
ATOM     10  O   UNL     1      -1.190   3.085  -3.608  0.00  0.00    -0.390 OA
ATOM     11  H   UNL     1      -0.462   3.722  -3.614  0.00  0.00    +0.210 HD
ENDBRANCH   9  10
BRANCH   9  12
ATOM     12  C   UNL     1       0.090   1.438  -2.388  0.00  0.00    -0.043 C 
BRANCH  12  22
ATOM     13  C   UNL     1      -4.328   1.027   2.263  0.00  0.00    +0.000 A 
ATOM     14  C   UNL     1      -4.920   0.701   1.057  0.00  0.00    +0.000 A 
ATOM     15  C   UNL     1      -4.157   0.656  -0.093  0.00  0.00    +0.002 A 
ATOM     16  C   UNL     1      -2.799   0.937  -0.046  0.00  0.00    -0.061 A 
ATOM     17  C   UNL     1      -2.210   1.264   1.157  0.00  0.00    -0.048 A 
ATOM     18  C   UNL     1      -2.977   1.307   2.312  0.00  0.00    +0.004 A 
ATOM     19  C   UNL     1      -0.736   1.583   1.260  0.00  0.00    +0.017 C 
ATOM     20  C   UNL     1      -0.013   1.086   0.008  0.00  0.00    -0.074 C 
ATOM     21  C   UNL     1      -2.009   0.871  -1.326  0.00  0.00    -0.043 C 
ATOM     22  N   UNL     1      -0.738   1.600  -1.173  0.00  0.00    +0.384 N 
ATOM     23  H   UNL     1      -0.938   2.597  -1.035  0.00  0.00    -0.081 HD
ENDBRANCH  12  22
ENDBRANCH   9  12
ENDBRANCH   8   9
ENDBRANCH   7   8
ENDBRANCH   1   7
BRANCH   5  24
ATOM     24  C   UNL     1      -1.176   1.463 -10.899  0.00  0.00    -0.047 C 
BRANCH  24  25
ATOM     25  N   UNL     1      -1.773   0.156 -11.236  0.00  0.00    +0.382 N 
ATOM     26  H   UNL     1      -2.375  -0.150 -10.463  0.00  0.00    -0.085 HD
ATOM     27  H   UNL     1      -1.024  -0.531 -11.380  0.00  0.00    -0.085 HD
BRANCH  25  28
ATOM     28  C   UNL     1      -2.578   0.264 -12.467  0.00  0.00    -0.080 C 
BRANCH  28  29
ATOM     29  C   UNL     1      -3.183  -1.104 -12.791  0.00  0.00    +0.003 C 
BRANCH  29  30
ATOM     30  C   UNL     1      -4.021  -1.001 -14.068  0.00  0.00    +0.121 C 
BRANCH  30  31
ATOM     31  N   UNL     1      -4.600  -2.311 -14.378  0.00  0.00    -0.337 N 
ATOM     32  C   UNL     1      -4.036  -3.285 -15.157  0.00  0.00    +0.106 A 
ATOM     33  C   UNL     1      -4.899  -4.318 -15.174  0.00  0.00    +0.130 A 
ATOM     34  N   UNL     1      -5.965  -3.981 -14.434  0.00  0.00    -0.244 NA
ATOM     35  C   UNL     1      -5.793  -2.780 -13.954  0.00  0.00    +0.199 A 
ENDBRANCH  30  31
ENDBRANCH  29  30
ENDBRANCH  28  29
ENDBRANCH  25  28
ENDBRANCH  24  25
ENDBRANCH   5  24
TORSDOF 12
