REMARK  Name = ZINC39359321
REMARK  13 active torsions:
REMARK  status: ('A' for Active; 'I' for Inactive)
REMARK    1  A    between atoms: C_1  and  O_2
REMARK    2  A    between atoms: O_2  and  C_3
REMARK    3  A    between atoms: C_6  and  C_11
REMARK    4  A    between atoms: C_8  and  O_9
REMARK    5  A    between atoms: O_9  and  C_10
REMARK    6  A    between atoms: C_16  and  C_26
REMARK    7  A    between atoms: C_19  and  O_25
REMARK    8  A    between atoms: C_28  and  O_36
REMARK    9  A    between atoms: C_29  and  O_34
REMARK   10  A    between atoms: C_31  and  O_32
REMARK   11  A    between atoms: O_32  and  C_33
REMARK   12  A    between atoms: O_34  and  C_35
REMARK   13  A    between atoms: O_36  and  C_37
REMARK                            x       y       z     vdW  Elec       q    Type
REMARK                         _______ _______ _______ _____ _____    ______ ____
ROOT
ATOM      1  C   UNL     1       2.507  -2.501  -4.386  0.00  0.00    +0.032 C 
ATOM      2  C   UNL     1       1.816  -2.078  -5.682  0.00  0.00    +0.059 C 
ATOM      3  C   UNL     1       2.504  -2.728  -6.866  0.00  0.00    +0.014 C 
ATOM      4  C   UNL     1       3.831  -2.970  -6.827  0.00  0.00    +0.024 C 
ATOM      5  C   UNL     1       4.578  -3.591  -7.998  0.00  0.00    +0.092 C 
ATOM      6  C   UNL     1       3.544  -4.076  -8.969  0.00  0.00    +0.049 C 
ATOM      7  C   UNL     1       3.412  -5.150  -9.716  0.00  0.00    +0.235 C 
ATOM      8  N   UNL     1       2.195  -5.153 -10.326  0.00  0.00    -0.114 NA
ATOM      9  N   UNL     1       1.505  -4.151 -10.095  0.00  0.00    -0.157 NA
ATOM     10  C   UNL     1       2.287  -3.246  -9.251  0.00  0.00    +0.245 C 
ATOM     11  N   UNL     1       1.693  -3.043  -7.928  0.00  0.00    -0.321 N 
ATOM     12  C   UNL     1       4.597  -2.664  -5.689  0.00  0.00    +0.162 C 
ATOM     13  O   UNL     1       5.791  -2.889  -5.700  0.00  0.00    -0.292 OA
ATOM     14  C   UNL     1       3.975  -2.065  -4.459  0.00  0.00    +0.088 C 
ATOM     15  H   UNL     1       0.735  -3.132  -7.803  0.00  0.00    +0.148 HD
ENDROOT
BRANCH   1  19
ATOM     16  C   UNL     1       0.606  -0.608  -1.056  0.00  0.00    +0.161 A 
ATOM     17  C   UNL     1       1.173   0.159  -2.062  0.00  0.00    +0.049 A 
ATOM     18  C   UNL     1       1.787  -0.456  -3.137  0.00  0.00    +0.008 A 
ATOM     19  C   UNL     1       1.837  -1.836  -3.212  0.00  0.00    -0.040 A 
ATOM     20  C   UNL     1       1.273  -2.606  -2.212  0.00  0.00    +0.053 A 
ATOM     21  C   UNL     1       0.662  -1.996  -1.129  0.00  0.00    +0.162 A 
BRANCH  16  23
ATOM     22  C   UNL     1      -0.017   1.425   0.010  0.00  0.00    +0.277 C 
ATOM     23  O   UNL     1       0.002  -0.004   0.002  0.00  0.00    -0.491 OA
ENDBRANCH  16  23
BRANCH  21  24
ATOM     24  O   UNL     1       0.112  -2.753  -0.142  0.00  0.00    -0.491 OA
ATOM     25  C   UNL     1       0.206  -4.171  -0.283  0.00  0.00    +0.277 C 
ENDBRANCH  21  24
ENDBRANCH   1  19
BRANCH   5  26
ATOM     26  C   UNL     1       5.456  -2.556  -8.654  0.00  0.00    +0.010 A 
ATOM     27  C   UNL     1       4.894  -1.411  -9.188  0.00  0.00    +0.057 A 
ATOM     28  C   UNL     1       5.700  -0.459  -9.790  0.00  0.00    +0.162 A 
ATOM     29  C   UNL     1       7.076  -0.656  -9.859  0.00  0.00    +0.165 A 
ATOM     30  C   UNL     1       7.637  -1.803  -9.324  0.00  0.00    +0.095 A 
ATOM     31  C   UNL     1       6.828  -2.752  -8.716  0.00  0.00    +0.128 A 
BRANCH  31  32
ATOM     32  O   UNL     1       7.379  -3.876  -8.186  0.00  0.00    -0.495 OA
ATOM     33  C   UNL     1       8.798  -4.012  -8.285  0.00  0.00    +0.277 C 
ENDBRANCH  31  32
BRANCH  29  34
ATOM     34  O   UNL     1       7.868   0.278 -10.451  0.00  0.00    -0.491 OA
ATOM     35  C   UNL     1       9.271   0.010 -10.485  0.00  0.00    +0.277 C 
ENDBRANCH  29  34
BRANCH  28  36
ATOM     36  O   UNL     1       5.146   0.667 -10.316  0.00  0.00    -0.491 OA
ATOM     37  C   UNL     1       3.727   0.802 -10.210  0.00  0.00    +0.277 C 
ENDBRANCH  28  36
ENDBRANCH   5  26
BRANCH   7  38
ATOM     38  O   UNL     1       4.355  -6.118  -9.858  0.00  0.00    -0.491 OA
ATOM     39  H   UNL     1       4.093  -6.840 -10.446  0.00  0.00    +0.294 HD
ENDBRANCH   7  38
TORSDOF 8
