REMARK  Name = ZINC39939486
REMARK  12 active torsions:
REMARK  status: ('A' for Active; 'I' for Inactive)
REMARK    1  A    between atoms: C_1  and  C_2
REMARK    2  A    between atoms: C_2  and  C_3
REMARK    3  A    between atoms: C_2  and  C_4
REMARK    4  A    between atoms: C_4  and  N_5
REMARK    5  A    between atoms: C_6  and  C_31
REMARK    6  A    between atoms: C_10  and  S_11
REMARK    7  A    between atoms: S_11  and  C_12
REMARK    8  A    between atoms: C_12  and  C_13
REMARK    9  A    between atoms: C_13  and  C_15
REMARK   10  A    between atoms: C_23  and  C_25
REMARK   11  A    between atoms: C_31  and  C_32
REMARK   12  A    between atoms: C_32  and  C_33
REMARK                            x       y       z     vdW  Elec       q    Type
REMARK                         _______ _______ _______ _____ _____    ______ ____
ROOT
ATOM      1  C   UNL     1       4.692  -2.819   0.607  0.00  0.00    +0.156 C 
ENDROOT
BRANCH   1   2
ATOM      2  C   UNL     1       4.686  -4.168   1.279  0.00  0.00    +0.172 C 
ATOM      3  O   UNL     1       3.645  -4.781   1.400  0.00  0.00    -0.291 OA
BRANCH   2   4
ATOM      4  C   UNL     1       5.890  -4.718   1.767  0.00  0.00    +0.031 C 
ATOM      5  C   UNL     1       7.150  -4.152   1.715  0.00  0.00    +0.007 A 
ATOM      6  C   UNL     1       7.634  -2.927   1.197  0.00  0.00    +0.010 A 
ATOM      7  C   UNL     1       8.948  -2.623   1.283  0.00  0.00    +0.001 A 
ATOM      8  C   UNL     1       9.884  -3.484   1.877  0.00  0.00    +0.002 A 
ATOM      9  C   UNL     1       9.527  -4.677   2.401  0.00  0.00    +0.026 A 
ATOM     10  C   UNL     1       8.113  -5.086   2.349  0.00  0.00    +0.044 A 
ATOM     11  N   UNL     1       7.502  -6.157   2.767  0.00  0.00    -0.373 N 
ATOM     12  C   UNL     1       6.071  -6.049   2.463  0.00  0.00    +0.144 C 
ATOM     13  H   UNL     1       7.926  -6.907   3.214  0.00  0.00    +0.161 HD
BRANCH  12  14
ATOM     14  C   UNL     1       5.264  -6.084   3.735  0.00  0.00    -0.021 A 
ATOM     15  C   UNL     1       5.743  -5.465   4.875  0.00  0.00    +0.006 A 
ATOM     16  C   UNL     1       5.002  -5.496   6.042  0.00  0.00    +0.000 A 
ATOM     17  C   UNL     1       3.782  -6.146   6.069  0.00  0.00    +0.000 A 
ATOM     18  C   UNL     1       3.303  -6.765   4.929  0.00  0.00    +0.000 A 
ATOM     19  C   UNL     1       4.042  -6.729   3.761  0.00  0.00    +0.006 A 
ENDBRANCH  12  14
ENDBRANCH   2   4
ENDBRANCH   1   2
BRANCH   1  20
ATOM     20  S   UNL     1       3.005  -2.391   0.095  0.00  0.00    -0.081 S 
BRANCH  20  25
ATOM     21  N   UNL     1       2.125  -0.091  -1.209  0.00  0.00    -0.289 N 
ATOM     22  C   UNL     1       2.697   1.164  -1.726  0.00  0.00    +0.177 C 
ATOM     23  N   UNL     1       4.133   1.052  -1.418  0.00  0.00    -0.246 N 
ATOM     24  N   UNL     1       4.300  -0.184  -0.781  0.00  0.00    -0.163 NA
ATOM     25  C   UNL     1       3.178  -0.810  -0.664  0.00  0.00    +0.175 C 
ATOM     26  H   UNL     1       4.824   1.703  -1.617  0.00  0.00    +0.170 HD
BRANCH  21  27
ATOM     27  C   UNL     1       0.718  -0.497  -1.257  0.00  0.00    +0.112 C 
BRANCH  27  29
ATOM     28  C   UNL     1      -0.019   1.526   0.010  0.00  0.00    +0.009 C 
ATOM     29  C   UNL     1       0.002  -0.004   0.002  0.00  0.00    +0.000 C 
ATOM     30  C   UNL     1      -1.433  -0.534   0.013  0.00  0.00    +0.009 C 
ENDBRANCH  27  29
ENDBRANCH  21  27
BRANCH  22  31
ATOM     31  C   UNL     1       2.475   1.274  -3.236  0.00  0.00    +0.053 C 
BRANCH  31  32
ATOM     32  C   UNL     1       3.077   2.584  -3.746  0.00  0.00    +0.099 C 
BRANCH  32  33
ATOM     33  C   UNL     1       2.859   2.692  -5.233  0.00  0.00    +0.211 C 
ATOM     34  O   UNL     1       2.278   1.808  -5.827  0.00  0.00    -0.276 OA
ATOM     35  N   UNL     1       3.308   3.771  -5.904  0.00  0.00    -0.329 N 
ATOM     36  H   UNL     1       3.772   4.478  -5.429  0.00  0.00    +0.145 HD
ATOM     37  H   UNL     1       3.168   3.840  -6.861  0.00  0.00    +0.145 HD
ENDBRANCH  32  33
ENDBRANCH  31  32
ENDBRANCH  22  31
ENDBRANCH  20  25
ENDBRANCH   1  20
TORSDOF 10
