REMARK  Name = ZINC40404791
REMARK  15 active torsions:
REMARK  status: ('A' for Active; 'I' for Inactive)
REMARK    1  A    between atoms: C_1  and  C_2
REMARK    2  A    between atoms: C_8  and  C_19
REMARK    3  A    between atoms: C_12  and  C_13
REMARK    4  A    between atoms: C_13  and  O_15
REMARK    5  A    between atoms: O_15  and  C_16
REMARK    6  A    between atoms: C_16  and  C_17
REMARK    7  A    between atoms: C_16  and  C_18
REMARK    8  A    between atoms: C_19  and  N_20
REMARK    9  A    between atoms: N_20  and  C_21
REMARK   10  A    between atoms: N_20  and  C_27
REMARK   11  A    between atoms: C_21  and  C_22
REMARK   12  A    between atoms: C_27  and  C_28
REMARK   13  A    between atoms: C_28  and  C_30
REMARK   14  A    between atoms: C_28  and  O_37
REMARK   15  A    between atoms: C_30  and  C_31
REMARK                            x       y       z     vdW  Elec       q    Type
REMARK                         _______ _______ _______ _____ _____    ______ ____
ROOT
ATOM      1  C   UNL     1       0.262  -3.535  -4.115  0.00  0.00    -0.003 C 
ENDROOT
BRANCH   1   9
ATOM      2  C   UNL     1       0.976   0.506   1.122  0.00  0.00    +0.046 C 
ATOM      3  C   UNL     1       0.844  -0.977   0.890  0.00  0.00    -0.015 A 
ATOM      4  C   UNL     1       0.706  -1.473  -0.408  0.00  0.00    +0.076 A 
ATOM      5  C   UNL     1       0.664  -0.736  -1.692  0.00  0.00    +0.260 A 
ATOM      6  O   UNL     1       0.756   0.478  -1.719  0.00  0.00    -0.267 OA
ATOM      7  N   UNL     1       0.522  -1.444  -2.829  0.00  0.00    -0.312 N 
ATOM      8  H   UNL     1       0.493  -0.977  -3.679  0.00  0.00    +0.170 HD
ATOM      9  C   UNL     1       0.419  -2.796  -2.811  0.00  0.00    +0.094 A 
ATOM     10  N   UNL     1       0.452  -3.476  -1.697  0.00  0.00    -0.229 NA
ATOM     11  C   UNL     1       0.589  -2.877  -0.521  0.00  0.00    +0.116 A 
ATOM     12  S   UNL     1       0.675  -3.431   1.164  0.00  0.00    -0.062 S 
ATOM     13  C   UNL     1       0.865  -1.839   1.948  0.00  0.00    +0.102 A 
BRANCH  13  14
ATOM     14  C   UNL     1       1.005  -1.533   3.374  0.00  0.00    +0.346 C 
ATOM     15  O   UNL     1       1.123  -0.379   3.739  0.00  0.00    -0.244 OA
BRANCH  14  16
ATOM     16  O   UNL     1       1.003  -2.532   4.281  0.00  0.00    -0.458 OA
BRANCH  16  17
ATOM     17  C   UNL     1       1.144  -2.161   5.654  0.00  0.00    +0.171 C 
ATOM     18  C   UNL     1       0.412  -3.177   6.534  0.00  0.00    +0.052 C 
ATOM     19  C   UNL     1       2.627  -2.138   6.026  0.00  0.00    +0.052 C 
ENDBRANCH  16  17
ENDBRANCH  14  16
ENDBRANCH  13  14
ENDBRANCH   1   9
BRANCH   1  20
ATOM     20  N   UNL     1       0.170  -4.978  -3.852  0.00  0.00    +0.391 N 
ATOM     21  H   UNL     1       0.953  -5.266  -3.284  0.00  0.00    -0.080 HD
BRANCH  20  22
ATOM     22  C   UNL     1      -1.083  -5.268  -3.143  0.00  0.00    -0.002 C 
BRANCH  22  23
ATOM     23  C   UNL     1      -1.130  -6.731  -2.784  0.00  0.00    +0.089 A 
ATOM     24  C   UNL     1      -0.581  -7.290  -1.691  0.00  0.00    +0.042 A 
ATOM     25  C   UNL     1      -0.864  -8.674  -1.754  0.00  0.00    +0.041 A 
ATOM     26  C   UNL     1      -1.569  -8.877  -2.881  0.00  0.00    +0.195 A 
ATOM     27  O   UNL     1      -1.732  -7.696  -3.498  0.00  0.00    -0.470 OA
ENDBRANCH  22  23
ENDBRANCH  20  22
BRANCH  20  28
ATOM     28  C   UNL     1       0.194  -5.710  -5.125  0.00  0.00    -0.046 C 
BRANCH  28  29
ATOM     29  C   UNL     1       1.576  -5.574  -5.766  0.00  0.00    +0.102 C 
BRANCH  29  30
ATOM     30  O   UNL     1       1.758  -4.234  -6.228  0.00  0.00    -0.393 OA
ATOM     31  H   UNL     1       1.109  -3.954  -6.888  0.00  0.00    +0.210 HD
ENDBRANCH  29  30
BRANCH  29  32
ATOM     32  C   UNL     1       1.688  -6.540  -6.947  0.00  0.00    +0.064 C 
BRANCH  32  33
ATOM     33  C   UNL     1       3.088  -6.496  -7.502  0.00  0.00    -0.045 A 
ATOM     34  C   UNL     1       3.409  -5.595  -8.500  0.00  0.00    +0.004 A 
ATOM     35  C   UNL     1       4.693  -5.555  -9.009  0.00  0.00    +0.000 A 
ATOM     36  C   UNL     1       5.658  -6.415  -8.519  0.00  0.00    +0.000 A 
ATOM     37  C   UNL     1       5.338  -7.316  -7.520  0.00  0.00    +0.000 A 
ATOM     38  C   UNL     1       4.054  -7.353  -7.008  0.00  0.00    +0.004 A 
ENDBRANCH  32  33
ENDBRANCH  29  32
ENDBRANCH  28  29
ENDBRANCH  20  28
ENDBRANCH   1  20
TORSDOF 12
