REMARK  Name = ZINC13568543
REMARK  6 active torsions:
REMARK  status: ('A' for Active; 'I' for Inactive)
REMARK    1  A    between atoms: C_1  and  C_2
REMARK    2  A    between atoms: C_2  and  C_3
REMARK    3  A    between atoms: C_2  and  O_4
REMARK    4  A    between atoms: O_4  and  C_5
REMARK    5  A    between atoms: C_10  and  C_11
REMARK    6  A    between atoms: C_16  and  C_21
REMARK                            x       y       z     vdW  Elec       q    Type
REMARK                         _______ _______ _______ _____ _____    ______ ____
ROOT
ATOM      1  C   UNL     1      -0.478   5.276  -0.123  0.00  0.00    +0.139 C 
ATOM      2  C   UNL     1      -0.778   5.521  -1.583  0.00  0.00    +0.037 C 
ATOM      3  C   UNL     1      -0.051   6.272  -2.425  0.00  0.00    +0.017 C 
ATOM      4  C   UNL     1      -0.474   6.438  -3.875  0.00  0.00    +0.060 C 
ATOM      5  C   UNL     1      -1.179   5.180  -4.360  0.00  0.00    +0.039 C 
ATOM      6  C   UNL     1      -2.407   4.963  -3.467  0.00  0.00    +0.088 C 
ATOM      7  C   UNL     1      -1.947   4.871  -2.043  0.00  0.00    +0.163 C 
ATOM      8  O   UNL     1      -2.602   4.215  -1.256  0.00  0.00    -0.292 OA
ATOM      9  N   UNL     1       1.077   6.947  -2.085  0.00  0.00    -0.316 N 
ATOM     10  C   UNL     1       2.132   6.417  -1.349  0.00  0.00    +0.052 A 
ATOM     11  C   UNL     1       3.407   6.285  -1.870  0.00  0.00    +0.025 A 
ATOM     12  C   UNL     1       4.429   5.828  -1.054  0.00  0.00    +0.002 A 
ATOM     13  C   UNL     1       4.174   5.506   0.266  0.00  0.00    +0.002 A 
ATOM     14  C   UNL     1       2.894   5.614   0.781  0.00  0.00    +0.025 A 
ATOM     15  C   UNL     1       1.865   6.053  -0.038  0.00  0.00    +0.049 A 
ATOM     16  N   UNL     1       0.554   6.130   0.425  0.00  0.00    -0.331 N 
ATOM     17  H   UNL     1       1.153   7.869  -2.377  0.00  0.00    +0.152 HD
ATOM     18  H   UNL     1       0.329   6.763   1.124  0.00  0.00    +0.147 HD
ENDROOT
BRANCH   1  24
ATOM     19  C   UNL     1      -0.145   3.225   1.281  0.00  0.00    +0.126 A 
ATOM     20  C   UNL     1       0.247   1.902   1.428  0.00  0.00    +0.046 A 
ATOM     21  C   UNL     1       0.742   1.205   0.343  0.00  0.00    +0.004 A 
ATOM     22  C   UNL     1       0.837   1.821  -0.891  0.00  0.00    +0.001 A 
ATOM     23  C   UNL     1       0.443   3.137  -1.042  0.00  0.00    +0.009 A 
ATOM     24  C   UNL     1      -0.049   3.841   0.042  0.00  0.00    +0.019 A 
BRANCH  19  25
ATOM     25  O   UNL     1      -0.629   3.914   2.348  0.00  0.00    -0.489 OA
BRANCH  25  27
ATOM     26  C   UNL     1       0.494   3.134   4.340  0.00  0.00    +0.051 C 
ATOM     27  C   UNL     1      -0.821   3.183   3.560  0.00  0.00    +0.167 C 
ATOM     28  C   UNL     1      -1.891   3.873   4.407  0.00  0.00    +0.051 C 
ENDBRANCH  25  27
ENDBRANCH  19  25
ENDBRANCH   1  24
BRANCH   5  29
ATOM     29  C   UNL     1      -1.614   5.359  -5.792  0.00  0.00    -0.006 A 
ATOM     30  C   UNL     1      -1.295   4.618  -6.880  0.00  0.00    +0.011 A 
ATOM     31  C   UNL     1      -1.818   4.972  -8.110  0.00  0.00    +0.008 A 
ATOM     32  C   UNL     1      -2.634   6.052  -8.191  0.00  0.00    +0.045 A 
ATOM     33  S   UNL     1      -2.690   6.600  -6.492  0.00  0.00    -0.101 S 
ENDBRANCH   5  29
TORSDOF 4
