REMARK  Name = ZINC12523852
REMARK  4 active torsions:
REMARK  status: ('A' for Active; 'I' for Inactive)
REMARK    1  A    between atoms: C_4  and  C_7
REMARK    2  A    between atoms: C_8  and  C_25
REMARK    3  A    between atoms: C_9  and  C_15
REMARK    4  A    between atoms: C_20  and  C_21
REMARK                            x       y       z     vdW  Elec       q    Type
REMARK                         _______ _______ _______ _____ _____    ______ ____
ROOT
ATOM      1  C   UNL     1       3.156  -1.413  -0.657  0.00  0.00    +0.051 C 
ATOM      2  C   UNL     1       3.565  -2.561  -0.057  0.00  0.00    +0.041 C 
ATOM      3  C   UNL     1       4.988  -2.616   0.462  0.00  0.00    +0.141 C 
ATOM      4  N   UNL     1       5.818  -1.416   0.274  0.00  0.00    -0.288 N 
ATOM      5  C   UNL     1       5.278  -0.346  -0.341  0.00  0.00    +0.305 C 
ATOM      6  O   UNL     1       5.962   0.647  -0.498  0.00  0.00    -0.252 OA
ATOM      7  N   UNL     1       4.017  -0.339  -0.790  0.00  0.00    -0.268 N 
ATOM      8  H   UNL     1       6.736  -1.395   0.586  0.00  0.00    +0.151 HD
ATOM      9  H   UNL     1       3.689   0.462  -1.228  0.00  0.00    +0.156 HD
ENDROOT
BRANCH   2  10
ATOM     10  C   UNL     1       2.664  -3.704   0.085  0.00  0.00    +0.139 A 
ATOM     11  N   UNL     1       1.653  -3.805   1.007  0.00  0.00    -0.338 N 
ATOM     12  H   UNL     1       1.411  -3.141   1.672  0.00  0.00    +0.167 HD
ATOM     13  C   UNL     1       1.041  -5.030   0.810  0.00  0.00    +0.066 A 
ATOM     14  C   UNL     1      -0.018  -5.683   1.422  0.00  0.00    +0.028 A 
ATOM     15  C   UNL     1      -0.399  -6.934   0.984  0.00  0.00    +0.002 A 
ATOM     16  C   UNL     1       0.270  -7.546  -0.066  0.00  0.00    +0.002 A 
ATOM     17  C   UNL     1       1.324  -6.915  -0.686  0.00  0.00    +0.030 A 
ATOM     18  C   UNL     1       1.724  -5.645  -0.255  0.00  0.00    +0.089 A 
ATOM     19  N   UNL     1       2.695  -4.791  -0.658  0.00  0.00    -0.228 NA
ENDBRANCH   2  10
BRANCH   1  23
ATOM     20  C   UNL     1      -0.806  -1.125  -2.158  0.00  0.00    +0.000 A 
ATOM     21  C   UNL     1      -0.321  -0.150  -1.303  0.00  0.00    +0.001 A 
ATOM     22  C   UNL     1       0.965  -0.238  -0.812  0.00  0.00    +0.010 A 
ATOM     23  C   UNL     1       1.778  -1.313  -1.179  0.00  0.00    -0.003 A 
ATOM     24  C   UNL     1       1.281  -2.293  -2.041  0.00  0.00    +0.010 A 
ATOM     25  C   UNL     1      -0.007  -2.193  -2.525  0.00  0.00    +0.001 A 
ENDBRANCH   1  23
BRANCH   3  26
ATOM     26  C   UNL     1       4.932  -2.913   1.938  0.00  0.00    -0.011 A 
ATOM     27  C   UNL     1       4.537  -1.930   2.827  0.00  0.00    +0.006 A 
ATOM     28  C   UNL     1       4.486  -2.203   4.181  0.00  0.00    +0.000 A 
ATOM     29  C   UNL     1       4.829  -3.458   4.647  0.00  0.00    +0.001 A 
ATOM     30  C   UNL     1       5.223  -4.441   3.759  0.00  0.00    +0.013 A 
ATOM     31  C   UNL     1       5.270  -4.170   2.404  0.00  0.00    +0.060 A 
BRANCH  31  32
ATOM     32  C   UNL     1       5.695  -5.244   1.435  0.00  0.00    +0.418 C 
ATOM     33  F   UNL     1       6.054  -6.395   2.143  0.00  0.00    -0.166 F 
ATOM     34  F   UNL     1       4.634  -5.539   0.572  0.00  0.00    -0.166 F 
ATOM     35  F   UNL     1       6.790  -4.793   0.691  0.00  0.00    -0.166 F 
ENDBRANCH  31  32
ENDBRANCH   3  26
TORSDOF 4
