REMARK  Name = ZINC06450186
REMARK  4 active torsions:
REMARK  status: ('A' for Active; 'I' for Inactive)
REMARK    1  A    between atoms: C_1  and  C_2
REMARK    2  A    between atoms: C_5  and  C_7
REMARK    3  A    between atoms: C_16  and  C_20
REMARK    4  A    between atoms: C_21  and  O_23
REMARK                            x       y       z     vdW  Elec       q    Type
REMARK                         _______ _______ _______ _____ _____    ______ ____
ROOT
ATOM      1  C   UNL     1      -1.276   5.901  -4.314  0.00  0.00    +0.230 C 
ATOM      2  N   UNL     1      -1.643   6.259  -2.932  0.00  0.00    -0.313 N 
ATOM      3  C   UNL     1      -1.354   5.326  -1.965  0.00  0.00    +0.080 A 
ATOM      4  C   UNL     1      -1.221   3.962  -2.253  0.00  0.00    +0.068 A 
ATOM      5  C   UNL     1      -0.925   3.101  -1.121  0.00  0.00    -0.023 A 
ATOM      6  C   UNL     1      -0.810   3.724   0.074  0.00  0.00    -0.004 A 
ATOM      7  S   UNL     1      -1.090   5.440  -0.278  0.00  0.00    -0.078 S 
ATOM      8  C   UNL     1      -0.512   3.094   1.398  0.00  0.00    +0.046 C 
ATOM      9  C   UNL     1      -0.726   1.578   1.271  0.00  0.00    -0.009 C 
ATOM     10  C   UNL     1      -0.013   1.086   0.008  0.00  0.00    +0.008 C 
ATOM     11  C   UNL     1      -0.749   1.591  -1.234  0.00  0.00    +0.037 C 
ATOM     12  C   UNL     1      -0.142   0.874   2.497  0.00  0.00    +0.008 C 
ATOM     13  C   UNL     1      -1.412   3.545  -3.666  0.00  0.00    +0.220 C 
ATOM     14  N   UNL     1      -1.474   4.480  -4.573  0.00  0.00    -0.222 NA
ATOM     15  H   UNL     1      -2.120   7.227  -2.722  0.00  0.00    +0.149 HD
ENDROOT
BRANCH   1  20
ATOM     16  C   UNL     1       4.025   7.891  -4.487  0.00  0.00    +0.051 C 
ATOM     17  C   UNL     1       2.696   7.193  -4.626  0.00  0.00    -0.013 A 
ATOM     18  C   UNL     1       2.354   6.165  -5.440  0.00  0.00    +0.011 A 
ATOM     19  C   UNL     1       1.060   5.679  -5.397  0.00  0.00    +0.015 A 
ATOM     20  C   UNL     1       0.173   6.246  -4.544  0.00  0.00    +0.032 A 
ATOM     21  S   UNL     1       1.164   7.511  -3.768  0.00  0.00    -0.095 S 
ENDBRANCH   1  20
BRANCH  13  22
ATOM     22  O   UNL     1      -1.518   2.238  -4.001  0.00  0.00    -0.492 OA
ATOM     23  H   UNL     1      -1.658   1.950  -5.053  0.00  0.00    +0.294 HD
ENDBRANCH  13  22
TORSDOF 2
