REMARK  Name = ZINC38577223
REMARK  6 active torsions:
REMARK  status: ('A' for Active; 'I' for Inactive)
REMARK    1  A    between atoms: C_1  and  C_2
REMARK    2  A    between atoms: C_5  and  O_30
REMARK    3  A    between atoms: C_6  and  C_8
REMARK    4  A    between atoms: C_11  and  C_14
REMARK    5  A    between atoms: C_22  and  S_26
REMARK    6  A    between atoms: S_26  and  C_29
REMARK                            x       y       z     vdW  Elec       q    Type
REMARK                         _______ _______ _______ _____ _____    ______ ____
ROOT
ATOM      1  C   UNL     1       2.870  -2.437   5.059  0.00  0.00    +0.265 C 
ATOM      2  O   UNL     1       3.857  -3.043   4.687  0.00  0.00    -0.268 OA
ATOM      3  N   UNL     1       2.893  -1.762   6.225  0.00  0.00    -0.260 N 
ATOM      4  C   UNL     1       4.040  -1.757   6.999  0.00  0.00    +0.166 A 
ATOM      5  N   UNL     1       5.193  -2.339   6.765  0.00  0.00    -0.225 NA
ATOM      6  C   UNL     1       6.237  -2.248   7.617  0.00  0.00    +0.080 A 
ATOM      7  C   UNL     1       7.523  -2.822   7.487  0.00  0.00    +0.031 A 
ATOM      8  C   UNL     1       8.476  -2.632   8.453  0.00  0.00    +0.029 A 
ATOM      9  C   UNL     1       8.219  -1.874   9.586  0.00  0.00    +0.089 A 
ATOM     10  C   UNL     1       6.972  -1.298   9.747  0.00  0.00    +0.044 A 
ATOM     11  C   UNL     1       6.011  -1.484   8.785  0.00  0.00    +0.043 A 
ATOM     12  S   UNL     1       4.330  -0.950   8.567  0.00  0.00    -0.052 S 
ATOM     13  H   UNL     1       2.105  -1.279   6.521  0.00  0.00    +0.157 HD
ENDROOT
BRANCH   1  16
ATOM     14  C   UNL     1       0.052  -2.841   2.493  0.00  0.00    +0.129 C 
ATOM     15  C   UNL     1       1.500  -3.158   2.918  0.00  0.00    +0.091 C 
ATOM     16  C   UNL     1       1.657  -2.443   4.240  0.00  0.00    +0.123 C 
ATOM     17  N   UNL     1       0.553  -1.837   4.537  0.00  0.00    -0.186 NA
ATOM     18  N   UNL     1      -0.458  -2.001   3.588  0.00  0.00    -0.261 N 
ATOM     19  H   UNL     1      -1.350  -1.623   3.640  0.00  0.00    +0.169 HD
BRANCH  14  25
ATOM     20  C   UNL     1      -0.018   1.503   0.010  0.00  0.00    +0.044 C 
ATOM     21  C   UNL     1       0.002  -0.004   0.002  0.00  0.00    -0.050 A 
ATOM     22  C   UNL     1       0.006  -0.688  -1.200  0.00  0.00    +0.007 A 
ATOM     23  C   UNL     1       0.024  -2.069  -1.210  0.00  0.00    +0.046 A 
ATOM     24  C   UNL     1       0.039  -2.770  -0.013  0.00  0.00    +0.122 A 
ATOM     25  C   UNL     1       0.036  -2.082   1.191  0.00  0.00    +0.016 A 
ATOM     26  C   UNL     1       0.023  -0.701   1.196  0.00  0.00    +0.012 A 
BRANCH  24  27
ATOM     27  O   UNL     1       0.057  -4.129  -0.021  0.00  0.00    -0.506 OA
ATOM     28  H   UNL     1       0.945  -4.511  -0.027  0.00  0.00    +0.292 HD
ENDBRANCH  24  27
ENDBRANCH  14  25
ENDBRANCH   1  16
BRANCH   9  29
ATOM     29  S   UNL     1       9.467  -1.650  10.809  0.00  0.00    -0.006 S 
ATOM     30  O   UNL     1       8.755  -1.409  12.015  0.00  0.00    -0.170 OA
ATOM     31  O   UNL     1      10.310  -2.787  10.680  0.00  0.00    -0.170 OA
ATOM     32  C   UNL     1      10.355  -0.152  10.299  0.00  0.00    +0.200 C 
ENDBRANCH   9  29
TORSDOF 4
