REMARK  Name = ZINC07275303
REMARK  8 active torsions:
REMARK  status: ('A' for Active; 'I' for Inactive)
REMARK    1  A    between atoms: C_1  and  O_2
REMARK    2  A    between atoms: O_2  and  C_3
REMARK    3  A    between atoms: C_6  and  N_11
REMARK    4  A    between atoms: C_7  and  O_9
REMARK    5  A    between atoms: O_9  and  C_10
REMARK    6  A    between atoms: C_17  and  C_18
REMARK    7  A    between atoms: C_21  and  O_25
REMARK    8  A    between atoms: C_22  and  O_24
REMARK                            x       y       z     vdW  Elec       q    Type
REMARK                         _______ _______ _______ _____ _____    ______ ____
ROOT
ATOM      1  N   UNL     1      -5.240  -2.575  -1.248  0.00  0.00    -0.222 NA
ATOM      2  C   UNL     1      -6.260  -1.869  -0.818  0.00  0.00    +0.166 C 
ATOM      3  N   UNL     1      -7.524  -2.306  -0.481  0.00  0.00    -0.260 N 
ATOM      4  C   UNL     1      -8.442  -1.452  -0.061  0.00  0.00    +0.256 C 
ATOM      5  O   UNL     1      -9.563  -1.819   0.239  0.00  0.00    -0.269 OA
ATOM      6  C   UNL     1      -8.046  -0.033   0.026  0.00  0.00    +0.078 C 
ATOM      7  C   UNL     1      -8.775   1.042   0.420  0.00  0.00    +0.028 C 
ATOM      8  S   UNL     1      -6.346  -0.111  -0.518  0.00  0.00    -0.049 S 
ATOM      9  H   UNL     1      -7.742  -3.248  -0.554  0.00  0.00    +0.157 HD
ENDROOT
BRANCH   1  13
ATOM     10  C   UNL     1      -1.753  -0.670  -2.429  0.00  0.00    +0.124 A 
ATOM     11  C   UNL     1      -2.985  -0.182  -2.843  0.00  0.00    +0.048 A 
ATOM     12  C   UNL     1      -4.148  -0.814  -2.452  0.00  0.00    +0.035 A 
ATOM     13  C   UNL     1      -4.087  -1.946  -1.639  0.00  0.00    +0.108 A 
ATOM     14  C   UNL     1      -2.843  -2.436  -1.222  0.00  0.00    +0.149 A 
ATOM     15  C   UNL     1      -1.683  -1.798  -1.624  0.00  0.00    +0.093 A 
BRANCH  10  17
ATOM     16  C   UNL     1      -0.755   1.113  -3.646  0.00  0.00    +0.277 C 
ATOM     17  O   UNL     1      -0.611  -0.043  -2.817  0.00  0.00    -0.495 OA
ENDBRANCH  10  17
BRANCH  14  18
ATOM     18  O   UNL     1      -2.775  -3.538  -0.429  0.00  0.00    -0.493 OA
ATOM     19  C   UNL     1      -1.473  -3.981  -0.043  0.00  0.00    +0.277 C 
ENDBRANCH  14  18
ENDBRANCH   1  13
BRANCH   7  20
ATOM     20  C   UNL     1      -8.233   2.397   0.257  0.00  0.00    -0.020 A 
ATOM     21  C   UNL     1      -7.059   2.599  -0.477  0.00  0.00    +0.012 A 
ATOM     22  C   UNL     1      -6.553   3.872  -0.629  0.00  0.00    +0.050 A 
ATOM     23  C   UNL     1      -7.205   4.955  -0.055  0.00  0.00    +0.158 A 
ATOM     24  C   UNL     1      -8.375   4.762   0.678  0.00  0.00    +0.159 A 
ATOM     25  C   UNL     1      -8.893   3.491   0.830  0.00  0.00    +0.057 A 
BRANCH  24  26
ATOM     26  O   UNL     1      -9.009   5.826   1.238  0.00  0.00    -0.503 OA
ATOM     27  H   UNL     1      -9.671   6.237   0.664  0.00  0.00    +0.292 HD
ENDBRANCH  24  26
BRANCH  23  28
ATOM     28  O   UNL     1      -6.701   6.207  -0.208  0.00  0.00    -0.503 OA
ATOM     29  H   UNL     1      -7.032   6.672  -0.989  0.00  0.00    +0.292 HD
ENDBRANCH  23  28
ENDBRANCH   7  20
TORSDOF 6
