REMARK  Name = ZINC39774480
REMARK  2 active torsions:
REMARK  status: ('A' for Active; 'I' for Inactive)
REMARK    1  A    between atoms: C_5  and  C_6
REMARK    2  A    between atoms: N_7  and  N_8
REMARK                            x       y       z     vdW  Elec       q    Type
REMARK                         _______ _______ _______ _____ _____    ______ ____
ROOT
ATOM      1  N   UNL     1      -2.002  -2.932   0.007  0.00  0.00    -0.109 NA
ATOM      2  C   UNL     1      -1.844  -4.245  -0.002  0.00  0.00    +0.266 A 
ATOM      3  N   UNL     1      -2.972  -5.067  -0.001  0.00  0.00    -0.305 N 
ATOM      4  C   UNL     1      -2.743  -6.352  -0.473  0.00  0.00    +0.155 A 
ATOM      5  N   UNL     1      -3.564  -7.310  -0.771  0.00  0.00    -0.253 NA
ATOM      6  C   UNL     1      -2.788  -8.363  -1.402  0.00  0.00    +0.162 C 
ATOM      7  C   UNL     1      -3.150  -9.770  -1.087  0.00  0.00    +0.004 C 
ATOM      8  C   UNL     1      -2.195 -10.695  -0.930  0.00  0.00    -0.002 C 
ATOM      9  C   UNL     1      -0.817 -10.400  -1.011  0.00  0.00    +0.000 C 
ATOM     10  C   UNL     1      -0.372  -9.104  -0.991  0.00  0.00    +0.008 C 
ATOM     11  C   UNL     1      -1.347  -8.121  -1.008  0.00  0.00    +0.009 C 
ATOM     12  C   UNL     1      -1.328  -6.823  -0.566  0.00  0.00    +0.105 A 
ATOM     13  N   UNL     1      -0.319  -5.986  -0.267  0.00  0.00    -0.270 N 
ATOM     14  N   UNL     1      -0.607  -4.753  -0.017  0.00  0.00    -0.133 NA
ATOM     15  H   UNL     1      -3.842  -4.766   0.305  0.00  0.00    +0.170 HD
ATOM     16  H   UNL     1       0.599  -6.299  -0.243  0.00  0.00    +0.189 HD
ENDROOT
BRANCH   1  18
ATOM     17  C   UNL     1      -1.128  -0.852   0.009  0.00  0.00    +0.181 C 
ATOM     18  N   UNL     1      -0.971  -2.158   0.000  0.00  0.00    -0.150 NA
BRANCH  17  23
ATOM     19  C   UNL     1      -0.017   1.377   0.010  0.00  0.00    +0.052 A 
ATOM     20  C   UNL     1       1.323   1.795  -0.001  0.00  0.00    +0.056 A 
ATOM     21  C   UNL     1       2.090   0.681  -0.014  0.00  0.00    +0.165 A 
ATOM     22  O   UNL     1       1.293  -0.399  -0.012  0.00  0.00    -0.448 OA
ATOM     23  C   UNL     1       0.002  -0.004   0.002  0.00  0.00    +0.149 A 
ATOM     24  I   UNL     1       4.184   0.646  -0.035  0.00  0.00    -0.001 I 
ENDBRANCH  17  23
ENDBRANCH   1  18
TORSDOF 2
