REMARK  Name = ZINC43221018
REMARK  7 active torsions:
REMARK  status: ('A' for Active; 'I' for Inactive)
REMARK    1  A    between atoms: C_1  and  C_2
REMARK    2  A    between atoms: C_5  and  C_32
REMARK    3  A    between atoms: C_6  and  C_8
REMARK    4  A    between atoms: N_16  and  C_19
REMARK    5  A    between atoms: C_25  and  C_27
REMARK    6  A    between atoms: C_25  and  C_29
REMARK    7  A    between atoms: C_27  and  O_28
REMARK                            x       y       z     vdW  Elec       q    Type
REMARK                         _______ _______ _______ _____ _____    ______ ____
ROOT
ATOM      1  C   UNL     1       0.054  -2.845   2.489  0.00  0.00    -0.026 C 
ATOM      2  C   UNL     1       1.492  -3.280   2.838  0.00  0.00    +0.077 C 
ATOM      3  C   UNL     1       1.588  -3.133   4.381  0.00  0.00    +0.088 C 
ATOM      4  C   UNL     1       2.604  -2.028   4.564  0.00  0.00    +0.225 C 
ATOM      5  O   UNL     1       2.980  -1.592   5.631  0.00  0.00    -0.275 OA
ATOM      6  N   UNL     1       3.023  -1.607   3.365  0.00  0.00    -0.239 N 
ATOM      7  C   UNL     1       2.466  -2.249   2.313  0.00  0.00    +0.225 C 
ATOM      8  O   UNL     1       2.699  -2.039   1.142  0.00  0.00    -0.275 OA
ATOM      9  C   UNL     1       0.194  -2.639   4.819  0.00  0.00    +0.071 C 
ATOM     10  N   UNL     1      -0.359  -1.962   3.609  0.00  0.00    +0.397 N 
ATOM     11  H   UNL     1       0.037  -1.041   3.497  0.00  0.00    -0.083 HD
ATOM     12  H   UNL     1      -1.365  -1.910   3.666  0.00  0.00    -0.083 HD
ENDROOT
BRANCH   1  18
ATOM     13  C   UNL     1       0.136   1.501   0.007  0.00  0.00    +0.044 C 
ATOM     14  C   UNL     1       0.076  -0.005   0.001  0.00  0.00    -0.050 A 
ATOM     15  C   UNL     1       0.006  -0.689  -1.199  0.00  0.00    +0.003 A 
ATOM     16  C   UNL     1      -0.049  -2.070  -1.205  0.00  0.00    +0.004 A 
ATOM     17  C   UNL     1      -0.034  -2.767  -0.012  0.00  0.00    -0.049 A 
ATOM     18  C   UNL     1       0.037  -2.084   1.188  0.00  0.00    -0.057 A 
ATOM     19  C   UNL     1       0.097  -0.703   1.194  0.00  0.00    +0.005 A 
ATOM     20  C   UNL     1      -0.095  -4.273  -0.018  0.00  0.00    +0.044 C 
ENDBRANCH   1  18
BRANCH   6  21
ATOM     21  C   UNL     1       4.013  -0.540   3.202  0.00  0.00    +0.084 C 
ATOM     22  C   UNL     1       3.396   0.611   2.406  0.00  0.00    +0.023 C 
ATOM     23  C   UNL     1       4.430   1.726   2.235  0.00  0.00    +0.002 C 
ATOM     24  C   UNL     1       5.647   1.182   1.485  0.00  0.00    +0.000 C 
ATOM     25  C   UNL     1       6.265   0.031   2.282  0.00  0.00    +0.002 C 
ATOM     26  C   UNL     1       5.231  -1.084   2.452  0.00  0.00    +0.023 C 
ENDBRANCH   6  21
BRANCH   9  27
ATOM     27  C   UNL     1       0.319  -1.647   5.947  0.00  0.00    +0.348 C 
ATOM     28  O   UNL     1      -0.104  -0.512   5.810  0.00  0.00    -0.248 OA
ATOM     29  O   UNL     1       0.844  -1.980   6.996  0.00  0.00    -0.248 OA
ENDBRANCH   9  27
BRANCH   9  30
ATOM     30  C   UNL     1      -0.682  -3.820   5.242  0.00  0.00    +0.155 C 
BRANCH  30  31
ATOM     31  O   UNL     1      -2.002  -3.355   5.532  0.00  0.00    -0.396 OA
ATOM     32  H   UNL     1      -2.613  -4.052   5.807  0.00  0.00    +0.209 HD
ENDBRANCH  30  31
ENDBRANCH   9  30
TORSDOF 5
