REMARK  Name = ZINC09252368
REMARK  10 active torsions:
REMARK  status: ('A' for Active; 'I' for Inactive)
REMARK    1  A    between atoms: C_1  and  C_2
REMARK    2  A    between atoms: C_5  and  C_8
REMARK    3  A    between atoms: N_10  and  C_11
REMARK    4  A    between atoms: C_11  and  N_13
REMARK    5  A    between atoms: N_13  and  C_14
REMARK    6  A    between atoms: C_15  and  C_28
REMARK    7  A    between atoms: C_20  and  C_24
REMARK    8  A    between atoms: C_24  and  C_25
REMARK    9  A    between atoms: C_24  and  C_26
REMARK   10  A    between atoms: C_24  and  C_27
REMARK                            x       y       z     vdW  Elec       q    Type
REMARK                         _______ _______ _______ _____ _____    ______ ____
ROOT
ATOM      1  C   UNL     1       1.179   1.675  -0.000  0.00  0.00    +0.084 A 
ATOM      2  C   UNL     1       2.477   1.182  -0.010  0.00  0.00    +0.068 A 
ATOM      3  C   UNL     1       3.562   2.148  -0.019  0.00  0.00    -0.023 A 
ATOM      4  C   UNL     1       3.179   3.443  -0.009  0.00  0.00    -0.004 A 
ATOM      5  S   UNL     1       1.410   3.392   0.007  0.00  0.00    -0.077 S 
ATOM      6  C   UNL     1       4.069   4.648  -0.010  0.00  0.00    +0.046 C 
ATOM      7  C   UNL     1       5.485   4.204  -0.403  0.00  0.00    -0.000 C 
ATOM      8  C   UNL     1       5.862   2.971   0.423  0.00  0.00    +0.009 C 
ATOM      9  C   UNL     1       5.037   1.766  -0.034  0.00  0.00    +0.037 C 
ENDROOT
BRANCH   2  10
ATOM     10  C   UNL     1       2.742  -0.260  -0.013  0.00  0.00    +0.244 C 
ATOM     11  O   UNL     1       2.846  -0.857  -1.069  0.00  0.00    -0.270 OA
ATOM     12  N   UNL     1       2.872  -0.924   1.153  0.00  0.00    -0.325 N 
ATOM     13  H   UNL     1       2.789  -0.448   1.994  0.00  0.00    +0.145 HD
ATOM     14  H   UNL     1       3.048  -1.878   1.150  0.00  0.00    +0.145 HD
ENDBRANCH   2  10
BRANCH   7  15
ATOM     15  C   UNL     1       6.475   5.335  -0.119  0.00  0.00    -0.035 C 
ATOM     16  C   UNL     1       6.445   5.676   1.373  0.00  0.00    +0.011 C 
ATOM     17  C   UNL     1       7.885   4.889  -0.511  0.00  0.00    +0.011 C 
ATOM     18  C   UNL     1       6.086   6.570  -0.932  0.00  0.00    +0.011 C 
ENDBRANCH   7  15
BRANCH   1  19
ATOM     19  N   UNL     1      -0.011   0.966   0.007  0.00  0.00    -0.291 N 
ATOM     20  H   UNL     1       0.002  -0.004   0.002  0.00  0.00    +0.154 HD
BRANCH  19  21
ATOM     21  C   UNL     1      -1.187   1.624   0.017  0.00  0.00    +0.141 C 
ATOM     22  S   UNL     1      -1.210   3.336   0.026  0.00  0.00    -0.018 S 
BRANCH  21  25
ATOM     23  C   UNL     1      -3.522   1.592   0.027  0.00  0.00    +0.250 C 
ATOM     24  O   UNL     1      -3.538   2.807   0.034  0.00  0.00    -0.270 OA
ATOM     25  N   UNL     1      -2.345   0.934   0.018  0.00  0.00    -0.264 N 
ATOM     26  H   UNL     1      -2.332  -0.036   0.013  0.00  0.00    +0.157 HD
BRANCH  23  31
ATOM     27  C   UNL     1      -8.465  -1.352   0.034  0.00  0.00    +0.044 C 
ATOM     28  C   UNL     1      -7.170  -0.581   0.032  0.00  0.00    -0.050 A 
ATOM     29  C   UNL     1      -7.193   0.802   0.040  0.00  0.00    +0.004 A 
ATOM     30  C   UNL     1      -6.011   1.514   0.039  0.00  0.00    +0.013 A 
ATOM     31  C   UNL     1      -4.791   0.836   0.029  0.00  0.00    +0.037 A 
ATOM     32  C   UNL     1      -4.776  -0.560   0.016  0.00  0.00    +0.013 A 
ATOM     33  C   UNL     1      -5.965  -1.260   0.022  0.00  0.00    +0.004 A 
ENDBRANCH  23  31
ENDBRANCH  21  25
ENDBRANCH  19  21
ENDBRANCH   1  19
TORSDOF 6
