REMARK  Name = ZINC25161914
REMARK  9 active torsions:
REMARK  status: ('A' for Active; 'I' for Inactive)
REMARK    1  A    between atoms: C_1  and  C_2
REMARK    2  A    between atoms: C_2  and  C_3
REMARK    3  A    between atoms: C_2  and  C_4
REMARK    4  A    between atoms: C_4  and  C_6
REMARK    5  A    between atoms: C_4  and  N_13
REMARK    6  A    between atoms: C_14  and  C_16
REMARK    7  A    between atoms: C_16  and  S_17
REMARK    8  A    between atoms: S_17  and  C_18
REMARK    9  A    between atoms: C_18  and  C_19
REMARK                            x       y       z     vdW  Elec       q    Type
REMARK                         _______ _______ _______ _____ _____    ______ ____
ROOT
ATOM      1  C   UNL     1      -2.809   0.034   3.540  0.00  0.00    +0.165 C 
ENDROOT
BRANCH   1   3
ATOM      2  N   UNL     1      -2.155   0.035   1.154  0.00  0.00    -0.308 N 
ATOM      3  C   UNL     1      -2.067  -0.550   2.366  0.00  0.00    +0.223 C 
ATOM      4  O   UNL     1      -1.391  -1.546   2.511  0.00  0.00    -0.275 OA
ATOM      5  H   UNL     1      -2.696   0.831   1.038  0.00  0.00    +0.149 HD
BRANCH   2   6
ATOM      6  C   UNL     1      -1.433  -0.534   0.013  0.00  0.00    +0.106 C 
BRANCH   6   7
ATOM      7  C   UNL     1      -2.125  -0.137  -1.266  0.00  0.00    -0.027 A 
ATOM      8  C   UNL     1      -2.629   1.142  -1.411  0.00  0.00    +0.007 A 
ATOM      9  C   UNL     1      -3.263   1.506  -2.584  0.00  0.00    +0.020 A 
ATOM     10  C   UNL     1      -3.393   0.590  -3.613  0.00  0.00    +0.041 A 
ATOM     11  C   UNL     1      -2.889  -0.690  -3.467  0.00  0.00    +0.020 A 
ATOM     12  C   UNL     1      -2.250  -1.051  -2.296  0.00  0.00    +0.007 A 
ATOM     13 CL   UNL     1      -4.190   1.046  -5.086  0.00  0.00    -0.084 Cl
ENDBRANCH   6   7
BRANCH   6  15
ATOM     14  C   UNL     1      -0.019   1.526   0.010  0.00  0.00    +0.009 C 
ATOM     15  C   UNL     1       0.002  -0.004   0.002  0.00  0.00    +0.008 C 
ATOM     16  C   UNL     1       0.742  -0.511   1.242  0.00  0.00    +0.009 C 
ENDBRANCH   6  15
ENDBRANCH   2   6
ENDBRANCH   1   3
BRANCH   1  17
ATOM     17  S   UNL     1      -2.493  -0.971   5.016  0.00  0.00    -0.144 S 
BRANCH  17  18
ATOM     18  C   UNL     1      -3.444  -0.145   6.322  0.00  0.00    +0.143 C 
BRANCH  18  19
ATOM     19  C   UNL     1      -3.266  -0.889   7.620  0.00  0.00    +0.121 A 
ATOM     20  N   UNL     1      -3.899  -0.443   8.735  0.00  0.00    -0.310 N 
ATOM     21  H   UNL     1      -4.458   0.348   8.681  0.00  0.00    +0.170 HD
ATOM     22  C   UNL     1      -3.767  -1.077   9.916  0.00  0.00    +0.260 A 
ATOM     23  O   UNL     1      -4.342  -0.666  10.909  0.00  0.00    -0.267 OA
ATOM     24  C   UNL     1      -2.939  -2.245   9.983  0.00  0.00    +0.075 A 
ATOM     25  C   UNL     1      -2.654  -3.088  11.153  0.00  0.00    -0.023 A 
ATOM     26  C   UNL     1      -1.837  -4.138  10.960  0.00  0.00    -0.004 A 
ATOM     27  S   UNL     1      -1.406  -4.074   9.236  0.00  0.00    -0.073 S 
ATOM     28  C   UNL     1      -2.328  -2.629   8.782  0.00  0.00    +0.116 A 
ATOM     29  N   UNL     1      -2.509  -1.953   7.650  0.00  0.00    -0.226 NA
ATOM     30  C   UNL     1      -1.613  -4.923  12.225  0.00  0.00    +0.043 C 
ATOM     31  C   UNL     1      -2.063  -3.973  13.356  0.00  0.00    +0.010 C 
ATOM     32  C   UNL     1      -3.079  -3.074  12.624  0.00  0.00    +0.037 C 
ENDBRANCH  18  19
ENDBRANCH  17  18
ENDBRANCH   1  17
TORSDOF 7
