REMARK  Name = ZINC05749115
REMARK  5 active torsions:
REMARK  status: ('A' for Active; 'I' for Inactive)
REMARK    1  A    between atoms: C_2  and  C_13
REMARK    2  A    between atoms: C_3  and  N_10
REMARK    3  A    between atoms: C_14  and  C_15
REMARK    4  A    between atoms: C_14  and  C_17
REMARK    5  A    between atoms: N_19  and  C_20
REMARK                            x       y       z     vdW  Elec       q    Type
REMARK                         _______ _______ _______ _____ _____    ______ ____
ROOT
ATOM      1  C   UNL     1       1.199   3.576  -0.000  0.00  0.00    +0.034 C 
ATOM      2  C   UNL     1       0.017   4.266  -0.158  0.00  0.00    +0.114 C 
ENDROOT
BRANCH   1   4
ATOM      3  C   UNL     1       0.380   1.723   1.438  0.00  0.00    +0.059 A 
ATOM      4  C   UNL     1       1.177   2.159   0.370  0.00  0.00    +0.010 A 
ATOM      5  C   UNL     1       1.951   1.233  -0.343  0.00  0.00    +0.137 A 
ATOM      6  C   UNL     1       1.927  -0.098   0.007  0.00  0.00    +0.082 A 
ATOM      7  C   UNL     1       1.137  -0.529   1.066  0.00  0.00    +0.168 A 
ATOM      8  C   UNL     1       0.362   0.388   1.782  0.00  0.00    +0.167 A 
ATOM      9  O   UNL     1      -0.313  -0.284   2.760  0.00  0.00    -0.453 OA
ATOM     10  C   UNL     1      -0.262  -1.671   2.377  0.00  0.00    +0.466 C 
ATOM     11  O   UNL     1       0.945  -1.769   1.599  0.00  0.00    -0.453 OA
BRANCH   5  12
ATOM     12  N   UNL     1       2.794   1.686  -1.473  0.00  0.00    +0.057 N 
ATOM     13  O   UNL     1       3.389   0.877  -2.146  0.00  0.00    -0.126 OA
ATOM     14  O   UNL     1       2.887   2.866  -1.722  0.00  0.00    -0.126 OA
ENDBRANCH   5  12
ENDBRANCH   1   4
BRANCH   2  15
ATOM     15  C   UNL     1      -1.263   3.541  -0.160  0.00  0.00    +0.255 C 
ATOM     16  O   UNL     1      -1.273   2.325  -0.148  0.00  0.00    -0.269 OA
ATOM     17  N   UNL     1      -2.425   4.224  -0.174  0.00  0.00    -0.308 N 
ATOM     18  H   UNL     1      -2.417   5.194  -0.184  0.00  0.00    +0.149 HD
BRANCH  17  19
ATOM     19  C   UNL     1      -3.700   3.502  -0.176  0.00  0.00    +0.073 C 
ATOM     20  C   UNL     1      -4.122   3.180  -1.625  0.00  0.00    +0.022 C 
ATOM     21  C   UNL     1      -5.662   3.351  -1.618  0.00  0.00    +0.002 C 
ATOM     22  C   UNL     1      -5.866   4.574  -0.690  0.00  0.00    +0.002 C 
ATOM     23  C   UNL     1      -4.808   4.389   0.418  0.00  0.00    +0.022 C 
ENDBRANCH  17  19
ENDBRANCH   2  15
BRANCH   2  24
ATOM     24  C   UNL     1       0.034   5.689  -0.319  0.00  0.00    +0.104 C 
ATOM     25  N   UNL     1       0.048   6.817  -0.448  0.00  0.00    -0.191 NA
ENDBRANCH   2  24
TORSDOF 5
