REMARK  Name = ZINC39672870
REMARK  6 active torsions:
REMARK  status: ('A' for Active; 'I' for Inactive)
REMARK    1  A    between atoms: C_1  and  C_2
REMARK    2  A    between atoms: C_2  and  C_8
REMARK    3  A    between atoms: C_12  and  C_21
REMARK    4  A    between atoms: N_23  and  C_24
REMARK    5  A    between atoms: C_24  and  C_25
REMARK    6  A    between atoms: C_25  and  N_31
REMARK                            x       y       z     vdW  Elec       q    Type
REMARK                         _______ _______ _______ _____ _____    ______ ____
ROOT
ATOM      1  C   UNL     1      -2.205  -0.713   0.067  0.00  0.00    +0.222 C 
ATOM      2  O   UNL     1      -2.820  -1.305   0.927  0.00  0.00    -0.275 OA
ATOM      3  N   UNL     1      -2.840  -0.285  -1.042  0.00  0.00    -0.300 N 
ATOM      4  C   UNL     1      -2.245   0.347  -2.244  0.00  0.00    +0.121 C 
ATOM      5  C   UNL     1      -3.026  -0.260  -3.431  0.00  0.00    +0.100 C 
ATOM      6  C   UNL     1      -4.369  -0.707  -2.830  0.00  0.00    -0.004 C 
ATOM      7  C   UNL     1      -4.291  -0.347  -1.339  0.00  0.00    +0.115 C 
ATOM      8  C   UNL     1      -4.545  -2.214  -2.994  0.00  0.00    -0.010 C 
ATOM      9  C   UNL     1      -5.912  -2.627  -2.440  0.00  0.00    -0.082 C 
ATOM     10  N   UNL     1      -6.971  -1.908  -3.159  0.00  0.00    +0.379 N 
ATOM     11  C   UNL     1      -6.849  -0.465  -2.921  0.00  0.00    -0.082 C 
ATOM     12  C   UNL     1      -5.522   0.039  -3.495  0.00  0.00    -0.010 C 
ATOM     13  H   UNL     1      -6.888  -2.093  -4.148  0.00  0.00    -0.086 HD
ATOM     14  H   UNL     1      -7.872  -2.227  -2.835  0.00  0.00    -0.086 HD
ENDROOT
BRANCH   1  16
ATOM     15  C   UNL     1       0.054  -1.281  -0.784  0.00  0.00    +0.021 C 
ATOM     16  C   UNL     1      -0.730  -0.454   0.237  0.00  0.00    +0.044 C 
ATOM     17  C   UNL     1      -0.302  -0.851   1.651  0.00  0.00    +0.016 C 
ATOM     18  C   UNL     1      -1.086  -0.023   2.672  0.00  0.00    +0.001 C 
ATOM     19  C   UNL     1      -0.800   1.464   2.451  0.00  0.00    +0.000 C 
ATOM     20  C   UNL     1      -1.228   1.860   1.036  0.00  0.00    +0.001 C 
ATOM     21  C   UNL     1      -0.444   1.033   0.015  0.00  0.00    +0.016 C 
ENDBRANCH   1  16
BRANCH   5  22
ATOM     22  C   UNL     1      -3.248   0.780  -4.499  0.00  0.00    +0.218 C 
ATOM     23  O   UNL     1      -3.428   1.939  -4.189  0.00  0.00    -0.275 OA
ATOM     24  N   UNL     1      -3.246   0.423  -5.798  0.00  0.00    -0.313 N 
ATOM     25  H   UNL     1      -3.102  -0.504  -6.046  0.00  0.00    +0.149 HD
BRANCH  24  26
ATOM     26  C   UNL     1      -3.462   1.434  -6.837  0.00  0.00    +0.126 C 
BRANCH  26  27
ATOM     27  C   UNL     1      -3.536   0.753  -8.204  0.00  0.00    +0.038 C 
ATOM     28  C   UNL     1      -3.700   1.814  -9.294  0.00  0.00    +0.024 C 
ATOM     29  C   UNL     1      -4.986   2.604  -9.048  0.00  0.00    +0.002 C 
ATOM     30  C   UNL     1      -6.184   1.653  -9.079  0.00  0.00    +0.000 C 
ATOM     31  C   UNL     1      -6.020   0.592  -7.989  0.00  0.00    +0.002 C 
ATOM     32  C   UNL     1      -4.734  -0.199  -8.235  0.00  0.00    +0.024 C 
BRANCH  27  33
ATOM     33  N   UNL     1      -2.301  -0.006  -8.441  0.00  0.00    -0.291 NA
ATOM     34  C   UNL     1      -1.116   0.841  -8.244  0.00  0.00    +0.113 C 
ATOM     35  C   UNL     1       0.146  -0.003  -8.442  0.00  0.00    +0.175 C 
ATOM     36  O   UNL     1       0.117  -0.598  -9.742  0.00  0.00    -0.377 OA
ATOM     37  C   UNL     1      -1.024  -1.430  -9.968  0.00  0.00    +0.175 C 
ATOM     38  C   UNL     1      -2.298  -0.602  -9.786  0.00  0.00    +0.113 C 
ENDBRANCH  27  33
ENDBRANCH  26  27
ENDBRANCH  24  26
ENDBRANCH   5  22
TORSDOF 5
