REMARK  Name = ZINC39597806
REMARK  5 active torsions:
REMARK  status: ('A' for Active; 'I' for Inactive)
REMARK    1  A    between atoms: C_7  and  C_10
REMARK    2  A    between atoms: C_10  and  C_11
REMARK    3  A    between atoms: C_11  and  N_12
REMARK    4  A    between atoms: C_13  and  C_15
REMARK    5  A    between atoms: C_26  and  C_28
REMARK                            x       y       z     vdW  Elec       q    Type
REMARK                         _______ _______ _______ _____ _____    ______ ____
ROOT
ATOM      1  C   UNL     1      -5.359   6.716  -2.829  0.00  0.00    +0.100 C 
ATOM      2  C   UNL     1      -4.650   7.670  -1.843  0.00  0.00    +0.121 C 
ATOM      3  N   UNL     1      -3.771   8.505  -2.695  0.00  0.00    -0.296 N 
ATOM      4  C   UNL     1      -4.580   8.770  -3.909  0.00  0.00    +0.115 C 
ATOM      5  C   UNL     1      -5.314   7.443  -4.184  0.00  0.00    -0.004 C 
ATOM      6  C   UNL     1      -6.729   7.716  -4.684  0.00  0.00    -0.010 C 
ATOM      7  C   UNL     1      -6.659   8.386  -6.059  0.00  0.00    -0.082 C 
ATOM      8  N   UNL     1      -5.947   7.510  -6.997  0.00  0.00    +0.379 N 
ATOM      9  C   UNL     1      -4.558   7.329  -6.557  0.00  0.00    -0.082 C 
ATOM     10  C   UNL     1      -4.540   6.613  -5.203  0.00  0.00    -0.010 C 
ATOM     11  C   UNL     1      -2.520   8.928  -2.428  0.00  0.00    +0.249 C 
ATOM     12  O   UNL     1      -1.959   9.689  -3.191  0.00  0.00    -0.270 OA
ATOM     13  H   UNL     1      -6.407   6.613  -7.033  0.00  0.00    -0.086 HD
ATOM     14  H   UNL     1      -5.955   7.927  -7.916  0.00  0.00    -0.086 HD
ENDROOT
BRANCH  11  15
ATOM     15  C   UNL     1      -1.830   8.466  -1.206  0.00  0.00    +0.073 A 
ATOM     16  C   UNL     1      -2.553   8.249  -0.031  0.00  0.00    +0.036 A 
ATOM     17  C   UNL     1      -1.903   7.817   1.106  0.00  0.00    +0.042 A 
ATOM     18  C   UNL     1      -0.535   7.598   1.086  0.00  0.00    +0.023 A 
ATOM     19  C   UNL     1       0.189   7.811  -0.072  0.00  0.00    +0.040 A 
ATOM     20  C   UNL     1      -0.451   8.238  -1.221  0.00  0.00    +0.136 A 
ATOM     21  F   UNL     1       0.257   8.440  -2.355  0.00  0.00    -0.205 F 
ATOM     22 CL   UNL     1      -2.801   7.547   2.567  0.00  0.00    -0.084 Cl
ENDBRANCH  11  15
BRANCH   1  24
ATOM     23  N   UNL     1      -5.285   4.276  -3.232  0.00  0.00    -0.315 N 
ATOM     24  C   UNL     1      -4.621   5.404  -2.913  0.00  0.00    +0.218 C 
ATOM     25  O   UNL     1      -3.429   5.364  -2.693  0.00  0.00    -0.275 OA
ATOM     26  H   UNL     1      -6.239   4.308  -3.408  0.00  0.00    +0.149 HD
BRANCH  23  27
ATOM     27  C   UNL     1      -4.568   3.002  -3.313  0.00  0.00    +0.109 C 
BRANCH  27  28
ATOM     28  C   UNL     1      -5.547   1.888  -3.690  0.00  0.00    +0.056 C 
BRANCH  28  35
ATOM     29  C   UNL     1      -4.349  -1.328  -0.497  0.00  0.00    +0.001 A 
ATOM     30  C   UNL     1      -3.659  -2.401  -1.042  0.00  0.00    +0.002 A 
ATOM     31  C   UNL     1      -3.388  -2.449  -2.393  0.00  0.00    +0.026 A 
ATOM     32  C   UNL     1      -3.811  -1.413  -3.219  0.00  0.00    +0.047 A 
ATOM     33  N   UNL     1      -3.699  -1.173  -4.570  0.00  0.00    -0.360 N 
ATOM     34  C   UNL     1      -4.299   0.017  -4.882  0.00  0.00    +0.087 A 
ATOM     35  C   UNL     1      -4.809   0.577  -3.774  0.00  0.00    -0.021 A 
ATOM     36  C   UNL     1      -4.511  -0.328  -2.661  0.00  0.00    +0.003 A 
ATOM     37  C   UNL     1      -4.779  -0.302  -1.291  0.00  0.00    +0.010 A 
ATOM     38  H   UNL     1      -3.260  -1.759  -5.206  0.00  0.00    +0.165 HD
ENDBRANCH  28  35
ENDBRANCH  27  28
ENDBRANCH  23  27
ENDBRANCH   1  24
TORSDOF 5
