REMARK  Name = ZINC38133636
REMARK  6 active torsions:
REMARK  status: ('A' for Active; 'I' for Inactive)
REMARK    1  A    between atoms: C_1  and  N_2
REMARK    2  A    between atoms: N_2  and  C_3
REMARK    3  A    between atoms: C_3  and  C_5
REMARK    4  A    between atoms: C_3  and  C_15
REMARK    5  A    between atoms: C_5  and  C_6
REMARK    6  A    between atoms: C_9  and  N_12
REMARK                            x       y       z     vdW  Elec       q    Type
REMARK                         _______ _______ _______ _____ _____    ______ ____
ROOT
ATOM      1  C   UNL     1       0.690  -0.478  -1.207  0.00  0.00    -0.037 C 
ENDROOT
BRANCH   1   2
ATOM      2  C   UNL     1       2.137  -0.060  -1.158  0.00  0.00    -0.060 A 
ATOM      3  C   UNL     1       2.836  -0.127   0.033  0.00  0.00    +0.003 A 
ATOM      4  C   UNL     1       4.162   0.257   0.080  0.00  0.00    +0.021 A 
ATOM      5  C   UNL     1       4.792   0.708  -1.067  0.00  0.00    +0.059 A 
ATOM      6  C   UNL     1       4.093   0.775  -2.259  0.00  0.00    +0.059 A 
ATOM      7  C   UNL     1       2.766   0.385  -2.305  0.00  0.00    +0.023 A 
ATOM      8 CL   UNL     1       4.882   1.341  -3.698  0.00  0.00    -0.082 Cl
ATOM      9 CL   UNL     1       6.459   1.190  -1.009  0.00  0.00    -0.082 Cl
ENDBRANCH   1   2
BRANCH   1  11
ATOM     10  C   UNL     1      -0.018   1.465   0.010  0.00  0.00    -0.100 C 
ATOM     11  N   UNL     1       0.002  -0.004   0.002  0.00  0.00    +0.382 N 
ATOM     12  H   UNL     1       0.490  -0.338   0.820  0.00  0.00    -0.085 HD
ATOM     13  H   UNL     1      -0.945  -0.353   0.009  0.00  0.00    -0.085 HD
ENDBRANCH   1  11
BRANCH   1  14
ATOM     14  C   UNL     1       0.602  -2.004  -1.278  0.00  0.00    +0.024 C 
BRANCH  14  15
ATOM     15  C   UNL     1      -0.837  -2.416  -1.451  0.00  0.00    -0.048 A 
ATOM     16  C   UNL     1      -1.627  -2.649  -0.341  0.00  0.00    +0.006 A 
ATOM     17  C   UNL     1      -2.947  -3.027  -0.499  0.00  0.00    +0.033 A 
ATOM     18  C   UNL     1      -3.478  -3.173  -1.767  0.00  0.00    +0.126 A 
ATOM     19  C   UNL     1      -2.688  -2.940  -2.877  0.00  0.00    +0.033 A 
ATOM     20  C   UNL     1      -1.369  -2.557  -2.719  0.00  0.00    +0.006 A 
BRANCH  18  21
ATOM     21  N   UNL     1      -4.891  -3.579  -1.936  0.00  0.00    +0.056 N 
ATOM     22  O   UNL     1      -5.582  -3.784  -0.965  0.00  0.00    -0.126 OA
ATOM     23  O   UNL     1      -5.354  -3.707  -3.046  0.00  0.00    -0.126 OA
ENDBRANCH  18  21
ENDBRANCH  14  15
ENDBRANCH   1  14
TORSDOF 5
