REMARK  Name = ZINC37370548
REMARK  5 active torsions:
REMARK  status: ('A' for Active; 'I' for Inactive)
REMARK    1  A    between atoms: C_2  and  S_17
REMARK    2  A    between atoms: C_5  and  O_8
REMARK    3  A    between atoms: O_8  and  C_9
REMARK    4  A    between atoms: C_9  and  C_10
REMARK    5  A    between atoms: S_17  and  N_20
REMARK                            x       y       z     vdW  Elec       q    Type
REMARK                         _______ _______ _______ _____ _____    ______ ____
ROOT
ATOM      1  C   UNL     1      -0.017   1.378   0.010  0.00  0.00    +0.047 A 
ATOM      2  C   UNL     1       1.170   2.087   0.002  0.00  0.00    +0.107 A 
ATOM      3  C   UNL     1       2.379   1.416  -0.013  0.00  0.00    +0.047 A 
ATOM      4  C   UNL     1       2.404   0.034  -0.021  0.00  0.00    +0.062 A 
ATOM      5  C   UNL     1       1.214  -0.680  -0.013  0.00  0.00    +0.148 A 
ATOM      6  C   UNL     1       0.002  -0.004   0.002  0.00  0.00    +0.062 A 
ATOM      7 BR   UNL     1      -1.622  -0.973   0.013  0.00  0.00    -0.046 Br
ATOM      8 BR   UNL     1       4.058  -0.883  -0.043  0.00  0.00    -0.046 Br
ENDROOT
BRANCH   2   9
ATOM      9  S   UNL     1       1.143   3.849   0.011  0.00  0.00    +0.056 S 
ATOM     10  O   UNL     1       2.376   4.277  -0.549  0.00  0.00    -0.153 OA
ATOM     11  O   UNL     1      -0.114   4.238  -0.526  0.00  0.00    -0.153 OA
BRANCH   9  12
ATOM     12  N   UNL     1       1.150   4.330   1.596  0.00  0.00    -0.204 NA
ATOM     13  H   UNL     1       1.559   5.174   1.844  0.00  0.00    +0.144 HD
ATOM     14  H   UNL     1       0.745   3.769   2.275  0.00  0.00    +0.144 HD
ENDBRANCH   9  12
ENDBRANCH   2   9
BRANCH   5  15
ATOM     15  O   UNL     1       1.235  -2.039  -0.022  0.00  0.00    -0.489 OA
BRANCH  15  16
ATOM     16  C   UNL     1       1.258  -2.696   1.247  0.00  0.00    +0.232 C 
BRANCH  16  17
ATOM     17  C   UNL     1       1.280  -4.211   1.038  0.00  0.00    +0.027 C 
ATOM     18  C   UNL     1      -0.027  -4.653   0.377  0.00  0.00    +0.007 C 
ATOM     19  C   UNL     1      -0.005  -6.169   0.167  0.00  0.00    +0.000 C 
ATOM     20  C   UNL     1       0.145  -6.869   1.519  0.00  0.00    +0.000 C 
ATOM     21  C   UNL     1       1.452  -6.426   2.180  0.00  0.00    +0.000 C 
ATOM     22  C   UNL     1       1.430  -4.911   2.390  0.00  0.00    +0.007 C 
ENDBRANCH  16  17
ENDBRANCH  15  16
ENDBRANCH   5  15
TORSDOF 5
