REMARK  Name = ZINC14459636
REMARK  6 active torsions:
REMARK  status: ('A' for Active; 'I' for Inactive)
REMARK    1  A    between atoms: C_1  and  C_2
REMARK    2  A    between atoms: C_4  and  N_27
REMARK    3  A    between atoms: C_9  and  C_18
REMARK    4  A    between atoms: C_22  and  O_25
REMARK    5  A    between atoms: C_23  and  O_24
REMARK    6  A    between atoms: O_25  and  C_26
REMARK                            x       y       z     vdW  Elec       q    Type
REMARK                         _______ _______ _______ _____ _____    ______ ____
ROOT
ATOM      1  C   UNL     1      -2.383  -2.464   2.150  0.00  0.00    +0.046 C 
ATOM      2  C   UNL     1      -2.345  -2.196   0.667  0.00  0.00    -0.027 A 
ATOM      3  C   UNL     1      -3.501  -1.840   0.005  0.00  0.00    +0.038 A 
ATOM      4  C   UNL     1      -3.466  -1.595  -1.355  0.00  0.00    +0.127 A 
ATOM      5  C   UNL     1      -2.276  -1.705  -2.046  0.00  0.00    +0.038 A 
ATOM      6  C   UNL     1      -1.107  -2.061  -1.389  0.00  0.00    -0.017 A 
ATOM      7  C   UNL     1      -1.142  -2.309  -0.027  0.00  0.00    +0.034 A 
ATOM      8  N   UNL     1      -0.004  -2.676   0.690  0.00  0.00    -0.336 N 
ATOM      9  C   UNL     1       1.225  -2.188   0.064  0.00  0.00    +0.109 C 
ATOM     10  C   UNL     1       1.319  -2.732  -1.364  0.00  0.00    +0.029 C 
ATOM     11  C   UNL     1       0.154  -2.155  -2.197  0.00  0.00    +0.049 C 
ATOM     12  C   UNL     1       0.633  -0.778  -2.597  0.00  0.00    -0.023 C 
ATOM     13  C   UNL     1       1.939  -0.706  -2.519  0.00  0.00    -0.030 C 
ATOM     14  C   UNL     1       2.518  -2.030  -2.062  0.00  0.00    +0.033 C 
ATOM     15  H   UNL     1      -0.067  -2.369   1.649  0.00  0.00    +0.147 HD
ENDROOT
BRANCH   9  16
ATOM     16  C   UNL     1       1.208  -0.682   0.028  0.00  0.00    +0.018 A 
ATOM     17  C   UNL     1       0.009  -0.007  -0.118  0.00  0.00    +0.009 A 
ATOM     18  C   UNL     1      -0.010   1.374  -0.152  0.00  0.00    +0.004 A 
ATOM     19  C   UNL     1       1.169   2.088  -0.040  0.00  0.00    +0.049 A 
ATOM     20  C   UNL     1       2.373   1.419   0.107  0.00  0.00    +0.162 A 
ATOM     21  C   UNL     1       2.392   0.027   0.141  0.00  0.00    +0.163 A 
BRANCH  21  22
ATOM     22  O   UNL     1       3.572  -0.634   0.285  0.00  0.00    -0.503 OA
ATOM     23  H   UNL     1       4.060  -0.752  -0.542  0.00  0.00    +0.292 HD
ENDBRANCH  21  22
BRANCH  20  24
ATOM     24  O   UNL     1       3.533   2.120   0.217  0.00  0.00    -0.491 OA
ATOM     25  C   UNL     1       3.437   3.545   0.174  0.00  0.00    +0.277 C 
ENDBRANCH  20  24
ENDBRANCH   9  16
BRANCH   4  26
ATOM     26  N   UNL     1      -4.704  -1.214  -2.071  0.00  0.00    +0.056 N 
ATOM     27  O   UNL     1      -5.754  -1.116  -1.461  0.00  0.00    -0.126 OA
ATOM     28  O   UNL     1      -4.673  -0.998  -3.269  0.00  0.00    -0.126 OA
ENDBRANCH   4  26
TORSDOF 4
