REMARK  Name = ZINC06089739
REMARK  7 active torsions:
REMARK  status: ('A' for Active; 'I' for Inactive)
REMARK    1  A    between atoms: C_1  and  C_2
REMARK    2  A    between atoms: C_2  and  O_3
REMARK    3  A    between atoms: O_3  and  C_4
REMARK    4  A    between atoms: C_6  and  C_12
REMARK    5  A    between atoms: C_9  and  O_10
REMARK    6  A    between atoms: O_10  and  C_11
REMARK    7  A    between atoms: C_17  and  C_22
REMARK                            x       y       z     vdW  Elec       q    Type
REMARK                         _______ _______ _______ _____ _____    ______ ____
ROOT
ATOM      1  C   UNL     1      -2.871   2.225   2.447  0.00  0.00    +0.136 C 
ATOM      2  C   UNL     1      -2.015   1.771   1.290  0.00  0.00    +0.036 C 
ATOM      3  C   UNL     1      -0.684   1.596   1.314  0.00  0.00    +0.017 C 
ATOM      4  C   UNL     1       0.058   1.124   0.076  0.00  0.00    +0.060 C 
ATOM      5  C   UNL     1      -0.645   1.636  -1.180  0.00  0.00    +0.039 C 
ATOM      6  C   UNL     1      -2.077   1.088  -1.169  0.00  0.00    +0.088 C 
ATOM      7  C   UNL     1      -2.743   1.523   0.102  0.00  0.00    +0.163 C 
ATOM      8  O   UNL     1      -3.949   1.667   0.113  0.00  0.00    -0.292 OA
ATOM      9  N   UNL     1       0.103   1.798   2.405  0.00  0.00    -0.316 N 
ATOM     10  C   UNL     1       0.038   2.909   3.237  0.00  0.00    +0.052 A 
ATOM     11  C   UNL     1       1.105   3.777   3.395  0.00  0.00    +0.025 A 
ATOM     12  C   UNL     1       1.017   4.797   4.327  0.00  0.00    +0.002 A 
ATOM     13  C   UNL     1      -0.127   4.949   5.090  0.00  0.00    +0.002 A 
ATOM     14  C   UNL     1      -1.202   4.095   4.917  0.00  0.00    +0.025 A 
ATOM     15  C   UNL     1      -1.124   3.084   3.973  0.00  0.00    +0.049 A 
ATOM     16  N   UNL     1      -2.198   2.229   3.729  0.00  0.00    -0.331 N 
ATOM     17  H   UNL     1       0.757   1.115   2.618  0.00  0.00    +0.152 HD
ATOM     18  H   UNL     1      -2.498   1.627   4.428  0.00  0.00    +0.147 HD
ENDROOT
BRANCH   1  21
ATOM     19  C   UNL     1      -5.155   5.153   1.753  0.00  0.00    +0.162 A 
ATOM     20  C   UNL     1      -4.707   3.867   2.010  0.00  0.00    +0.055 A 
ATOM     21  C   UNL     1      -3.355   3.624   2.163  0.00  0.00    -0.019 A 
ATOM     22  C   UNL     1      -2.446   4.659   2.048  0.00  0.00    +0.009 A 
ATOM     23  C   UNL     1      -2.885   5.943   1.786  0.00  0.00    +0.050 A 
ATOM     24  C   UNL     1      -4.240   6.195   1.638  0.00  0.00    +0.162 A 
BRANCH  24  25
ATOM     25  O   UNL     1      -4.673   7.458   1.379  0.00  0.00    -0.491 OA
ATOM     26  C   UNL     1      -3.677   8.477   1.273  0.00  0.00    +0.277 C 
ENDBRANCH  24  25
BRANCH  19  27
ATOM     27  O   UNL     1      -6.485   5.396   1.608  0.00  0.00    -0.489 OA
BRANCH  27  29
ATOM     28  C   UNL     1      -8.811   4.743   1.547  0.00  0.00    +0.048 C 
ATOM     29  C   UNL     1      -7.366   4.279   1.740  0.00  0.00    +0.226 C 
ENDBRANCH  27  29
ENDBRANCH  19  27
ENDBRANCH   1  21
BRANCH   5  30
ATOM     30  C   UNL     1       0.081   1.147  -2.407  0.00  0.00    -0.006 A 
ATOM     31  C   UNL     1       0.661   1.865  -3.399  0.00  0.00    +0.011 A 
ATOM     32  C   UNL     1       1.281   1.196  -4.437  0.00  0.00    +0.008 A 
ATOM     33  C   UNL     1       1.281  -0.160  -4.438  0.00  0.00    +0.045 A 
ATOM     34  S   UNL     1       0.393  -0.530  -2.935  0.00  0.00    -0.101 S 
ENDBRANCH   5  30
TORSDOF 5
