REMARK  Name = ZINC01230540
REMARK  6 active torsions:
REMARK  status: ('A' for Active; 'I' for Inactive)
REMARK    1  A    between atoms: C_1  and  C_2
REMARK    2  A    between atoms: C_4  and  C_20
REMARK    3  A    between atoms: C_5  and  O_19
REMARK    4  A    between atoms: C_6  and  N_8
REMARK    5  A    between atoms: C_9  and  C_10
REMARK    6  A    between atoms: C_15  and  O_16
REMARK                            x       y       z     vdW  Elec       q    Type
REMARK                         _______ _______ _______ _____ _____    ______ ____
ROOT
ATOM      1  N   UNL     1       0.051  -2.787   2.367  0.00  0.00    -0.251 NA
ATOM      2  C   UNL     1      -0.594  -2.326   3.402  0.00  0.00    +0.123 C 
ENDROOT
BRANCH   1   8
ATOM      3  C   UNL     1       0.571   1.462  -0.008  0.00  0.00    +0.044 C 
ATOM      4  C   UNL     1       0.292  -0.019  -0.004  0.00  0.00    -0.048 A 
ATOM      5  C   UNL     1       0.027  -0.674  -1.195  0.00  0.00    +0.010 A 
ATOM      6  C   UNL     1      -0.231  -2.032  -1.203  0.00  0.00    -0.007 A 
ATOM      7  C   UNL     1      -0.225  -2.748  -0.018  0.00  0.00    +0.145 A 
ATOM      8  C   UNL     1       0.043  -2.089   1.190  0.00  0.00    +0.106 A 
ATOM      9  C   UNL     1       0.307  -0.718   1.185  0.00  0.00    +0.034 A 
ATOM     10  C   UNL     1      -0.520  -2.735  -2.505  0.00  0.00    +0.047 C 
BRANCH   7  11
ATOM     11  O   UNL     1      -0.479  -4.082  -0.025  0.00  0.00    -0.504 OA
ATOM     12  H   UNL     1       0.309  -4.632  -0.130  0.00  0.00    +0.292 HD
ENDBRANCH   7  11
ENDBRANCH   1   8
BRANCH   2  13
ATOM     13  C   UNL     1      -0.488  -3.012   4.699  0.00  0.00    +0.037 A 
ATOM     14  C   UNL     1      -1.183  -2.525   5.811  0.00  0.00    +0.028 A 
ATOM     15  C   UNL     1      -1.080  -3.173   7.023  0.00  0.00    +0.020 A 
ATOM     16  C   UNL     1      -0.291  -4.306   7.146  0.00  0.00    +0.039 A 
ATOM     17  C   UNL     1       0.400  -4.798   6.055  0.00  0.00    +0.084 A 
ATOM     18  C   UNL     1       0.304  -4.162   4.826  0.00  0.00    +0.144 A 
ATOM     19 CL   UNL     1       1.385  -6.218   6.221  0.00  0.00    -0.080 Cl
ATOM     20 BR   UNL     1      -2.019  -2.513   8.526  0.00  0.00    -0.050 Br
BRANCH  18  21
ATOM     21  O   UNL     1       0.979  -4.648   3.752  0.00  0.00    -0.505 OA
ATOM     22  H   UNL     1       1.870  -4.286   3.651  0.00  0.00    +0.292 HD
ENDBRANCH  18  21
ENDBRANCH   2  13
TORSDOF 4
