REMARK  Name = ZINC36061540
REMARK  13 active torsions:
REMARK  status: ('A' for Active; 'I' for Inactive)
REMARK    1  A    between atoms: C_1  and  C_2
REMARK    2  A    between atoms: C_2  and  C_3
REMARK    3  A    between atoms: C_2  and  C_4
REMARK    4  A    between atoms: C_2  and  C_5
REMARK    5  A    between atoms: C_8  and  C_11
REMARK    6  A    between atoms: C_11  and  N_12
REMARK    7  A    between atoms: N_12  and  C_13
REMARK    8  A    between atoms: N_12  and  C_23
REMARK    9  A    between atoms: C_13  and  C_14
REMARK   10  A    between atoms: C_23  and  C_24
REMARK   11  A    between atoms: C_26  and  C_29
REMARK   12  A    between atoms: N_31  and  C_32
REMARK   13  A    between atoms: C_32  and  C_33
REMARK                            x       y       z     vdW  Elec       q    Type
REMARK                         _______ _______ _______ _____ _____    ______ ____
ROOT
ATOM      1  N   UNL     1       2.602  -0.340  -5.954  0.00  0.00    +0.391 N 
ATOM      2  H   UNL     1       2.859   0.636  -5.936  0.00  0.00    -0.080 HD
ENDROOT
BRANCH   1   3
ATOM      3  C   UNL     1       2.914  -0.953  -4.656  0.00  0.00    -0.042 C 
BRANCH   3   7
ATOM      4  C   UNL     1       7.021  -0.262  -3.705  0.00  0.00    -0.042 A 
ATOM      5  C   UNL     1       6.073   0.700  -3.413  0.00  0.00    +0.004 A 
ATOM      6  C   UNL     1       4.744   0.476  -3.721  0.00  0.00    +0.002 A 
ATOM      7  C   UNL     1       4.363  -0.709  -4.322  0.00  0.00    -0.064 A 
ATOM      8  C   UNL     1       5.312  -1.671  -4.615  0.00  0.00    +0.002 A 
ATOM      9  C   UNL     1       6.641  -1.446  -4.311  0.00  0.00    +0.004 A 
BRANCH   4  11
ATOM     10  C   UNL     1       9.288   0.050  -4.661  0.00  0.00    +0.015 C 
ATOM     11  C   UNL     1       8.470  -0.019  -3.370  0.00  0.00    -0.013 C 
ATOM     12  C   UNL     1       8.990  -1.163  -2.496  0.00  0.00    +0.015 C 
ATOM     13  C   UNL     1       8.602   1.303  -2.611  0.00  0.00    +0.015 C 
ENDBRANCH   4  11
ENDBRANCH   3   7
ENDBRANCH   1   3
BRANCH   1  14
ATOM     14  C   UNL     1       1.162  -0.461  -6.219  0.00  0.00    -0.042 C 
BRANCH  14  15
ATOM     15  C   UNL     1       0.394   0.346  -5.204  0.00  0.00    -0.060 A 
ATOM     16  C   UNL     1      -0.107  -0.267  -4.071  0.00  0.00    +0.005 A 
ATOM     17  C   UNL     1      -0.811   0.469  -3.137  0.00  0.00    +0.050 A 
ATOM     18  C   UNL     1      -1.016   1.825  -3.334  0.00  0.00    +0.166 A 
ATOM     19  C   UNL     1      -0.511   2.443  -4.476  0.00  0.00    +0.166 A 
ATOM     20  C   UNL     1       0.199   1.700  -5.405  0.00  0.00    +0.051 A 
ATOM     21  O   UNL     1      -0.843   3.767  -4.438  0.00  0.00    -0.453 OA
ATOM     22  C   UNL     1      -1.903   3.870  -3.469  0.00  0.00    +0.466 C 
ATOM     23  O   UNL     1      -1.665   2.761  -2.582  0.00  0.00    -0.453 OA
ENDBRANCH  14  15
ENDBRANCH   1  14
BRANCH   1  24
ATOM     24  C   UNL     1       3.354  -1.025  -7.013  0.00  0.00    +0.020 C 
BRANCH  24  25
ATOM     25  C   UNL     1       3.129  -0.320  -8.326  0.00  0.00    +0.179 A 
ATOM     26  N   UNL     1       3.856   0.651  -8.793  0.00  0.00    -0.210 NA
ATOM     27  C   UNL     1       3.349   1.029  -9.998  0.00  0.00    +0.163 A 
ATOM     28  C   UNL     1       2.271   0.236 -10.244  0.00  0.00    +0.230 A 
ATOM     29  O   UNL     1       2.151  -0.599  -9.200  0.00  0.00    -0.449 OA
BRANCH  27  30
ATOM     30  C   UNL     1       3.869   2.096 -10.871  0.00  0.00    +0.266 C 
ATOM     31  O   UNL     1       3.322   2.337 -11.930  0.00  0.00    -0.268 OA
ATOM     32  N   UNL     1       4.952   2.806 -10.496  0.00  0.00    -0.308 N 
ATOM     33  H   UNL     1       5.389   2.614  -9.652  0.00  0.00    +0.149 HD
BRANCH  32  34
ATOM     34  C   UNL     1       5.469   3.867 -11.364  0.00  0.00    +0.136 C 
BRANCH  34  35
ATOM     35  C   UNL     1       6.694   4.510 -10.709  0.00  0.00    +0.135 C 
ATOM     36  C   UNL     1       7.173   5.707 -11.558  0.00  0.00    +0.035 C 
ATOM     37  C   UNL     1       8.718   5.576 -11.469  0.00  0.00    +0.031 C 
ATOM     38  C   UNL     1       8.881   4.036 -11.425  0.00  0.00    +0.160 C 
ATOM     39  O   UNL     1       7.766   3.562 -10.649  0.00  0.00    -0.375 OA
ENDBRANCH  34  35
ENDBRANCH  32  34
ENDBRANCH  27  30
ENDBRANCH  24  25
ENDBRANCH   1  24
TORSDOF 10
