REMARK  Name = ZINC14457040
REMARK  6 active torsions:
REMARK  status: ('A' for Active; 'I' for Inactive)
REMARK    1  A    between atoms: C_1  and  C_2
REMARK    2  A    between atoms: C_5  and  N_27
REMARK    3  A    between atoms: C_9  and  C_18
REMARK    4  A    between atoms: C_21  and  O_25
REMARK    5  A    between atoms: C_22  and  O_24
REMARK    6  A    between atoms: O_25  and  C_26
REMARK                            x       y       z     vdW  Elec       q    Type
REMARK                         _______ _______ _______ _____ _____    ______ ____
ROOT
ATOM      1  C   UNL     1       3.667   2.180  -0.030  0.00  0.00    +0.045 C 
ATOM      2  C   UNL     1       2.377   1.403  -0.020  0.00  0.00    -0.029 A 
ATOM      3  C   UNL     1       1.176   2.076  -0.080  0.00  0.00    +0.007 A 
ATOM      4  C   UNL     1      -0.016   1.376  -0.073  0.00  0.00    +0.033 A 
ATOM      5  C   UNL     1       0.002  -0.004   0.002  0.00  0.00    +0.132 A 
ATOM      6  C   UNL     1       1.198  -0.685   0.070  0.00  0.00    +0.011 A 
ATOM      7  C   UNL     1       2.412   0.009   0.049  0.00  0.00    +0.037 A 
ATOM      8  N   UNL     1       3.663  -0.603   0.084  0.00  0.00    -0.336 N 
ATOM      9  C   UNL     1       3.680  -2.064   0.258  0.00  0.00    +0.105 C 
ATOM     10  C   UNL     1       2.537  -2.624  -0.562  0.00  0.00    +0.029 C 
ATOM     11  C   UNL     1       1.249  -2.159   0.188  0.00  0.00    +0.051 C 
ATOM     12  C   UNL     1       0.204  -3.072  -0.360  0.00  0.00    -0.023 C 
ATOM     13  C   UNL     1       0.777  -4.204  -0.755  0.00  0.00    -0.030 C 
ATOM     14  C   UNL     1       2.287  -4.136  -0.511  0.00  0.00    +0.033 C 
ATOM     15  H   UNL     1       4.222  -0.327  -0.709  0.00  0.00    +0.147 HD
ENDROOT
BRANCH   9  16
ATOM     16  C   UNL     1       4.989  -2.625  -0.235  0.00  0.00    -0.023 A 
ATOM     17  C   UNL     1       5.560  -2.127  -1.392  0.00  0.00    +0.009 A 
ATOM     18  C   UNL     1       6.763  -2.635  -1.846  0.00  0.00    +0.050 A 
ATOM     19  C   UNL     1       7.394  -3.651  -1.147  0.00  0.00    +0.161 A 
ATOM     20  C   UNL     1       6.817  -4.156   0.014  0.00  0.00    +0.159 A 
ATOM     21  C   UNL     1       5.613  -3.639   0.466  0.00  0.00    +0.054 A 
BRANCH  20  22
ATOM     22  O   UNL     1       7.432  -5.154   0.703  0.00  0.00    -0.503 OA
ATOM     23  H   UNL     1       7.173  -6.043   0.424  0.00  0.00    +0.292 HD
ENDBRANCH  20  22
BRANCH  19  24
ATOM     24  O   UNL     1       8.575  -4.155  -1.596  0.00  0.00    -0.491 OA
ATOM     25  C   UNL     1       9.109  -3.589  -2.794  0.00  0.00    +0.277 C 
ENDBRANCH  19  24
ENDBRANCH   9  16
BRANCH   5  26
ATOM     26  N   UNL     1      -1.273  -0.756   0.010  0.00  0.00    +0.057 N 
ATOM     27  O   UNL     1      -2.113  -0.540  -0.845  0.00  0.00    -0.126 OA
ATOM     28  O   UNL     1      -1.482  -1.591   0.872  0.00  0.00    -0.126 OA
ENDBRANCH   5  26
TORSDOF 4
