REMARK  Name = ZINC09398857
REMARK  11 active torsions:
REMARK  status: ('A' for Active; 'I' for Inactive)
REMARK    1  A    between atoms: C_1  and  C_2
REMARK    2  A    between atoms: C_2  and  C_3
REMARK    3  A    between atoms: C_3  and  N_4
REMARK    4  A    between atoms: C_14  and  S_15
REMARK    5  A    between atoms: S_15  and  C_16
REMARK    6  A    between atoms: C_16  and  C_18
REMARK    7  A    between atoms: C_16  and  C_19
REMARK    8  A    between atoms: C_19  and  C_21
REMARK    9  A    between atoms: C_22  and  N_31
REMARK   10  A    between atoms: N_23  and  C_30
REMARK   11  A    between atoms: N_26  and  C_29
REMARK                            x       y       z     vdW  Elec       q    Type
REMARK                         _______ _______ _______ _____ _____    ______ ____
ROOT
ATOM      1  C   UNL     1       2.407  -2.857   0.102  0.00  0.00    +0.122 C 
ATOM      2  C   UNL     1       3.021  -3.016  -1.290  0.00  0.00    +0.028 C 
ENDROOT
BRANCH   1   3
ATOM      3  C   UNL     1       1.120  -2.080  -0.002  0.00  0.00    +0.185 C 
ATOM      4  O   UNL     1       0.060  -2.668  -0.084  0.00  0.00    -0.291 OA
BRANCH   3   5
ATOM      5  C   UNL     1       1.146  -0.669  -0.004  0.00  0.00    +0.121 A 
ATOM      6  C   UNL     1      -0.044   0.079   0.027  0.00  0.00    +0.116 A 
ATOM      7  N   UNL     1       0.032   1.442   0.024  0.00  0.00    -0.284 N 
ATOM      8  C   UNL     1       1.216   2.075  -0.007  0.00  0.00    +0.333 A 
ATOM      9  O   UNL     1       1.230   3.290  -0.009  0.00  0.00    -0.246 OA
ATOM     10  N   UNL     1       2.384   1.415  -0.038  0.00  0.00    -0.263 N 
ATOM     11  C   UNL     1       2.417   0.066  -0.038  0.00  0.00    +0.269 A 
ATOM     12  O   UNL     1       3.478  -0.530  -0.066  0.00  0.00    -0.267 OA
ATOM     13  C   UNL     1       3.640   2.168  -0.072  0.00  0.00    +0.157 C 
ATOM     14  C   UNL     1      -1.203   2.230   0.050  0.00  0.00    +0.155 C 
BRANCH   6  15
ATOM     15  N   UNL     1      -1.252  -0.546   0.060  0.00  0.00    -0.344 N 
ATOM     16  H   UNL     1      -2.065  -0.026   0.161  0.00  0.00    +0.144 HD
ATOM     17  H   UNL     1      -1.301  -1.512  -0.018  0.00  0.00    +0.144 HD
ENDBRANCH   6  15
ENDBRANCH   3   5
ENDBRANCH   1   3
BRANCH   1  18
ATOM     18  S   UNL     1       2.070  -4.491   0.804  0.00  0.00    -0.076 S 
BRANCH  18  29
ATOM     19  N   UNL     1       3.898  -6.360   1.460  0.00  0.00    -0.287 N 
ATOM     20  C   UNL     1       5.142  -6.874   1.592  0.00  0.00    +0.262 A 
ATOM     21  O   UNL     1       5.320  -7.990   2.043  0.00  0.00    -0.267 OA
ATOM     22  C   UNL     1       6.272  -6.035   1.168  0.00  0.00    +0.065 A 
ATOM     23  C   UNL     1       7.591  -6.477   1.264  0.00  0.00    +0.017 A 
ATOM     24  C   UNL     1       8.609  -5.660   0.857  0.00  0.00    +0.021 A 
ATOM     25  C   UNL     1       8.344  -4.394   0.348  0.00  0.00    +0.043 A 
ATOM     26  C   UNL     1       7.050  -3.933   0.242  0.00  0.00    +0.048 A 
ATOM     27  C   UNL     1       5.992  -4.749   0.652  0.00  0.00    +0.080 A 
ATOM     28  N   UNL     1       4.705  -4.341   0.562  0.00  0.00    -0.223 NA
ATOM     29  C   UNL     1       3.715  -5.106   0.951  0.00  0.00    +0.173 A 
ATOM     30 CL   UNL     1       9.659  -3.381  -0.160  0.00  0.00    -0.083 Cl
BRANCH  19  31
ATOM     31  C   UNL     1       2.737  -7.155   1.867  0.00  0.00    +0.127 C 
BRANCH  31  33
ATOM     32  C   UNL     1       1.033  -8.816   1.104  0.00  0.00    +0.005 C 
ATOM     33  C   UNL     1       2.245  -7.985   0.679  0.00  0.00    +0.018 C 
ENDBRANCH  31  33
ENDBRANCH  19  31
ENDBRANCH  18  29
ENDBRANCH   1  18
TORSDOF 7
