REMARK  Name = ZINC03342454
REMARK  10 active torsions:
REMARK  status: ('A' for Active; 'I' for Inactive)
REMARK    1  A    between atoms: C_1  and  C_2
REMARK    2  A    between atoms: C_2  and  O_3
REMARK    3  A    between atoms: O_3  and  C_4
REMARK    4  A    between atoms: C_4  and  C_6
REMARK    5  A    between atoms: C_10  and  N_11
REMARK    6  A    between atoms: C_12  and  C_14
REMARK    7  A    between atoms: C_14  and  C_16
REMARK    8  A    between atoms: C_14  and  N_65
REMARK    9  A    between atoms: C_22  and  N_65
REMARK   10  A    between atoms: C_29  and  C_33
REMARK                            x       y       z     vdW  Elec       q    Type
REMARK                         _______ _______ _______ _____ _____    ______ ____
ROOT
ATOM      1  N   UNL     1       4.396   0.911   1.997  0.00  0.00    -0.280 N 
ATOM      2  C   UNL     1       3.440   1.511   1.260  0.00  0.00    +0.208 C 
ATOM      3  O   UNL     1       3.533   2.690   0.991  0.00  0.00    -0.277 OA
ATOM      4  H   UNL     1       4.321  -0.032   2.212  0.00  0.00    +0.155 HD
ENDROOT
BRANCH   1   9
ATOM      5  C   UNL     1       6.557   1.205   3.214  0.00  0.00    +0.091 A 
ATOM      6  C   UNL     1       7.581   2.180   3.550  0.00  0.00    -0.021 A 
ATOM      7  C   UNL     1       7.365   3.427   3.078  0.00  0.00    -0.004 A 
ATOM      8  S   UNL     1       5.835   3.318   2.194  0.00  0.00    -0.077 S 
ATOM      9  C   UNL     1       5.485   1.640   2.447  0.00  0.00    +0.086 A 
ATOM     10  C   UNL     1       8.238   4.629   3.270  0.00  0.00    +0.046 C 
ATOM     11  C   UNL     1       9.233   4.329   4.400  0.00  0.00    -0.009 C 
ATOM     12  C   UNL     1       9.862   2.954   4.152  0.00  0.00    +0.008 C 
ATOM     13  C   UNL     1       8.819   1.858   4.378  0.00  0.00    +0.037 C 
ATOM     14  C   UNL     1      10.326   5.400   4.419  0.00  0.00    +0.008 C 
BRANCH   5  15
ATOM     15  C   UNL     1       6.655  -0.185   3.664  0.00  0.00    +0.342 C 
ATOM     16  O   UNL     1       7.223  -1.009   2.974  0.00  0.00    -0.245 OA
BRANCH  15  17
ATOM     17  O   UNL     1       6.114  -0.551   4.845  0.00  0.00    -0.461 OA
BRANCH  17  19
ATOM     18  C   UNL     1       5.579  -2.169   6.585  0.00  0.00    +0.048 C 
ATOM     19  C   UNL     1       6.249  -1.945   5.227  0.00  0.00    +0.229 C 
ENDBRANCH  17  19
ENDBRANCH  15  17
ENDBRANCH   5  15
ENDBRANCH   1   9
BRANCH   2  20
ATOM     20  C   UNL     1       2.256   0.718   0.771  0.00  0.00    +0.047 C 
BRANCH  20  21
ATOM     21  C   UNL     1       2.734  -0.411  -0.105  0.00  0.00    -0.053 A 
ATOM     22  C   UNL     1       3.067  -0.169  -1.424  0.00  0.00    +0.002 A 
ATOM     23  C   UNL     1       3.510  -1.204  -2.226  0.00  0.00    +0.000 A 
ATOM     24  C   UNL     1       3.612  -2.483  -1.711  0.00  0.00    +0.000 A 
ATOM     25  C   UNL     1       3.274  -2.726  -0.393  0.00  0.00    +0.000 A 
ATOM     26  C   UNL     1       2.835  -1.690   0.410  0.00  0.00    +0.002 A 
ENDBRANCH  20  21
BRANCH  20  27
ATOM     27  N   UNL     1       1.369   1.603  -0.007  0.00  0.00    +0.391 N 
ATOM     28  H   UNL     1       1.702   1.649  -0.977  0.00  0.00    -0.084 HD
ATOM     29  H   UNL     1       1.383   2.544   0.404  0.00  0.00    -0.084 HD
BRANCH  27  30
ATOM     30  C   UNL     1      -0.013   1.086   0.008  0.00  0.00    -0.070 C 
ATOM     31  C   UNL     1      -0.729   1.579   1.267  0.00  0.00    -0.016 C 
ATOM     32  C   UNL     1      -2.164   1.050   1.278  0.00  0.00    -0.002 C 
ATOM     33  C   UNL     1      -2.904   1.556   0.038  0.00  0.00    -0.000 C 
ATOM     34  C   UNL     1      -2.188   1.063  -1.221  0.00  0.00    -0.002 C 
ATOM     35  C   UNL     1      -0.753   1.593  -1.232  0.00  0.00    -0.016 C 
ENDBRANCH  27  30
ENDBRANCH  20  27
ENDBRANCH   2  20
TORSDOF 8
