REMARK  Name = ZINC65421549
REMARK  9 active torsions:
REMARK  status: ('A' for Active; 'I' for Inactive)
REMARK    1  A    between atoms: C_1  and  C_2
REMARK    2  A    between atoms: C_2  and  N_3
REMARK    3  A    between atoms: N_3  and  C_4
REMARK    4  A    between atoms: C_4  and  C_5
REMARK    5  A    between atoms: C_5  and  C_6
REMARK    6  A    between atoms: C_12  and  C_16
REMARK    7  A    between atoms: C_17  and  C_19
REMARK    8  A    between atoms: C_22  and  C_25
REMARK    9  A    between atoms: C_30  and  O_31
REMARK                            x       y       z     vdW  Elec       q    Type
REMARK                         _______ _______ _______ _____ _____    ______ ____
ROOT
ATOM      1  N   UNL     1       0.514  -0.699  -1.209  0.00  0.00    -0.300 N 
ATOM      2  C   UNL     1      -0.199  -0.611  -2.349  0.00  0.00    +0.246 C 
ATOM      3  O   UNL     1       0.318  -0.889  -3.410  0.00  0.00    -0.273 OA
ENDROOT
BRANCH   2   4
ATOM      4  C   UNL     1      -1.639  -0.167  -2.306  0.00  0.00    +0.238 C 
ATOM      5  C   UNL     1      -1.737   1.344  -2.417  0.00  0.00    +0.041 C 
ATOM      6  C   UNL     1      -2.441   1.538  -3.550  0.00  0.00    +0.095 C 
ATOM      7  N   UNL     1      -2.767   0.347  -4.116  0.00  0.00    -0.153 NA
ATOM      8  N   UNL     1      -2.366  -0.644  -3.494  0.00  0.00    -0.170 NA
BRANCH   6   9
ATOM      9  C   UNL     1      -2.807   2.866  -4.101  0.00  0.00    +0.043 A 
ATOM     10  C   UNL     1      -3.544   2.955  -5.280  0.00  0.00    +0.014 A 
ATOM     11  C   UNL     1      -3.883   4.192  -5.789  0.00  0.00    +0.001 A 
ATOM     12  C   UNL     1      -3.493   5.346  -5.132  0.00  0.00    +0.004 A 
ATOM     13  C   UNL     1      -2.762   5.269  -3.962  0.00  0.00    +0.046 A 
ATOM     14  C   UNL     1      -2.420   4.033  -3.437  0.00  0.00    +0.126 A 
BRANCH  14  15
ATOM     15  O   UNL     1      -1.706   3.957  -2.284  0.00  0.00    -0.506 OA
ATOM     16  H   UNL     1      -0.748   3.949  -2.414  0.00  0.00    +0.292 HD
ENDBRANCH  14  15
ENDBRANCH   6   9
ENDBRANCH   2   4
BRANCH   1  18
ATOM     17  C   UNL     1       0.069   0.987   0.506  0.00  0.00    +0.024 C 
ATOM     18  C   UNL     1      -0.139  -0.469   0.083  0.00  0.00    +0.104 C 
ENDBRANCH   1  18
BRANCH   1  19
ATOM     19  C   UNL     1       1.941  -1.025  -1.260  0.00  0.00    +0.111 C 
BRANCH  19  20
ATOM     20  C   UNL     1       2.120  -2.543  -1.188  0.00  0.00    +0.065 C 
BRANCH  20  21
ATOM     21  C   UNL     1       3.611  -2.883  -1.242  0.00  0.00    +0.175 C 
ATOM     22  N   UNL     1       4.281  -2.408  -0.025  0.00  0.00    -0.363 N 
ATOM     23  C   UNL     1       4.787  -3.446   0.573  0.00  0.00    +0.060 A 
ATOM     24  C   UNL     1       5.560  -3.607   1.813  0.00  0.00    +0.027 A 
ATOM     25  C   UNL     1       5.961  -4.838   2.192  0.00  0.00    +0.005 A 
ATOM     26  C   UNL     1       5.670  -5.993   1.445  0.00  0.00    -0.048 A 
ATOM     27  C   UNL     1       4.968  -5.958   0.294  0.00  0.00    +0.030 A 
ATOM     28  C   UNL     1       4.479  -4.670  -0.217  0.00  0.00    +0.060 A 
ATOM     29  N   UNL     1       3.795  -4.340  -1.275  0.00  0.00    -0.363 N 
ATOM     30  C   UNL     1       6.162  -7.324   1.951  0.00  0.00    +0.044 C 
ATOM     31  H   UNL     1       4.336  -1.488   0.277  0.00  0.00    +0.162 HD
ATOM     32  H   UNL     1       3.465  -4.944  -1.958  0.00  0.00    +0.162 HD
ENDBRANCH  20  21
ENDBRANCH  19  20
ENDBRANCH   1  19
TORSDOF 7
