REMARK  Name = ZINC09827754
REMARK  2 active torsions:
REMARK  status: ('A' for Active; 'I' for Inactive)
REMARK    1  A    between atoms: C_6  and  N_7
REMARK    2  A    between atoms: C_8  and  C_10
REMARK                            x       y       z     vdW  Elec       q    Type
REMARK                         _______ _______ _______ _____ _____    ______ ____
ROOT
ATOM      1  N   UNL     1      -2.112   5.794  -0.958  0.00  0.00    -0.285 N 
ATOM      2  C   UNL     1      -1.512   5.123   0.045  0.00  0.00    +0.223 C 
ATOM      3  O   UNL     1      -0.994   5.731   0.957  0.00  0.00    -0.275 OA
ATOM      4  H   UNL     1      -2.468   5.311  -1.720  0.00  0.00    +0.155 HD
ENDROOT
BRANCH   1  10
ATOM      5  C   UNL     1      -1.209   7.942  -0.322  0.00  0.00    +0.025 A 
ATOM      6  C   UNL     1      -1.319   9.318  -0.263  0.00  0.00    +0.025 A 
ATOM      7  C   UNL     1      -2.443   9.947  -0.780  0.00  0.00    +0.037 A 
ATOM      8  C   UNL     1      -3.457   9.193  -1.356  0.00  0.00    -0.024 A 
ATOM      9  C   UNL     1      -3.346   7.819  -1.420  0.00  0.00    +0.028 A 
ATOM     10  C   UNL     1      -2.224   7.189  -0.898  0.00  0.00    +0.034 A 
ATOM     11  C   UNL     1      -4.676   9.880  -1.917  0.00  0.00    +0.046 C 
ATOM     12  C   UNL     1      -5.000  11.114  -1.074  0.00  0.00    +0.101 C 
ATOM     13  C   UNL     1      -3.756  11.934  -0.866  0.00  0.00    +0.218 C 
ATOM     14  O   UNL     1      -3.835  13.144  -0.827  0.00  0.00    -0.275 OA
ATOM     15  N   UNL     1      -2.557  11.341  -0.722  0.00  0.00    -0.285 N 
ATOM     16  H   UNL     1      -1.766  11.883  -0.576  0.00  0.00    +0.155 HD
ENDBRANCH   1  10
BRANCH   2  17
ATOM     17  C   UNL     1      -1.484   3.616   0.032  0.00  0.00    +0.048 C 
ATOM     18  C   UNL     1      -0.759   3.130  -1.225  0.00  0.00    +0.019 C 
ATOM     19  C   UNL     1      -0.731   1.600  -1.238  0.00  0.00    -0.009 C 
ATOM     20  C   UNL     1       0.005   1.093   0.004  0.00  0.00    +0.007 C 
ATOM     21  C   UNL     1      -0.719   1.579   1.261  0.00  0.00    -0.009 C 
ATOM     22  C   UNL     1      -0.748   3.109   1.274  0.00  0.00    +0.019 C 
ATOM     23  C   UNL     1      -2.152   1.042   1.263  0.00  0.00    +0.007 C 
ATOM     24  C   UNL     1      -2.888   1.550   0.021  0.00  0.00    -0.009 C 
ATOM     25  C   UNL     1      -2.164   1.064  -1.236  0.00  0.00    +0.007 C 
ATOM     26  C   UNL     1      -2.917   3.079   0.034  0.00  0.00    +0.019 C 
ENDBRANCH   2  17
TORSDOF 2
