REMARK  Name = ZINC49570370
REMARK  5 active torsions:
REMARK  status: ('A' for Active; 'I' for Inactive)
REMARK    1  A    between atoms: C_1  and  C_2
REMARK    2  A    between atoms: C_4  and  C_23
REMARK    3  A    between atoms: C_7  and  C_8
REMARK    4  A    between atoms: C_8  and  N_10
REMARK    5  A    between atoms: N_11  and  C_12
REMARK                            x       y       z     vdW  Elec       q    Type
REMARK                         _______ _______ _______ _____ _____    ______ ____
ROOT
ATOM      1  C   UNL     1      -0.045   1.502  -0.075  0.00  0.00    +0.044 C 
ATOM      2  C   UNL     1      -0.008  -0.004  -0.039  0.00  0.00    -0.036 A 
ATOM      3  C   UNL     1      -0.095  -0.744  -1.205  0.00  0.00    +0.027 A 
ATOM      4  C   UNL     1      -0.058  -2.125  -1.140  0.00  0.00    +0.041 A 
ATOM      5  N   UNL     1       0.058  -2.752   0.014  0.00  0.00    -0.237 NA
ATOM      6  C   UNL     1       0.144  -2.095   1.160  0.00  0.00    +0.129 A 
ATOM      7  C   UNL     1       0.121  -0.689   1.175  0.00  0.00    +0.046 A 
ATOM      8  N   UNL     1       0.265  -2.794   2.347  0.00  0.00    -0.327 N 
ATOM      9  C   UNL     1      -0.153  -2.928  -2.412  0.00  0.00    +0.065 C 
ATOM     10  H   UNL     1       0.262  -2.318   3.192  0.00  0.00    +0.148 HD
ENDROOT
BRANCH   8  11
ATOM     11  C   UNL     1       0.397  -4.253   2.328  0.00  0.00    +0.056 C 
ATOM     12  C   UNL     1       1.889  -4.675   2.236  0.00  0.00    +0.002 C 
ATOM     13  C   UNL     1       2.018  -5.899   3.175  0.00  0.00    -0.077 C 
ATOM     14  N   UNL     1       0.664  -6.179   3.657  0.00  0.00    +0.383 N 
ATOM     15  C   UNL     1      -0.025  -4.861   3.677  0.00  0.00    -0.048 C 
ATOM     16  C   UNL     1      -1.520  -5.129   3.785  0.00  0.00    -0.014 C 
ATOM     17  C   UNL     1      -1.767  -5.824   5.134  0.00  0.00    -0.003 C 
ATOM     18  C   UNL     1      -0.912  -7.084   5.254  0.00  0.00    -0.019 C 
ATOM     19  C   UNL     1       0.569  -6.765   4.986  0.00  0.00    -0.078 C 
ATOM     20  H   UNL     1       0.192  -6.776   2.995  0.00  0.00    -0.081 HD
ENDBRANCH   8  11
BRANCH   7  21
ATOM     21  C   UNL     1       0.223   0.049   2.445  0.00  0.00    +0.080 C 
ATOM     22  S   UNL     1       1.745   0.619   2.984  0.00  0.00    -0.035 S 
BRANCH  21  23
ATOM     23  N   UNL     1      -0.881   0.276   3.184  0.00  0.00    -0.352 N 
ATOM     24  H   UNL     1      -1.752   0.018   2.845  0.00  0.00    +0.143 HD
ATOM     25  H   UNL     1      -0.804   0.697   4.054  0.00  0.00    +0.143 HD
ENDBRANCH  21  23
ENDBRANCH   7  21
TORSDOF 3
