REMARK  Name = ZINC39667271
REMARK  8 active torsions:
REMARK  status: ('A' for Active; 'I' for Inactive)
REMARK    1  A    between atoms: C_1  and  S_2
REMARK    2  A    between atoms: S_2  and  C_3
REMARK    3  A    between atoms: C_6  and  C_9
REMARK    4  A    between atoms: C_9  and  N_10
REMARK    5  A    between atoms: C_11  and  C_13
REMARK    6  A    between atoms: C_24  and  C_26
REMARK    7  A    between atoms: C_29  and  O_32
REMARK    8  A    between atoms: O_32  and  C_33
REMARK                            x       y       z     vdW  Elec       q    Type
REMARK                         _______ _______ _______ _____ _____    ______ ____
ROOT
ATOM      1  C   UNL     1       0.919  -2.054   8.841  0.00  0.00    +0.100 C 
ATOM      2  C   UNL     1       0.105  -3.236   8.269  0.00  0.00    +0.121 C 
ATOM      3  N   UNL     1       0.715  -4.440   8.879  0.00  0.00    -0.296 N 
ATOM      4  C   UNL     1       1.013  -4.037  10.274  0.00  0.00    +0.115 C 
ATOM      5  C   UNL     1       1.511  -2.582  10.158  0.00  0.00    -0.004 C 
ATOM      6  C   UNL     1       1.002  -1.755  11.335  0.00  0.00    -0.010 C 
ATOM      7  C   UNL     1       1.649  -2.262  12.627  0.00  0.00    -0.082 C 
ATOM      8  N   UNL     1       3.110  -2.154  12.521  0.00  0.00    +0.379 N 
ATOM      9  C   UNL     1       3.599  -3.025  11.445  0.00  0.00    -0.082 C 
ATOM     10  C   UNL     1       3.035  -2.550  10.104  0.00  0.00    -0.010 C 
ATOM     11  C   UNL     1       0.946  -5.634   8.296  0.00  0.00    +0.247 C 
ATOM     12  O   UNL     1       0.760  -5.774   7.103  0.00  0.00    -0.270 OA
ATOM     13  H   UNL     1       3.360  -1.198  12.318  0.00  0.00    -0.086 HD
ATOM     14  H   UNL     1       3.531  -2.431  13.395  0.00  0.00    -0.086 HD
ENDROOT
BRANCH  11  15
ATOM     15  C   UNL     1       1.424  -6.770   9.108  0.00  0.00    +0.037 A 
ATOM     16  C   UNL     1       1.228  -6.775  10.491  0.00  0.00    +0.016 A 
ATOM     17  C   UNL     1       1.675  -7.837  11.245  0.00  0.00    +0.047 A 
ATOM     18  C   UNL     1       2.321  -8.904  10.631  0.00  0.00    +0.130 A 
ATOM     19  C   UNL     1       2.518  -8.903   9.255  0.00  0.00    +0.047 A 
ATOM     20  C   UNL     1       2.069  -7.847   8.494  0.00  0.00    +0.016 A 
BRANCH  18  21
ATOM     21  O   UNL     1       2.761  -9.949  11.377  0.00  0.00    -0.406 OA
BRANCH  21  22
ATOM     22  C   UNL     1       3.417 -11.011  10.682  0.00  0.00    +0.575 C 
ATOM     23  F   UNL     1       4.549 -10.513  10.029  0.00  0.00    -0.133 F 
ATOM     24  F   UNL     1       3.803 -11.998  11.596  0.00  0.00    -0.133 F 
ATOM     25  F   UNL     1       2.541 -11.564   9.741  0.00  0.00    -0.133 F 
ENDBRANCH  21  22
ENDBRANCH  18  21
ENDBRANCH  11  15
BRANCH   1  27
ATOM     26  N   UNL     1       2.535  -0.421   7.923  0.00  0.00    -0.311 N 
ATOM     27  C   UNL     1       2.022  -1.667   7.889  0.00  0.00    +0.218 C 
ATOM     28  O   UNL     1       2.446  -2.476   7.091  0.00  0.00    -0.275 OA
ATOM     29  H   UNL     1       2.196   0.226   8.561  0.00  0.00    +0.149 HD
BRANCH  26  30
ATOM     30  C   UNL     1       3.607  -0.045   6.998  0.00  0.00    +0.139 C 
BRANCH  30  34
ATOM     31  C   UNL     1       4.722   4.023   7.687  0.00  0.00    +0.008 A 
ATOM     32  C   UNL     1       5.360   2.999   8.377  0.00  0.00    +0.015 A 
ATOM     33  C   UNL     1       4.997   1.686   8.152  0.00  0.00    +0.006 A 
ATOM     34  C   UNL     1       4.000   1.389   7.241  0.00  0.00    -0.030 A 
ATOM     35  C   UNL     1       3.363   2.405   6.551  0.00  0.00    +0.006 A 
ATOM     36  C   UNL     1       3.717   3.721   6.776  0.00  0.00    +0.015 A 
BRANCH  31  38
ATOM     37  C   UNL     1       6.502   5.590   9.210  0.00  0.00    +0.090 C 
ATOM     38  S   UNL     1       5.182   5.700   7.971  0.00  0.00    -0.129 S 
ENDBRANCH  31  38
ENDBRANCH  30  34
ENDBRANCH  26  30
ENDBRANCH   1  27
TORSDOF 7
