REMARK  Name = ZINC18321749
REMARK  6 active torsions:
REMARK  status: ('A' for Active; 'I' for Inactive)
REMARK    1  A    between atoms: C_3  and  N_28
REMARK    2  A    between atoms: C_4  and  N_25
REMARK    3  A    between atoms: C_6  and  C_7
REMARK    4  A    between atoms: C_7  and  O_9
REMARK    5  A    between atoms: O_9  and  C_10
REMARK    6  A    between atoms: C_10  and  C_11
REMARK                            x       y       z     vdW  Elec       q    Type
REMARK                         _______ _______ _______ _____ _____    ______ ____
ROOT
ATOM      1  C   UNL     1      -4.593   3.380   0.331  0.00  0.00    +0.308 C 
ENDROOT
BRANCH   1   2
ATOM      2  C   UNL     1      -5.979   2.813   0.152  0.00  0.00    +0.170 A 
ATOM      3  N   UNL     1      -6.393   2.489  -1.060  0.00  0.00    -0.214 NA
ATOM      4  C   UNL     1      -7.595   1.983  -1.281  0.00  0.00    +0.128 A 
ATOM      5  C   UNL     1      -8.478   1.790  -0.183  0.00  0.00    +0.051 A 
ATOM      6  C   UNL     1      -9.841   1.256  -0.186  0.00  0.00    -0.025 A 
ATOM      7  C   UNL     1     -10.469   1.175   1.005  0.00  0.00    -0.004 A 
ATOM      8  S   UNL     1      -9.302   1.796   2.186  0.00  0.00    -0.073 S 
ATOM      9  C   UNL     1      -7.968   2.164   1.077  0.00  0.00    +0.114 A 
ATOM     10  N   UNL     1      -6.752   2.658   1.209  0.00  0.00    -0.221 NA
ATOM     11  C   UNL     1     -11.854   0.669   1.267  0.00  0.00    +0.043 C 
ATOM     12  C   UNL     1     -12.605   0.594  -0.070  0.00  0.00    +0.005 C 
ATOM     13  C   UNL     1     -11.710  -0.105  -1.097  0.00  0.00    +0.005 C 
ATOM     14  C   UNL     1     -10.537   0.805  -1.467  0.00  0.00    +0.037 C 
ATOM     15  N   UNL     1      -7.989   1.651  -2.565  0.00  0.00    -0.343 N 
ATOM     16  H   UNL     1      -8.930   1.520  -2.764  0.00  0.00    +0.144 HD
ATOM     17  H   UNL     1      -7.326   1.549  -3.265  0.00  0.00    +0.144 HD
ENDBRANCH   1   2
BRANCH   1  18
ATOM     18  O   UNL     1      -3.654   2.297   0.563  0.00  0.00    -0.453 OA
BRANCH  18  19
ATOM     19  C   UNL     1      -2.362   2.636   0.744  0.00  0.00    +0.340 C 
ATOM     20  O   UNL     1      -2.030   3.804   0.708  0.00  0.00    -0.245 OA
BRANCH  19  26
ATOM     21  C   UNL     1      -1.733   0.244   1.021  0.00  0.00    +0.017 A 
ATOM     22  C   UNL     1      -0.786  -0.728   1.252  0.00  0.00    +0.026 A 
ATOM     23  C   UNL     1       0.546  -0.371   1.437  0.00  0.00    +0.055 A 
ATOM     24  C   UNL     1       0.923   0.969   1.395  0.00  0.00    +0.147 A 
ATOM     25  C   UNL     1      -0.012   1.939   1.173  0.00  0.00    +0.049 A 
ATOM     26  C   UNL     1      -1.353   1.589   0.985  0.00  0.00    +0.061 A 
BRANCH  24  27
ATOM     27  N   UNL     1       2.342   1.343   1.593  0.00  0.00    +0.058 N 
ATOM     28  O   UNL     1       2.658   2.517   1.662  0.00  0.00    -0.126 OA
ATOM     29  O   UNL     1       3.193   0.477   1.687  0.00  0.00    -0.126 OA
ENDBRANCH  24  27
BRANCH  23  30
ATOM     30  N   UNL     1       1.503  -1.353   1.664  0.00  0.00    -0.356 N 
ATOM     31  H   UNL     1       1.348  -2.261   1.359  0.00  0.00    +0.142 HD
ATOM     32  H   UNL     1       2.326  -1.132   2.128  0.00  0.00    +0.142 HD
ENDBRANCH  23  30
ENDBRANCH  19  26
ENDBRANCH  18  19
ENDBRANCH   1  18
TORSDOF 6
