REMARK  Name = ZINC63574187
REMARK  4 active torsions:
REMARK  status: ('A' for Active; 'I' for Inactive)
REMARK    1  A    between atoms: C_7  and  C_10
REMARK    2  A    between atoms: C_10  and  C_11
REMARK    3  A    between atoms: C_11  and  N_12
REMARK    4  A    between atoms: C_15  and  C_22
REMARK                            x       y       z     vdW  Elec       q    Type
REMARK                         _______ _______ _______ _____ _____    ______ ____
ROOT
ATOM      1  N   UNL     1      -0.425  -4.821  -1.459  0.00  0.00    -0.328 N 
ATOM      2  C   UNL     1      -0.792  -5.414  -2.651  0.00  0.00    +0.135 A 
ATOM      3  C   UNL     1      -1.602  -6.560  -2.665  0.00  0.00    +0.108 A 
ATOM      4  C   UNL     1      -2.236  -7.390  -1.634  0.00  0.00    +0.126 A 
ATOM      5  N   UNL     1      -2.884  -8.343  -2.254  0.00  0.00    -0.075 NA
ATOM      6  O   UNL     1      -2.718  -8.196  -3.650  0.00  0.00    -0.334 OA
ATOM      7  C   UNL     1      -1.948  -7.125  -3.903  0.00  0.00    +0.264 A 
ATOM      8  N   UNL     1      -1.493  -6.552  -5.014  0.00  0.00    -0.198 NA
ATOM      9  C   UNL     1      -0.734  -5.478  -4.955  0.00  0.00    +0.227 A 
ATOM     10  N   UNL     1      -0.390  -4.910  -3.815  0.00  0.00    -0.220 NA
ATOM     11  H   UNL     1      -0.656  -5.242  -0.616  0.00  0.00    +0.147 HD
ENDROOT
BRANCH   4  12
ATOM     12  C   UNL     1      -2.157  -7.187  -0.168  0.00  0.00    +0.004 A 
ATOM     13  C   UNL     1      -2.345  -5.916   0.374  0.00  0.00    +0.011 A 
ATOM     14  C   UNL     1      -2.271  -5.733   1.739  0.00  0.00    +0.020 A 
ATOM     15  C   UNL     1      -2.009  -6.808   2.571  0.00  0.00    +0.041 A 
ATOM     16  C   UNL     1      -1.821  -8.072   2.039  0.00  0.00    +0.020 A 
ATOM     17  C   UNL     1      -1.900  -8.267   0.675  0.00  0.00    +0.011 A 
ATOM     18 CL   UNL     1      -1.917  -6.570   4.288  0.00  0.00    -0.084 Cl
ENDBRANCH   4  12
BRANCH   1  19
ATOM     19  C   UNL     1       0.313  -3.555  -1.467  0.00  0.00    +0.107 C 
BRANCH  19  20
ATOM     20  C   UNL     1       0.593  -3.119  -0.027  0.00  0.00    +0.052 C 
BRANCH  20  27
ATOM     21  C   UNL     1      -0.754   1.256   0.300  0.00  0.00    +0.001 A 
ATOM     22  C   UNL     1       0.303   2.175   0.246  0.00  0.00    +0.002 A 
ATOM     23  C   UNL     1       1.592   1.796   0.111  0.00  0.00    +0.026 A 
ATOM     24  C   UNL     1       1.930   0.418   0.016  0.00  0.00    +0.043 A 
ATOM     25  N   UNL     1       3.084  -0.190  -0.119  0.00  0.00    -0.380 N 
ATOM     26  C   UNL     1       2.847  -1.637  -0.165  0.00  0.00    +0.144 C 
ATOM     27  C   UNL     1       1.351  -1.817  -0.035  0.00  0.00    -0.040 C 
ATOM     28  C   UNL     1       0.832  -0.572   0.070  0.00  0.00    -0.001 A 
ATOM     29  C   UNL     1      -0.542  -0.078   0.219  0.00  0.00    +0.010 A 
ATOM     30  H   UNL     1       3.949   0.244  -0.179  0.00  0.00    +0.160 HD
ENDBRANCH  20  27
ENDBRANCH  19  20
ENDBRANCH   1  19
TORSDOF 4
