REMARK  Name = ZINC16892141
REMARK  5 active torsions:
REMARK  status: ('A' for Active; 'I' for Inactive)
REMARK    1  A    between atoms: C_1  and  C_2
REMARK    2  A    between atoms: C_2  and  C_3
REMARK    3  A    between atoms: C_3  and  C_5
REMARK    4  A    between atoms: C_3  and  N_13
REMARK    5  A    between atoms: C_24  and  C_28
REMARK                            x       y       z     vdW  Elec       q    Type
REMARK                         _______ _______ _______ _____ _____    ______ ____
ROOT
ATOM      1  N   UNL     1       2.495   4.089   0.000  0.00  0.00    -0.198 N 
ATOM      2  C   UNL     1       2.909   4.870  -1.016  0.00  0.00    +0.279 A 
ATOM      3  O   UNL     1       2.151   5.158  -1.927  0.00  0.00    -0.265 OA
ATOM      4  C   UNL     1       4.258   5.361  -1.005  0.00  0.00    +0.079 A 
ATOM      5  C   UNL     1       4.913   6.219  -1.990  0.00  0.00    -0.023 A 
ATOM      6  C   UNL     1       6.204   6.544  -1.757  0.00  0.00    -0.004 A 
ATOM      7  S   UNL     1       6.612   5.737  -0.233  0.00  0.00    -0.071 S 
ATOM      8  C   UNL     1       5.046   4.964   0.087  0.00  0.00    +0.138 A 
ATOM      9  N   UNL     1       4.578   4.186   1.058  0.00  0.00    -0.123 NA
ATOM     10  N   UNL     1       3.364   3.753   1.043  0.00  0.00    -0.061 NA
ATOM     11  C   UNL     1       7.090   7.401  -2.608  0.00  0.00    +0.046 C 
ATOM     12  C   UNL     1       6.431   7.562  -3.985  0.00  0.00    -0.009 C 
ATOM     13  C   UNL     1       4.959   7.934  -3.786  0.00  0.00    +0.008 C 
ATOM     14  C   UNL     1       4.191   6.734  -3.231  0.00  0.00    +0.037 C 
ATOM     15  C   UNL     1       7.142   8.669  -4.767  0.00  0.00    +0.008 C 
ENDROOT
BRANCH   1  16
ATOM     16  C   UNL     1       1.121   3.582   0.011  0.00  0.00    +0.198 C 
BRANCH  16  17
ATOM     17  C   UNL     1       1.141   2.075   0.002  0.00  0.00    +0.243 C 
ATOM     18  O   UNL     1       2.200   1.483  -0.011  0.00  0.00    -0.273 OA
ATOM     19  N   UNL     1      -0.017   1.386   0.010  0.00  0.00    -0.263 N 
ATOM     20  C   UNL     1       0.002  -0.004   0.002  0.00  0.00    +0.164 A 
ATOM     21  N   UNL     1       1.039  -0.819  -0.018  0.00  0.00    -0.233 NA
ATOM     22  C   UNL     1       0.880  -2.127  -0.018  0.00  0.00    +0.120 A 
ATOM     23  C   UNL     1      -0.381  -2.625  -0.008  0.00  0.00    +0.068 A 
ATOM     24  S   UNL     1      -1.334  -1.113   0.009  0.00  0.00    -0.061 S 
ATOM     25  H   UNL     1      -0.863   1.859   0.016  0.00  0.00    +0.157 HD
ENDBRANCH  16  17
BRANCH  16  27
ATOM     26  C   UNL     1       0.274   5.599   1.218  0.00  0.00    +0.006 C 
ATOM     27  C   UNL     1       0.405   4.076   1.269  0.00  0.00    +0.033 C 
ENDBRANCH  16  27
ENDBRANCH   1  16
TORSDOF 3
