REMARK  Name = ZINC46761312
REMARK  8 active torsions:
REMARK  status: ('A' for Active; 'I' for Inactive)
REMARK    1  A    between atoms: C_1  and  C_2
REMARK    2  A    between atoms: C_5  and  C_30
REMARK    3  A    between atoms: N_8  and  C_10
REMARK    4  A    between atoms: C_10  and  C_11
REMARK    5  A    between atoms: C_11  and  C_12
REMARK    6  A    between atoms: C_12  and  C_13
REMARK    7  A    between atoms: C_13  and  N_14
REMARK    8  A    between atoms: C_23  and  C_25
REMARK                            x       y       z     vdW  Elec       q    Type
REMARK                         _______ _______ _______ _____ _____    ______ ____
ROOT
ATOM      1  N   UNL     1       6.024  -1.576   5.201  0.00  0.00    -0.299 N 
ATOM      2  C   UNL     1       7.367  -1.581   5.093  0.00  0.00    +0.302 C 
ATOM      3  O   UNL     1       7.900  -1.093   4.115  0.00  0.00    -0.253 OA
ATOM      4  N   UNL     1       8.120  -2.125   6.069  0.00  0.00    -0.283 N 
ATOM      5  C   UNL     1       7.492  -2.861   7.176  0.00  0.00    +0.128 C 
ATOM      6  C   UNL     1       8.110  -4.263   7.246  0.00  0.00    +0.127 C 
ATOM      7  N   UNL     1       9.574  -4.132   7.223  0.00  0.00    -0.292 N 
ATOM      8  C   UNL     1      10.202  -3.397   6.116  0.00  0.00    +0.127 C 
ATOM      9  C   UNL     1       9.584  -2.000   6.043  0.00  0.00    +0.128 C 
ATOM     10  C   UNL     1      10.327  -4.677   8.199  0.00  0.00    +0.282 C 
ATOM     11  O   UNL     1      11.521  -4.450   8.244  0.00  0.00    -0.267 OA
ATOM     12  H   UNL     1       5.596  -2.026   5.947  0.00  0.00    +0.150 HD
ENDROOT
BRANCH  10  13
ATOM     13  C   UNL     1       9.706  -5.543   9.207  0.00  0.00    +0.189 A 
ATOM     14  C   UNL     1      10.319  -6.048  10.318  0.00  0.00    +0.054 A 
ATOM     15  C   UNL     1       9.358  -6.816  10.994  0.00  0.00    +0.042 A 
ATOM     16  C   UNL     1       8.216  -6.747  10.276  0.00  0.00    +0.196 A 
ATOM     17  O   UNL     1       8.428  -5.975   9.202  0.00  0.00    -0.458 OA
ENDBRANCH  10  13
BRANCH   1  18
ATOM     18  C   UNL     1       5.210  -0.892   4.194  0.00  0.00    +0.105 C 
BRANCH  18  19
ATOM     19  C   UNL     1       3.729  -1.037   4.549  0.00  0.00    +0.017 C 
BRANCH  19  20
ATOM     20  C   UNL     1       2.879  -0.322   3.497  0.00  0.00    -0.017 C 
BRANCH  20  21
ATOM     21  C   UNL     1       1.398  -0.467   3.853  0.00  0.00    -0.079 C 
BRANCH  21  27
ATOM     22  C   UNL     1       0.366   3.870   1.830  0.00  0.00    +0.005 C 
ATOM     23  C   UNL     1       0.075   2.369   1.781  0.00  0.00    -0.031 C 
ATOM     24  C   UNL     1      -1.422   2.131   1.995  0.00  0.00    +0.003 C 
ATOM     25  C   UNL     1      -1.691   0.623   2.022  0.00  0.00    -0.031 C 
ATOM     26  C   UNL     1      -0.839  -0.021   3.117  0.00  0.00    -0.076 C 
ATOM     27  N   UNL     1       0.583   0.219   2.842  0.00  0.00    +0.380 N 
ATOM     28  C   UNL     1       0.863   1.659   2.885  0.00  0.00    -0.076 C 
ATOM     29  C   UNL     1      -3.172   0.373   2.312  0.00  0.00    +0.005 C 
ATOM     30  H   UNL     1       0.812  -0.140   1.927  0.00  0.00    -0.082 HD
ENDBRANCH  21  27
ENDBRANCH  20  21
ENDBRANCH  19  20
ENDBRANCH  18  19
ENDBRANCH   1  18
TORSDOF 6
