REMARK  Name = ZINC64591809
REMARK  5 active torsions:
REMARK  status: ('A' for Active; 'I' for Inactive)
REMARK    1  A    between atoms: C_1  and  N_2
REMARK    2  A    between atoms: C_5  and  N_14
REMARK    3  A    between atoms: N_9  and  C_12
REMARK    4  A    between atoms: N_14  and  S_15
REMARK    5  A    between atoms: S_15  and  C_18
REMARK                            x       y       z     vdW  Elec       q    Type
REMARK                         _______ _______ _______ _____ _____    ______ ____
ROOT
ATOM      1  N   UNL     1      -4.751  -1.407   0.019  0.00  0.00    -0.215 N 
ATOM      2  H   UNL     1      -5.330  -1.970   0.557  0.00  0.00    +0.174 HD
ENDROOT
BRANCH   1   7
ATOM      3  C   UNL     1       0.162   1.095  -0.468  0.00  0.00    +0.154 C 
ATOM      4  N   UNL     1       0.064  -0.366  -0.520  0.00  0.00    -0.295 N 
ATOM      5  C   UNL     1      -1.109  -1.109  -0.411  0.00  0.00    +0.071 A 
ATOM      6  C   UNL     1      -2.440  -0.763  -0.234  0.00  0.00    +0.054 A 
ATOM      7  C   UNL     1      -3.407  -1.754  -0.160  0.00  0.00    +0.068 A 
ATOM      8  C   UNL     1      -3.043  -3.093  -0.264  0.00  0.00    +0.065 A 
ATOM      9  C   UNL     1      -1.718  -3.441  -0.440  0.00  0.00    +0.050 A 
ATOM     10  C   UNL     1      -0.747  -2.454  -0.515  0.00  0.00    +0.071 A 
ATOM     11  N   UNL     1       0.637  -2.486  -0.684  0.00  0.00    -0.295 N 
ATOM     12  C   UNL     1       1.093  -1.218  -0.688  0.00  0.00    +0.330 A 
ATOM     13  O   UNL     1       2.258  -0.893  -0.821  0.00  0.00    -0.246 OA
ATOM     14  C   UNL     1       1.455  -3.691  -0.837  0.00  0.00    +0.154 C 
ATOM     15 CL   UNL     1      -4.258  -4.330  -0.171  0.00  0.00    -0.082 Cl
ENDBRANCH   1   7
BRANCH   1  16
ATOM     16  S   UNL     1      -5.353  -0.035  -0.686  0.00  0.00    +0.072 S 
ATOM     17  O   UNL     1      -6.752  -0.030  -0.435  0.00  0.00    -0.150 OA
ATOM     18  O   UNL     1      -4.504   1.032  -0.289  0.00  0.00    -0.150 OA
BRANCH  16  19
ATOM     19  C   UNL     1      -5.155  -0.215  -2.428  0.00  0.00    +0.109 A 
ATOM     20  C   UNL     1      -3.995   0.219  -3.043  0.00  0.00    +0.029 A 
ATOM     21  C   UNL     1      -3.849   0.077  -4.407  0.00  0.00    +0.006 A 
ATOM     22  C   UNL     1      -4.857  -0.500  -5.169  0.00  0.00    -0.044 A 
ATOM     23  C   UNL     1      -6.009  -0.937  -4.556  0.00  0.00    -0.042 A 
ATOM     24  C   UNL     1      -6.154  -0.795  -3.182  0.00  0.00    +0.032 A 
ATOM     25  C   UNL     1      -7.136  -1.586  -5.317  0.00  0.00    +0.035 C 
ATOM     26  C   UNL     1      -7.019  -1.286  -6.810  0.00  0.00    +0.005 C 
ATOM     27  C   UNL     1      -5.596  -1.634  -7.263  0.00  0.00    +0.005 C 
ATOM     28  C   UNL     1      -4.634  -0.616  -6.654  0.00  0.00    +0.035 C 
ENDBRANCH  16  19
ENDBRANCH   1  16
TORSDOF 3
