REMARK  Name = ZINC29134519
REMARK  9 active torsions:
REMARK  status: ('A' for Active; 'I' for Inactive)
REMARK    1  A    between atoms: C_1  and  C_2
REMARK    2  A    between atoms: C_6  and  C_8
REMARK    3  A    between atoms: C_8  and  C_9
REMARK    4  A    between atoms: C_9  and  C_10
REMARK    5  A    between atoms: N_16  and  C_27
REMARK    6  A    between atoms: N_19  and  C_20
REMARK    7  A    between atoms: N_23  and  C_26
REMARK    8  A    between atoms: C_27  and  C_28
REMARK    9  A    between atoms: C_32  and  C_34
REMARK                            x       y       z     vdW  Elec       q    Type
REMARK                         _______ _______ _______ _____ _____    ______ ____
ROOT
ATOM      1  C   UNL     1       1.518  -3.844   4.222  0.00  0.00    -0.045 A 
ATOM      2  C   UNL     1       1.510  -3.152   5.425  0.00  0.00    +0.006 A 
ATOM      3  C   UNL     1       1.525  -3.832   6.622  0.00  0.00    +0.028 A 
ATOM      4  C   UNL     1       1.549  -5.229   6.626  0.00  0.00    +0.066 A 
ATOM      5  C   UNL     1       1.557  -5.924   5.406  0.00  0.00    +0.069 A 
ATOM      6  C   UNL     1       1.536  -5.223   4.210  0.00  0.00    +0.031 A 
ATOM      7  N   UNL     1       1.581  -7.271   5.729  0.00  0.00    -0.307 N 
ATOM      8  C   UNL     1       1.587  -7.360   7.092  0.00  0.00    +0.175 A 
ATOM      9  N   UNL     1       1.568  -6.160   7.616  0.00  0.00    -0.327 N 
ATOM     10  N   UNL     1       1.608  -8.537   7.809  0.00  0.00    -0.314 N 
ATOM     11  H   UNL     1       1.621  -9.389   7.344  0.00  0.00    +0.149 HD
ATOM     12  H   UNL     1       1.567  -5.965   8.567  0.00  0.00    +0.169 HD
ENDROOT
BRANCH  10  13
ATOM     13  C   UNL     1       1.612  -8.503   9.274  0.00  0.00    +0.070 C 
ATOM     14  C   UNL     1       3.050  -8.352   9.778  0.00  0.00    +0.003 C 
ATOM     15  C   UNL     1       3.055  -8.397  11.308  0.00  0.00    -0.077 C 
ATOM     16  N   UNL     1       2.507  -9.679  11.765  0.00  0.00    +0.378 N 
ATOM     17  C   UNL     1       1.106  -9.800  11.346  0.00  0.00    -0.077 C 
ATOM     18  C   UNL     1       1.026  -9.809   9.818  0.00  0.00    +0.003 C 
ATOM     19  C   UNL     1       2.587  -9.749  13.230  0.00  0.00    -0.096 C 
ATOM     20  H   UNL     1       3.044 -10.435  11.365  0.00  0.00    -0.082 HD
ENDBRANCH  10  13
BRANCH   1  21
ATOM     21  C   UNL     1       1.502  -3.083   2.921  0.00  0.00    +0.040 C 
BRANCH  21  22
ATOM     22  C   UNL     1       0.054  -2.845   2.489  0.00  0.00    +0.040 C 
BRANCH  22  28
ATOM     23  C   UNL     1      -0.018   1.503   0.010  0.00  0.00    +0.044 C 
ATOM     24  C   UNL     1       0.002  -0.004   0.002  0.00  0.00    -0.050 A 
ATOM     25  C   UNL     1       0.006  -0.689  -1.199  0.00  0.00    +0.003 A 
ATOM     26  C   UNL     1       0.025  -2.071  -1.207  0.00  0.00    +0.001 A 
ATOM     27  C   UNL     1       0.040  -2.768  -0.013  0.00  0.00    +0.003 A 
ATOM     28  C   UNL     1       0.037  -2.084   1.188  0.00  0.00    -0.047 A 
ATOM     29  C   UNL     1       0.023  -0.702   1.195  0.00  0.00    +0.007 A 
ENDBRANCH  22  28
ENDBRANCH  21  22
ENDBRANCH   1  21
BRANCH   7  30
ATOM     30  C   UNL     1       1.597  -8.391   4.786  0.00  0.00    +0.182 C 
BRANCH  30  31
ATOM     31  C   UNL     1       3.023  -8.751   4.458  0.00  0.00    +0.083 A 
ATOM     32  C   UNL     1       3.724  -7.998   3.527  0.00  0.00    +0.200 A 
ATOM     33  C   UNL     1       5.041  -8.342   3.234  0.00  0.00    +0.054 A 
ATOM     34  C   UNL     1       5.599  -9.428   3.888  0.00  0.00    +0.024 A 
ATOM     35  C   UNL     1       4.836 -10.130   4.803  0.00  0.00    +0.013 A 
ATOM     36  N   UNL     1       3.593  -9.775   5.062  0.00  0.00    -0.358 N 
ATOM     37  C   UNL     1       5.436 -11.313   5.519  0.00  0.00    +0.063 C 
ATOM     38  O   UNL     1       3.134  -6.941   2.910  0.00  0.00    -0.286 OA
ATOM     39  H   UNL     1       3.083 -10.283   5.712  0.00  0.00    +0.165 HD
ENDBRANCH  30  31
ENDBRANCH   7  30
TORSDOF 6
