REMARK  Name = ZINC23973390
REMARK  6 active torsions:
REMARK  status: ('A' for Active; 'I' for Inactive)
REMARK    1  A    between atoms: C_7  and  C_11
REMARK    2  A    between atoms: C_11  and  C_12
REMARK    3  A    between atoms: C_12  and  N_13
REMARK    4  A    between atoms: C_14  and  C_16
REMARK    5  A    between atoms: N_21  and  C_24
REMARK    6  A    between atoms: C_24  and  C_25
REMARK                            x       y       z     vdW  Elec       q    Type
REMARK                         _______ _______ _______ _____ _____    ______ ____
ROOT
ATOM      1  C   UNL     1       8.988  -3.471  -0.274  0.00  0.00    +0.302 C 
ATOM      2  O   UNL     1      10.157  -3.217  -0.070  0.00  0.00    -0.265 OA
ATOM      3  N   UNL     1       8.045  -2.537  -0.043  0.00  0.00    -0.291 N 
ATOM      4  C   UNL     1       8.407  -1.215   0.490  0.00  0.00    +0.123 C 
ATOM      5  C   UNL     1       7.521  -0.921   1.706  0.00  0.00    +0.104 C 
ATOM      6  N   UNL     1       6.110  -1.073   1.328  0.00  0.00    -0.295 NA
ATOM      7  C   UNL     1       5.811  -2.455   0.930  0.00  0.00    +0.104 C 
ATOM      8  C   UNL     1       6.626  -2.812  -0.318  0.00  0.00    +0.123 C 
ENDROOT
BRANCH   1  10
ATOM      9  N   UNL     1       9.518  -5.796  -0.890  0.00  0.00    -0.307 N 
ATOM     10  C   UNL     1       8.594  -4.820  -0.783  0.00  0.00    +0.299 C 
ATOM     11  O   UNL     1       7.443  -5.038  -1.099  0.00  0.00    -0.265 OA
ATOM     12  H   UNL     1      10.562  -5.599  -0.604  0.00  0.00    +0.149 HD
BRANCH   9  13
ATOM     13  C   UNL     1       9.132  -7.118  -1.388  0.00  0.00    +0.109 C 
BRANCH  13  14
ATOM     14  C   UNL     1      10.359  -8.033  -1.411  0.00  0.00    +0.056 C 
BRANCH  14  21
ATOM     15  C   UNL     1       9.918  -9.835  -5.716  0.00  0.00    +0.001 A 
ATOM     16  C   UNL     1       9.518 -11.164  -5.708  0.00  0.00    +0.002 A 
ATOM     17  C   UNL     1       9.293 -11.822  -4.519  0.00  0.00    +0.026 A 
ATOM     18  C   UNL     1       9.467 -11.150  -3.313  0.00  0.00    +0.047 A 
ATOM     19  C   UNL     1       9.871  -9.803  -3.327  0.00  0.00    +0.003 A 
ATOM     20  C   UNL     1      10.094  -9.155  -4.544  0.00  0.00    +0.010 A 
ATOM     21  C   UNL     1       9.962  -9.393  -1.924  0.00  0.00    -0.021 A 
ATOM     22  C   UNL     1       9.630 -10.461  -1.181  0.00  0.00    +0.087 A 
ATOM     23  N   UNL     1       9.326 -11.518  -1.994  0.00  0.00    -0.360 N 
ATOM     24  H   UNL     1       9.009 -12.540  -1.739  0.00  0.00    +0.165 HD
ENDBRANCH  14  21
ENDBRANCH  13  14
ENDBRANCH   9  13
ENDBRANCH   1  10
BRANCH   6  25
ATOM     25  C   UNL     1       5.224  -0.635   2.414  0.00  0.00    +0.119 C 
BRANCH  25  26
ATOM     26  C   UNL     1       3.805  -0.572   1.911  0.00  0.00    -0.030 A 
ATOM     27  C   UNL     1       2.989  -1.684   2.005  0.00  0.00    +0.009 A 
ATOM     28  C   UNL     1       1.687  -1.631   1.544  0.00  0.00    +0.050 A 
ATOM     29  C   UNL     1       1.196  -0.462   0.986  0.00  0.00    +0.166 A 
ATOM     30  C   UNL     1       2.017   0.659   0.891  0.00  0.00    +0.167 A 
ATOM     31  C   UNL     1       3.321   0.599   1.356  0.00  0.00    +0.054 A 
ATOM     32  O   UNL     1       1.309   1.671   0.312  0.00  0.00    -0.453 OA
ATOM     33  C   UNL     1      -0.074   1.287   0.426  0.00  0.00    +0.466 C 
ATOM     34  O   UNL     1      -0.027  -0.151   0.466  0.00  0.00    -0.453 OA
ENDBRANCH  25  26
ENDBRANCH   6  25
TORSDOF 6
