REMARK  Name = ZINC40007662
REMARK  8 active torsions:
REMARK  status: ('A' for Active; 'I' for Inactive)
REMARK    1  A    between atoms: C_1  and  C_2
REMARK    2  A    between atoms: C_2  and  C_4
REMARK    3  A    between atoms: C_2  and  O_32
REMARK    4  A    between atoms: C_4  and  N_5
REMARK    5  A    between atoms: N_5  and  C_6
REMARK    6  A    between atoms: C_7  and  C_17
REMARK    7  A    between atoms: N_21  and  C_25
REMARK    8  A    between atoms: C_25  and  C_26
REMARK                            x       y       z     vdW  Elec       q    Type
REMARK                         _______ _______ _______ _____ _____    ______ ____
ROOT
ATOM      1  C   UNL     1      -2.288  -2.581   0.364  0.00  0.00    +0.134 A 
ATOM      2  C   UNL     1      -2.472  -3.968   0.154  0.00  0.00    +0.081 A 
ATOM      3  C   UNL     1      -3.794  -4.470   0.101  0.00  0.00    +0.267 A 
ATOM      4  O   UNL     1      -4.000  -5.658  -0.078  0.00  0.00    -0.267 OA
ATOM      5  N   UNL     1      -4.825  -3.610   0.252  0.00  0.00    -0.268 N 
ATOM      6  C   UNL     1      -6.102  -4.084   0.202  0.00  0.00    +0.096 A 
ATOM      7  C   UNL     1      -7.156  -3.251   0.350  0.00  0.00    +0.018 A 
ATOM      8  C   UNL     1      -6.945  -1.881   0.556  0.00  0.00    +0.005 A 
ATOM      9  C   UNL     1      -5.672  -1.396   0.608  0.00  0.00    +0.047 A 
ATOM     10  C   UNL     1      -4.587  -2.279   0.453  0.00  0.00    +0.142 A 
ATOM     11  N   UNL     1      -3.346  -1.796   0.509  0.00  0.00    -0.214 NA
ENDROOT
BRANCH   2  12
ATOM     12  C   UNL     1      -1.362  -4.832   0.000  0.00  0.00    +0.037 C 
ATOM     13  C   UNL     1      -0.439  -4.589  -0.975  0.00  0.00    +0.077 C 
ATOM     14  C   UNL     1       0.795  -5.250  -1.238  0.00  0.00    +0.258 C 
ATOM     15  O   UNL     1       1.168  -6.180  -0.546  0.00  0.00    -0.269 OA
ATOM     16  N   UNL     1       1.524  -4.824  -2.255  0.00  0.00    -0.253 N 
ATOM     17  C   UNL     1       1.111  -3.792  -3.024  0.00  0.00    +0.121 C 
ATOM     18  S   UNL     1       1.885  -3.083  -4.376  0.00  0.00    -0.027 S 
ATOM     19  S   UNL     1      -0.453  -3.362  -2.275  0.00  0.00    -0.061 S 
BRANCH  16  20
ATOM     20  C   UNL     1       2.800  -5.481  -2.554  0.00  0.00    +0.146 C 
BRANCH  20  21
ATOM     21  C   UNL     1       2.563  -6.634  -3.532  0.00  0.00    +0.136 C 
ATOM     22  C   UNL     1       3.896  -7.365  -3.834  0.00  0.00    +0.035 C 
ATOM     23  C   UNL     1       3.375  -8.768  -4.247  0.00  0.00    +0.031 C 
ATOM     24  C   UNL     1       2.134  -8.936  -3.345  0.00  0.00    +0.160 C 
ATOM     25  O   UNL     1       1.715  -7.628  -2.935  0.00  0.00    -0.375 OA
ENDBRANCH  20  21
ENDBRANCH  16  20
ENDBRANCH   2  12
BRANCH   1  26
ATOM     26  N   UNL     1      -1.018  -2.051   0.423  0.00  0.00    -0.326 N 
ATOM     27  H   UNL     1      -0.245  -2.629   0.316  0.00  0.00    +0.148 HD
BRANCH  26  28
ATOM     28  C   UNL     1      -0.833  -0.615   0.646  0.00  0.00    +0.134 C 
BRANCH  28  30
ATOM     29  C   UNL     1       0.856   1.209   0.902  0.00  0.00    +0.039 C 
ATOM     30  C   UNL     1       0.662  -0.291   0.668  0.00  0.00    +0.128 C 
BRANCH  30  31
ATOM     31  O   UNL     1       1.293  -1.022   1.722  0.00  0.00    -0.391 OA
ATOM     32  H   UNL     1       2.244  -0.865   1.795  0.00  0.00    +0.210 HD
ENDBRANCH  30  31
ENDBRANCH  28  30
ENDBRANCH  26  28
ENDBRANCH   1  26
TORSDOF 7
