REMARK  Name = ZINC05464877
REMARK  13 active torsions:
REMARK  status: ('A' for Active; 'I' for Inactive)
REMARK    1  A    between atoms: C_1  and  C_2
REMARK    2  A    between atoms: C_2  and  C_26
REMARK    3  A    between atoms: C_4  and  N_9
REMARK    4  A    between atoms: C_6  and  C_7
REMARK    5  A    between atoms: C_6  and  C_8
REMARK    6  A    between atoms: C_10  and  C_12
REMARK    7  A    between atoms: C_12  and  C_13
REMARK    8  A    between atoms: C_13  and  C_14
REMARK    9  A    between atoms: C_17  and  C_24
REMARK   10  A    between atoms: C_17  and  C_25
REMARK   11  A    between atoms: C_19  and  N_71
REMARK   12  A    between atoms: C_21  and  C_22
REMARK   13  A    between atoms: C_21  and  C_23
REMARK                            x       y       z     vdW  Elec       q    Type
REMARK                         _______ _______ _______ _____ _____    ______ ____
ROOT
ATOM      1  C   UNL     1      -3.155   0.563   4.907  0.00  0.00    +0.105 C 
ENDROOT
BRANCH   1   3
ATOM      2  N   UNL     1      -3.268   0.408   7.373  0.00  0.00    -0.313 N 
ATOM      3  C   UNL     1      -2.577   0.788   6.280  0.00  0.00    +0.214 C 
ATOM      4  O   UNL     1      -1.489   1.312   6.402  0.00  0.00    -0.276 OA
ATOM      5  H   UNL     1      -4.137  -0.010   7.276  0.00  0.00    +0.149 HD
BRANCH   2   9
ATOM      6  C   UNL     1      -2.809   2.370  11.288  0.00  0.00    -0.010 C 
ATOM      7  C   UNL     1      -3.283   0.920  11.134  0.00  0.00    -0.072 C 
ATOM      8  C   UNL     1      -3.842   0.712   9.729  0.00  0.00    +0.009 C 
ATOM      9  C   UNL     1      -2.704   0.628   8.711  0.00  0.00    +0.070 C 
ATOM     10  C   UNL     1      -1.809  -0.555   9.081  0.00  0.00    +0.009 C 
ATOM     11  C   UNL     1      -1.227  -0.364  10.479  0.00  0.00    -0.072 C 
ATOM     12  C   UNL     1      -0.107   0.682  10.429  0.00  0.00    -0.010 C 
ATOM     13  C   UNL     1      -0.582  -1.704  10.900  0.00  0.00    -0.010 C 
ATOM     14  C   UNL     1      -4.443   0.710  12.132  0.00  0.00    -0.010 C 
ATOM     15  N   UNL     1      -2.224  -0.044  11.536  0.00  0.00    +0.386 N 
ATOM     16  H   UNL     1      -2.681  -0.920  11.816  0.00  0.00    -0.084 HD
ATOM     17  H   UNL     1      -1.720   0.352  12.338  0.00  0.00    -0.084 HD
ENDBRANCH   2   9
ENDBRANCH   1   3
BRANCH   1  18
ATOM     18  C   UNL     1      -2.177   1.081   3.850  0.00  0.00    +0.105 C 
BRANCH  18  19
ATOM     19  C   UNL     1      -2.755   0.856   2.477  0.00  0.00    +0.217 C 
ATOM     20  O   UNL     1      -3.686   0.092   2.329  0.00  0.00    -0.276 OA
ATOM     21  N   UNL     1      -2.238   1.502   1.414  0.00  0.00    -0.291 N 
ATOM     22  C   UNL     1      -3.071   1.796   0.238  0.00  0.00    +0.031 C 
ATOM     23  C   UNL     1      -2.985   3.295  -0.064  0.00  0.00    +0.009 C 
ATOM     24  C   UNL     1      -1.517   3.697  -0.217  0.00  0.00    -0.071 C 
ATOM     25  C   UNL     1      -0.772   3.426   1.092  0.00  0.00    +0.009 C 
ATOM     26  C   UNL     1      -0.832   1.928   1.408  0.00  0.00    +0.031 C 
ATOM     27  C   UNL     1      -0.064   1.147   0.339  0.00  0.00    +0.031 C 
ATOM     28  C   UNL     1      -0.208   1.668   2.780  0.00  0.00    +0.031 C 
ATOM     29  C   UNL     1      -4.524   1.413   0.530  0.00  0.00    +0.031 C 
ATOM     30  C   UNL     1      -2.559   1.000  -0.964  0.00  0.00    +0.031 C 
BRANCH  24  33
ATOM     31  H   UNL     1      -0.473   5.419  -0.647  0.00  0.00    -0.090 HD
ATOM     32  H   UNL     1      -1.970   5.344  -1.367  0.00  0.00    -0.090 HD
ATOM     33  N   UNL     1      -1.443   5.138  -0.520  0.00  0.00    +0.380 N 
ATOM     34  H   UNL     1      -1.846   5.668   0.262  0.00  0.00    -0.090 HD
ENDBRANCH  24  33
ENDBRANCH  18  19
ENDBRANCH   1  18
TORSDOF 5
