REMARK  Name = ZINC64423250
REMARK  6 active torsions:
REMARK  status: ('A' for Active; 'I' for Inactive)
REMARK    1  A    between atoms: C_1  and  C_2
REMARK    2  A    between atoms: C_6  and  N_8
REMARK    3  A    between atoms: C_11  and  C_14
REMARK    4  A    between atoms: C_14  and  C_15
REMARK    5  A    between atoms: N_17  and  C_18
REMARK    6  A    between atoms: C_18  and  C_19
REMARK                            x       y       z     vdW  Elec       q    Type
REMARK                         _______ _______ _______ _____ _____    ______ ____
ROOT
ATOM      1  C   UNL     1       0.827  -6.718   5.557  0.00  0.00    +0.219 C 
ATOM      2  O   UNL     1       1.648  -5.870   5.276  0.00  0.00    -0.275 OA
ATOM      3  N   UNL     1       0.935  -7.403   6.713  0.00  0.00    -0.311 N 
ATOM      4  H   UNL     1       0.278  -8.081   6.937  0.00  0.00    +0.149 HD
ENDROOT
BRANCH   1   5
ATOM      5  C   UNL     1      -0.313  -7.004   4.614  0.00  0.00    +0.151 C 
BRANCH   5   9
ATOM      6  N   UNL     1       0.051  -2.637   2.415  0.00  0.00    -0.279 N 
ATOM      7  C   UNL     1      -0.035  -4.021   2.467  0.00  0.00    +0.164 A 
ATOM      8  N   UNL     1      -0.131  -4.796   3.526  0.00  0.00    -0.229 NA
ATOM      9  C   UNL     1      -0.204  -6.109   3.407  0.00  0.00    +0.059 A 
ATOM     10  C   UNL     1      -0.175  -6.616   2.151  0.00  0.00    +0.072 A 
ATOM     11  S   UNL     1      -0.048  -5.117   1.189  0.00  0.00    -0.060 S 
ATOM     12  H   UNL     1       0.121  -2.125   3.235  0.00  0.00    +0.155 HD
BRANCH   6  18
ATOM     13  C   UNL     1       0.039  -2.965  -2.362  0.00  0.00    +0.065 C 
ATOM     14  C   UNL     1       0.029  -2.114  -1.118  0.00  0.00    +0.040 A 
ATOM     15  C   UNL     1       0.004  -0.738  -1.234  0.00  0.00    +0.023 A 
ATOM     16  C   UNL     1      -0.006   0.041  -0.085  0.00  0.00    +0.005 A 
ATOM     17  C   UNL     1       0.009  -0.595   1.144  0.00  0.00    +0.044 A 
ATOM     18  C   UNL     1       0.035  -1.985   1.186  0.00  0.00    +0.125 A 
ATOM     19  N   UNL     1       0.038  -2.693   0.067  0.00  0.00    -0.237 NA
ENDBRANCH   6  18
ENDBRANCH   5   9
ENDBRANCH   1   5
BRANCH   3  20
ATOM     20  C   UNL     1       2.043  -7.125   7.629  0.00  0.00    +0.150 C 
BRANCH  20  21
ATOM     21  C   UNL     1       1.932  -8.033   8.855  0.00  0.00    +0.191 C 
ATOM     22  N   UNL     1       1.915  -9.441   8.439  0.00  0.00    -0.362 N 
ATOM     23  C   UNL     1       0.785  -9.952   8.836  0.00  0.00    +0.060 A 
ATOM     24  C   UNL     1       0.199 -11.294   8.717  0.00  0.00    +0.027 A 
ATOM     25  C   UNL     1      -1.020 -11.537   9.239  0.00  0.00    +0.002 A 
ATOM     26  C   UNL     1      -1.770 -10.549   9.902  0.00  0.00    +0.002 A 
ATOM     27  C   UNL     1      -1.327  -9.287  10.066  0.00  0.00    +0.027 A 
ATOM     28  C   UNL     1      -0.009  -8.907   9.538  0.00  0.00    +0.060 A 
ATOM     29  N   UNL     1       0.661  -7.791   9.548  0.00  0.00    -0.362 N 
ATOM     30  H   UNL     1       2.616  -9.906   7.956  0.00  0.00    +0.162 HD
ATOM     31  H   UNL     1       0.372  -6.953   9.942  0.00  0.00    +0.162 HD
ENDBRANCH  20  21
ENDBRANCH   3  20
TORSDOF 5
