REMARK  Name = ZINC09731004
REMARK  9 active torsions:
REMARK  status: ('A' for Active; 'I' for Inactive)
REMARK    1  A    between atoms: C_3  and  C_6
REMARK    2  A    between atoms: C_8  and  C_31
REMARK    3  A    between atoms: C_9  and  C_29
REMARK    4  A    between atoms: C_10  and  S_12
REMARK    5  A    between atoms: S_12  and  C_13
REMARK    6  A    between atoms: C_13  and  C_14
REMARK    7  A    between atoms: C_14  and  C_16
REMARK    8  A    between atoms: C_17  and  N_28
REMARK    9  A    between atoms: N_18  and  C_25
REMARK                            x       y       z     vdW  Elec       q    Type
REMARK                         _______ _______ _______ _____ _____    ______ ____
ROOT
ATOM      1  S   UNL     1      -1.005   8.797   1.593  0.00  0.00    -0.097 S 
ENDROOT
BRANCH   1   6
ATOM      2  C   UNL     1       0.508   5.317   2.626  0.00  0.00    +0.079 A 
ATOM      3  C   UNL     1       1.821   5.594   3.020  0.00  0.00    +0.042 A 
ATOM      4  C   UNL     1       2.281   6.882   2.977  0.00  0.00    +0.077 A 
ATOM      5  C   UNL     1       1.413   7.891   2.534  0.00  0.00    +0.095 A 
ATOM      6  C   UNL     1       0.103   7.546   2.152  0.00  0.00    +0.116 A 
ATOM      7  N   UNL     1      -0.299   6.286   2.205  0.00  0.00    -0.239 NA
BRANCH   2  10
ATOM      8  C   UNL     1      -1.457   2.091   2.458  0.00  0.00    +0.008 A 
ATOM      9  C   UNL     1      -1.224   3.441   2.336  0.00  0.00    +0.017 A 
ATOM     10  C   UNL     1       0.013   3.929   2.673  0.00  0.00    +0.038 A 
ATOM     11  S   UNL     1       0.867   2.446   3.183  0.00  0.00    -0.095 S 
ATOM     12  C   UNL     1      -0.463   1.285   2.918  0.00  0.00    +0.046 A 
ENDBRANCH   2  10
BRANCH   4  13
ATOM     13  C   UNL     1       3.692   7.209   3.394  0.00  0.00    +0.419 C 
ATOM     14  F   UNL     1       4.345   6.037   3.790  0.00  0.00    -0.166 F 
ATOM     15  F   UNL     1       4.376   7.784   2.318  0.00  0.00    -0.166 F 
ATOM     16  F   UNL     1       3.664   8.111   4.464  0.00  0.00    -0.166 F 
ENDBRANCH   4  13
BRANCH   5  17
ATOM     17  C   UNL     1       1.853   9.252   2.472  0.00  0.00    +0.102 C 
ATOM     18  N   UNL     1       2.203  10.332   2.423  0.00  0.00    -0.191 NA
ENDBRANCH   5  17
ENDBRANCH   1   6
BRANCH   1  19
ATOM     19  C   UNL     1      -2.472   7.791   1.259  0.00  0.00    +0.155 C 
BRANCH  19  20
ATOM     20  C   UNL     1      -3.583   8.675   0.755  0.00  0.00    +0.182 C 
ATOM     21  O   UNL     1      -3.401   9.870   0.634  0.00  0.00    -0.291 OA
BRANCH  20  22
ATOM     22  C   UNL     1      -4.836   8.115   0.425  0.00  0.00    +0.120 A 
ATOM     23  C   UNL     1      -5.929   8.931   0.088  0.00  0.00    +0.116 A 
ATOM     24  N   UNL     1      -7.120   8.343  -0.231  0.00  0.00    -0.278 N 
ATOM     25  C   UNL     1      -7.264   7.008  -0.216  0.00  0.00    +0.331 A 
ATOM     26  O   UNL     1      -8.346   6.534  -0.502  0.00  0.00    -0.246 OA
ATOM     27  N   UNL     1      -6.258   6.179   0.104  0.00  0.00    -0.274 N 
ATOM     28  H   UNL     1      -6.413   5.191   0.101  0.00  0.00    +0.173 HD
ATOM     29  C   UNL     1      -5.040   6.661   0.428  0.00  0.00    +0.266 A 
ATOM     30  O   UNL     1      -4.130   5.906   0.716  0.00  0.00    -0.267 OA
BRANCH  24  31
ATOM     31  C   UNL     1      -8.264   9.185  -0.589  0.00  0.00    +0.094 C 
ATOM     32  C   UNL     1      -9.059   8.801  -1.839  0.00  0.00    +0.027 C 
ATOM     33  C   UNL     1      -8.148  10.031  -1.859  0.00  0.00    +0.027 C 
ENDBRANCH  24  31
BRANCH  23  34
ATOM     34  N   UNL     1      -5.802  10.286   0.073  0.00  0.00    -0.344 N 
ATOM     35  H   UNL     1      -4.936  10.690  -0.094  0.00  0.00    +0.144 HD
ATOM     36  H   UNL     1      -6.577  10.848   0.230  0.00  0.00    +0.144 HD
ENDBRANCH  23  34
ENDBRANCH  20  22
ENDBRANCH  19  20
ENDBRANCH   1  19
TORSDOF 9
