REMARK  Name = ZINC04249586
REMARK  8 active torsions:
REMARK  status: ('A' for Active; 'I' for Inactive)
REMARK    1  A    between atoms: C_1  and  C_2
REMARK    2  A    between atoms: C_2  and  C_3
REMARK    3  A    between atoms: C_3  and  C_4
REMARK    4  A    between atoms: C_4  and  C_5
REMARK    5  A    between atoms: C_8  and  N_11
REMARK    6  A    between atoms: C_12  and  C_14
REMARK    7  A    between atoms: C_14  and  S_15
REMARK    8  A    between atoms: S_15  and  C_16
REMARK                            x       y       z     vdW  Elec       q    Type
REMARK                         _______ _______ _______ _____ _____    ______ ____
ROOT
ATOM      1  N   UNL     1      -6.735  -4.027   0.045  0.00  0.00    -0.285 N 
ATOM      2  C   UNL     1      -7.529  -3.799   1.109  0.00  0.00    +0.227 C 
ATOM      3  O   UNL     1      -7.139  -3.098   2.019  0.00  0.00    -0.275 OA
ATOM      4  H   UNL     1      -7.074  -4.524  -0.716  0.00  0.00    +0.155 HD
ENDROOT
BRANCH   1   8
ATOM      5  C   UNL     1      -2.821  -2.600   0.022  0.00  0.00    -0.047 A 
ATOM      6  C   UNL     1      -3.401  -3.003   1.211  0.00  0.00    +0.005 A 
ATOM      7  C   UNL     1      -4.699  -3.477   1.222  0.00  0.00    +0.023 A 
ATOM      8  C   UNL     1      -5.420  -3.547   0.037  0.00  0.00    +0.033 A 
ATOM      9  C   UNL     1      -4.835  -3.141  -1.155  0.00  0.00    +0.023 A 
ATOM     10  C   UNL     1      -3.539  -2.664  -1.158  0.00  0.00    +0.005 A 
BRANCH   5  11
ATOM     11  C   UNL     1      -1.405  -2.083   0.014  0.00  0.00    +0.035 C 
BRANCH  11  12
ATOM     12  C   UNL     1      -1.413  -0.570   0.234  0.00  0.00    +0.004 C 
BRANCH  12  14
ATOM     13  C   UNL     1       0.016   1.469   0.447  0.00  0.00    +0.004 C 
ATOM     14  C   UNL     1       0.024  -0.045   0.226  0.00  0.00    -0.003 C 
ENDBRANCH  12  14
ENDBRANCH  11  12
ENDBRANCH   5  11
ENDBRANCH   1   8
BRANCH   2  15
ATOM     15  C   UNL     1      -8.903  -4.416   1.170  0.00  0.00    +0.173 C 
BRANCH  15  16
ATOM     16  S   UNL     1      -9.718  -3.925   2.715  0.00  0.00    -0.077 S 
BRANCH  16  17
ATOM     17  C   UNL     1     -11.291  -4.715   2.636  0.00  0.00    +0.194 A 
ATOM     18  N   UNL     1     -11.569  -5.460   1.567  0.00  0.00    -0.183 NA
ATOM     19  C   UNL     1     -12.724  -6.088   1.427  0.00  0.00    +0.285 A 
ATOM     20  O   UNL     1     -12.977  -6.837   0.331  0.00  0.00    -0.265 OA
ATOM     21  C   UNL     1     -13.689  -5.955   2.455  0.00  0.00    +0.104 A 
ATOM     22  C   UNL     1     -14.964  -6.431   2.679  0.00  0.00    +0.120 A 
ATOM     23  N   UNL     1     -15.379  -5.951   3.858  0.00  0.00    -0.282 N 
ATOM     24  H   UNL     1     -16.244  -6.131   4.259  0.00  0.00    +0.188 HD
ATOM     25  N   UNL     1     -14.380  -5.151   4.427  0.00  0.00    -0.154 NA
ATOM     26  C   UNL     1     -13.342  -5.122   3.619  0.00  0.00    +0.189 A 
ATOM     27  N   UNL     1     -12.127  -4.541   3.639  0.00  0.00    -0.200 NA
ENDBRANCH  16  17
ENDBRANCH  15  16
ENDBRANCH   2  15
TORSDOF 7
