REMARK  Name = ZINC11244986
REMARK  8 active torsions:
REMARK  status: ('A' for Active; 'I' for Inactive)
REMARK    1  A    between atoms: C_1  and  N_2
REMARK    2  A    between atoms: C_6  and  C_8
REMARK    3  A    between atoms: C_8  and  C_10
REMARK    4  A    between atoms: C_8  and  O_16
REMARK    5  A    between atoms: O_16  and  C_17
REMARK    6  A    between atoms: C_17  and  C_19
REMARK    7  A    between atoms: N_22  and  S_25
REMARK    8  A    between atoms: S_25  and  C_28
REMARK                            x       y       z     vdW  Elec       q    Type
REMARK                         _______ _______ _______ _____ _____    ______ ____
ROOT
ATOM      1  C   UNL     1       3.778   3.322  -2.115  0.00  0.00    +0.311 C 
ATOM      2  O   UNL     1       4.142   2.276  -2.597  0.00  0.00    -0.251 OA
ENDROOT
BRANCH   1   3
ATOM      3  C   UNL     1       3.628   4.542  -2.986  0.00  0.00    +0.100 C 
ATOM      4  C   UNL     1       2.179   5.032  -2.934  0.00  0.00    +0.032 C 
ATOM      5  C   UNL     1       2.039   6.292  -3.793  0.00  0.00    +0.110 C 
ATOM      6  N   UNL     1       2.529   5.999  -5.147  0.00  0.00    -0.177 NA
ATOM      7  C   UNL     1       3.878   5.439  -5.304  0.00  0.00    +0.110 C 
ATOM      8  C   UNL     1       3.998   4.188  -4.428  0.00  0.00    +0.032 C 
BRANCH   6   9
ATOM      9  S   UNL     1       1.579   6.294  -6.471  0.00  0.00    +0.061 S 
ATOM     10  O   UNL     1       0.647   7.296  -6.086  0.00  0.00    -0.153 OA
ATOM     11  O   UNL     1       2.459   6.456  -7.574  0.00  0.00    -0.153 OA
BRANCH   9  12
ATOM     12  C   UNL     1       0.646   4.831  -6.779  0.00  0.00    +0.106 A 
ATOM     13  C   UNL     1       1.149   3.856  -7.621  0.00  0.00    +0.031 A 
ATOM     14  C   UNL     1       0.421   2.706  -7.860  0.00  0.00    +0.040 A 
ATOM     15  C   UNL     1      -0.817   2.536  -7.265  0.00  0.00    +0.124 A 
ATOM     16  C   UNL     1      -1.323   3.515  -6.427  0.00  0.00    +0.040 A 
ATOM     17  C   UNL     1      -0.590   4.662  -6.185  0.00  0.00    +0.031 A 
ATOM     18  F   UNL     1      -1.532   1.414  -7.502  0.00  0.00    -0.205 F 
ENDBRANCH   9  12
ENDBRANCH   6   9
ENDBRANCH   1   3
BRANCH   1  19
ATOM     19  O   UNL     1       3.506   3.397  -0.802  0.00  0.00    -0.447 OA
BRANCH  19  20
ATOM     20  C   UNL     1       3.672   2.182  -0.024  0.00  0.00    +0.292 C 
BRANCH  20  26
ATOM     21  C   UNL     1       5.380   1.259   5.790  0.00  0.00    +0.129 C 
ATOM     22  N   UNL     1       5.008   0.912   4.416  0.00  0.00    -0.302 N 
ATOM     23  C   UNL     1       4.702   1.885   3.534  0.00  0.00    +0.306 C 
ATOM     24  O   UNL     1       4.734   3.050   3.880  0.00  0.00    -0.252 OA
ATOM     25  N   UNL     1       4.360   1.566   2.271  0.00  0.00    -0.237 N 
ATOM     26  C   UNL     1       4.054   2.539   1.389  0.00  0.00    +0.266 C 
ATOM     27  O   UNL     1       4.087   3.701   1.733  0.00  0.00    -0.271 OA
ATOM     28  H   UNL     1       4.982  -0.017   4.140  0.00  0.00    +0.150 HD
ATOM     29  H   UNL     1       4.334   0.636   1.995  0.00  0.00    +0.159 HD
ENDBRANCH  20  26
BRANCH  20  30
ATOM     30  C   UNL     1       2.377   1.411  -0.015  0.00  0.00    +0.002 A 
ATOM     31  C   UNL     1       1.171   2.086   0.002  0.00  0.00    +0.008 A 
ATOM     32  C   UNL     1      -0.017   1.378   0.010  0.00  0.00    +0.000 A 
ATOM     33  C   UNL     1       0.002  -0.004   0.002  0.00  0.00    +0.000 A 
ATOM     34  C   UNL     1       1.208  -0.679  -0.013  0.00  0.00    +0.000 A 
ATOM     35  C   UNL     1       2.396   0.029  -0.022  0.00  0.00    +0.008 A 
ENDBRANCH  20  30
ENDBRANCH  19  20
ENDBRANCH   1  19
TORSDOF 7
