REMARK  Name = ZINC09956529
REMARK  12 active torsions:
REMARK  status: ('A' for Active; 'I' for Inactive)
REMARK    1  A    between atoms: C_1  and  C_2
REMARK    2  A    between atoms: C_2  and  C_3
REMARK    3  A    between atoms: C_3  and  C_4
REMARK    4  A    between atoms: C_4  and  N_5
REMARK    5  A    between atoms: N_5  and  C_6
REMARK    6  A    between atoms: C_7  and  N_18
REMARK    7  A    between atoms: N_8  and  C_15
REMARK    8  A    between atoms: C_15  and  C_16
REMARK    9  A    between atoms: C_16  and  C_17
REMARK   10  A    between atoms: C_19  and  C_21
REMARK   11  A    between atoms: C_27  and  C_29
REMARK   12  A    between atoms: C_34  and  C_35
REMARK                            x       y       z     vdW  Elec       q    Type
REMARK                         _______ _______ _______ _____ _____    ______ ____
ROOT
ATOM      1  N   UNL     1      -2.927  -3.246   0.193  0.00  0.00    -0.264 N 
ATOM      2  C   UNL     1      -3.479  -2.547   1.206  0.00  0.00    +0.223 C 
ATOM      3  O   UNL     1      -2.773  -1.912   1.961  0.00  0.00    -0.275 OA
ENDROOT
BRANCH   1   4
ATOM      4  C   UNL     1      -3.741  -4.044  -0.639  0.00  0.00    +0.140 A 
ATOM      5  C   UNL     1      -4.431  -5.121  -0.122  0.00  0.00    +0.127 A 
ATOM      6  N   UNL     1      -5.216  -5.880  -0.958  0.00  0.00    -0.280 N 
ATOM      7  C   UNL     1      -5.310  -5.577  -2.266  0.00  0.00    +0.331 A 
ATOM      8  O   UNL     1      -6.009  -6.260  -2.989  0.00  0.00    -0.246 OA
ATOM      9  N   UNL     1      -4.645  -4.530  -2.787  0.00  0.00    -0.273 N 
ATOM     10  H   UNL     1      -4.729  -4.332  -3.733  0.00  0.00    +0.173 HD
ATOM     11  C   UNL     1      -3.867  -3.751  -2.010  0.00  0.00    +0.277 A 
ATOM     12  O   UNL     1      -3.272  -2.802  -2.493  0.00  0.00    -0.266 OA
BRANCH   5  13
ATOM     13  N   UNL     1      -4.334  -5.432   1.213  0.00  0.00    -0.343 N 
ATOM     14  H   UNL     1      -3.866  -4.835   1.817  0.00  0.00    +0.144 HD
ATOM     15  H   UNL     1      -4.735  -6.248   1.551  0.00  0.00    +0.144 HD
ENDBRANCH   5  13
BRANCH   6  16
ATOM     16  C   UNL     1      -5.954  -7.027  -0.422  0.00  0.00    +0.128 C 
BRANCH  16  17
ATOM     17  C   UNL     1      -7.337  -6.570   0.044  0.00  0.00    +0.018 C 
ATOM     18  C   UNL     1      -8.108  -7.767   0.604  0.00  0.00    +0.005 C 
ENDBRANCH  16  17
ENDBRANCH   6  16
ENDBRANCH   1   4
BRANCH   2  19
ATOM     19  C   UNL     1      -4.974  -2.554   1.400  0.00  0.00    +0.078 C 
ATOM     20  C   UNL     1      -5.612  -1.508   0.483  0.00  0.00    +0.032 C 
ATOM     21  C   UNL     1      -7.134  -1.542   0.658  0.00  0.00    +0.109 C 
ATOM     22  N   UNL     1      -7.450  -1.369   2.082  0.00  0.00    -0.297 N 
ATOM     23  C   UNL     1      -6.818  -2.266   3.060  0.00  0.00    +0.109 C 
ATOM     24  C   UNL     1      -5.300  -2.224   2.858  0.00  0.00    +0.032 C 
ATOM     25  C   UNL     1      -8.304  -0.407   2.484  0.00  0.00    +0.247 C 
ATOM     26  O   UNL     1      -8.894   0.265   1.661  0.00  0.00    -0.270 OA
BRANCH  25  27
ATOM     27  C   UNL     1      -8.522  -0.169   3.927  0.00  0.00    +0.040 A 
ATOM     28  C   UNL     1      -8.906  -1.220   4.761  0.00  0.00    +0.013 A 
ATOM     29  C   UNL     1      -9.108  -0.991   6.106  0.00  0.00    +0.001 A 
ATOM     30  C   UNL     1      -8.931   0.278   6.629  0.00  0.00    +0.000 A 
ATOM     31  C   UNL     1      -8.551   1.325   5.808  0.00  0.00    +0.004 A 
ATOM     32  C   UNL     1      -8.341   1.108   4.462  0.00  0.00    -0.038 A 
ATOM     33  C   UNL     1      -7.921   2.248   3.570  0.00  0.00    +0.044 C 
ENDBRANCH  25  27
ENDBRANCH   2  19
BRANCH   1  34
ATOM     34  C   UNL     1      -1.483  -3.176  -0.044  0.00  0.00    +0.114 C 
BRANCH  34  35
ATOM     35  C   UNL     1      -1.159  -1.920  -0.855  0.00  0.00    +0.019 C 
BRANCH  35  37
ATOM     36  C   UNL     1       0.683  -0.518  -1.796  0.00  0.00    +0.004 C 
ATOM     37  C   UNL     1       0.358  -1.774  -0.985  0.00  0.00    -0.002 C 
ENDBRANCH  35  37
ENDBRANCH  34  35
ENDBRANCH   1  34
TORSDOF 9
