REMARK  Name = ZINC23244315
REMARK  4 active torsions:
REMARK  status: ('A' for Active; 'I' for Inactive)
REMARK    1  A    between atoms: C_9  and  C_12
REMARK    2  A    between atoms: C_12  and  N_13
REMARK    3  A    between atoms: C_14  and  C_16
REMARK    4  A    between atoms: C_17  and  C_18
REMARK                            x       y       z     vdW  Elec       q    Type
REMARK                         _______ _______ _______ _____ _____    ______ ____
ROOT
ATOM      1  N   UNL     1       1.356   2.033   0.000  0.00  0.00    -0.308 N 
ATOM      2  C   UNL     1       1.584   3.361   0.005  0.00  0.00    +0.237 C 
ATOM      3  O   UNL     1       0.648   4.139   0.018  0.00  0.00    -0.271 OA
ATOM      4  H   UNL     1       2.201   1.330  -0.012  0.00  0.00    +0.149 HD
ENDROOT
BRANCH   2   5
ATOM      5  C   UNL     1       2.956   3.867  -0.005  0.00  0.00    +0.068 C 
ATOM      6  C   UNL     1       3.185   5.198  -0.000  0.00  0.00    +0.013 C 
BRANCH   6   7
ATOM      7  C   UNL     1       4.564   5.707  -0.011  0.00  0.00    -0.020 A 
ATOM      8  C   UNL     1       4.804   7.085  -0.011  0.00  0.00    +0.057 A 
ATOM      9  C   UNL     1       6.102   7.560  -0.016  0.00  0.00    +0.164 A 
ATOM     10  C   UNL     1       7.170   6.666  -0.028  0.00  0.00    +0.180 A 
ATOM     11  C   UNL     1       6.933   5.295  -0.034  0.00  0.00    +0.087 A 
ATOM     12  C   UNL     1       5.641   4.814  -0.026  0.00  0.00    +0.031 A 
ATOM     13 CL   UNL     1       8.268   4.187  -0.053  0.00  0.00    -0.080 Cl
ATOM     14  O   UNL     1       8.453   7.118  -0.029  0.00  0.00    -0.483 OA
ATOM     15  C   UNL     1       8.655   8.485  -0.401  0.00  0.00    +0.270 C 
ATOM     16  C   UNL     1       7.630   9.344   0.352  0.00  0.00    +0.270 C 
ATOM     17  O   UNL     1       6.319   8.904  -0.017  0.00  0.00    -0.485 OA
ENDBRANCH   6   7
ENDBRANCH   2   5
BRANCH   1  18
ATOM     18  C   UNL     1      -0.019   1.526   0.010  0.00  0.00    +0.152 C 
BRANCH  18  27
ATOM     19  C   UNL     1       0.085  -4.489   2.102  0.00  0.00    +0.004 A 
ATOM     20  C   UNL     1       1.066  -3.752   2.740  0.00  0.00    +0.004 A 
ATOM     21  C   UNL     1       1.233  -2.414   2.439  0.00  0.00    +0.049 A 
ATOM     22  C   UNL     1       0.416  -1.806   1.498  0.00  0.00    +0.163 A 
ATOM     23  C   UNL     1      -0.569  -2.547   0.855  0.00  0.00    +0.162 A 
ATOM     24  C   UNL     1      -0.731  -3.890   1.162  0.00  0.00    +0.049 A 
ATOM     25  O   UNL     1      -1.378  -1.971  -0.075  0.00  0.00    -0.485 OA
ATOM     26  C   UNL     1      -1.433  -0.541  -0.083  0.00  0.00    +0.275 C 
ATOM     27  C   UNL     1       0.002  -0.004   0.002  0.00  0.00    +0.228 C 
ATOM     28  O   UNL     1       0.590  -0.486   1.216  0.00  0.00    -0.480 OA
ENDBRANCH  18  27
ENDBRANCH   1  18
TORSDOF 4
