REMARK  Name = ZINC39449889
REMARK  5 active torsions:
REMARK  status: ('A' for Active; 'I' for Inactive)
REMARK    1  A    between atoms: C_1  and  S_2
REMARK    2  A    between atoms: S_2  and  C_3
REMARK    3  A    between atoms: C_13  and  S_16
REMARK    4  A    between atoms: S_16  and  C_19
REMARK    5  A    between atoms: N_27  and  C_28
REMARK                            x       y       z     vdW  Elec       q    Type
REMARK                         _______ _______ _______ _____ _____    ______ ____
ROOT
ATOM      1  C   UNL     1       0.873  -0.423  -1.533  0.00  0.00    +0.136 C 
ATOM      2  C   UNL     1       1.913  -1.515  -1.256  0.00  0.00    +0.114 C 
ATOM      3  C   UNL     1       3.017  -0.949  -0.403  0.00  0.00    +0.184 C 
ATOM      4  O   UNL     1       3.619  -1.675   0.362  0.00  0.00    -0.290 OA
ATOM      5  C   UNL     1       3.360   0.421  -0.483  0.00  0.00    +0.115 A 
ATOM      6  C   UNL     1       2.638   1.262  -1.310  0.00  0.00    +0.082 A 
ATOM      7  C   UNL     1       2.999   2.683  -1.399  0.00  0.00    +0.099 A 
ATOM      8  C   UNL     1       4.080   3.147  -0.618  0.00  0.00    +0.069 A 
ATOM      9  C   UNL     1       4.441   4.493  -0.685  0.00  0.00    +0.044 A 
ATOM     10  C   UNL     1       3.714   5.319  -1.525  0.00  0.00    +0.112 A 
ATOM     11  C   UNL     1       2.664   4.793  -2.263  0.00  0.00    +0.138 A 
ATOM     12  N   UNL     1       2.337   3.521  -2.187  0.00  0.00    -0.251 NA
ATOM     13  C   UNL     1       4.794   2.195   0.244  0.00  0.00    +0.266 A 
ATOM     14  O   UNL     1       5.727   2.575   0.927  0.00  0.00    -0.267 OA
ATOM     15  N   UNL     1       4.417   0.904   0.278  0.00  0.00    -0.268 N 
ATOM     16  N   UNL     1       1.577   0.764  -2.044  0.00  0.00    -0.328 N 
ATOM     17  H   UNL     1       1.304   1.185  -2.874  0.00  0.00    +0.147 HD
ENDROOT
BRANCH  15  18
ATOM     18  C   UNL     1       5.113   0.017   1.109  0.00  0.00    +0.097 A 
ATOM     19  C   UNL     1       6.221  -0.665   0.626  0.00  0.00    +0.030 A 
ATOM     20  C   UNL     1       6.906  -1.539   1.448  0.00  0.00    +0.002 A 
ATOM     21  C   UNL     1       6.490  -1.737   2.753  0.00  0.00    +0.004 A 
ATOM     22  C   UNL     1       5.387  -1.062   3.241  0.00  0.00    +0.053 A 
ATOM     23  C   UNL     1       4.698  -0.178   2.425  0.00  0.00    +0.203 A 
ATOM     24  O   UNL     1       3.616   0.491   2.905  0.00  0.00    -0.286 OA
ENDBRANCH  15  18
BRANCH  10  25
ATOM     25  S   UNL     1       4.120   7.029  -1.654  0.00  0.00    +0.027 S 
ATOM     26  O   UNL     1       2.942   7.693  -2.092  0.00  0.00    -0.164 OA
ATOM     27  O   UNL     1       4.790   7.380  -0.451  0.00  0.00    -0.164 OA
BRANCH  25  28
ATOM     28  C   UNL     1       5.300   7.187  -2.953  0.00  0.00    +0.094 A 
ATOM     29  C   UNL     1       6.651   7.093  -2.674  0.00  0.00    +0.027 A 
ATOM     30  C   UNL     1       7.577   7.218  -3.693  0.00  0.00    +0.002 A 
ATOM     31  C   UNL     1       7.152   7.436  -4.990  0.00  0.00    +0.000 A 
ATOM     32  C   UNL     1       5.802   7.529  -5.269  0.00  0.00    +0.002 A 
ATOM     33  C   UNL     1       4.875   7.400  -4.251  0.00  0.00    +0.027 A 
ENDBRANCH  25  28
ENDBRANCH  10  25
BRANCH   1  35
ATOM     34  C   UNL     1      -0.022   1.810   0.012  0.00  0.00    +0.086 C 
ATOM     35  S   UNL     1       0.002  -0.004   0.002  0.00  0.00    -0.142 S 
ENDBRANCH   1  35
TORSDOF 4
