REMARK  Name = ZINC28639838
REMARK  7 active torsions:
REMARK  status: ('A' for Active; 'I' for Inactive)
REMARK    1  A    between atoms: C_2  and  C_13
REMARK    2  A    between atoms: C_4  and  C_7
REMARK    3  A    between atoms: C_13  and  C_14
REMARK    4  A    between atoms: C_14  and  C_16
REMARK    5  A    between atoms: C_14  and  N_27
REMARK    6  A    between atoms: C_22  and  C_24
REMARK    7  A    between atoms: C_28  and  C_30
REMARK                            x       y       z     vdW  Elec       q    Type
REMARK                         _______ _______ _______ _____ _____    ______ ____
ROOT
ATOM      1  C   UNL     1       1.798   3.718   1.438  0.00  0.00    +0.165 C 
ENDROOT
BRANCH   1   2
ATOM      2  C   UNL     1       2.501   5.051   1.471  0.00  0.00    +0.237 C 
ATOM      3  O   UNL     1       1.861   6.070   1.621  0.00  0.00    -0.274 OA
ATOM      4  N   UNL     1       3.840   5.110   1.334  0.00  0.00    -0.288 N 
ATOM      5  C   UNL     1       4.725   3.968   1.040  0.00  0.00    +0.109 C 
ATOM      6  C   UNL     1       5.980   4.598   0.384  0.00  0.00    +0.021 C 
ATOM      7  C   UNL     1       6.125   5.915   1.191  0.00  0.00    +0.033 C 
ATOM      8  C   UNL     1       4.660   6.325   1.446  0.00  0.00    +0.162 C 
BRANCH   8   9
ATOM      9  C   UNL     1       4.222   7.336   0.418  0.00  0.00    +0.231 C 
ATOM     10  O   UNL     1       3.312   7.074  -0.341  0.00  0.00    -0.274 OA
ATOM     11  N   UNL     1       4.841   8.531   0.341  0.00  0.00    -0.328 N 
ATOM     12  H   UNL     1       5.568   8.740   0.947  0.00  0.00    +0.145 HD
ATOM     13  H   UNL     1       4.559   9.181  -0.321  0.00  0.00    +0.145 HD
ENDBRANCH   8   9
ENDBRANCH   1   2
BRANCH   1  14
ATOM     14  N   UNL     1       0.557   3.800   2.213  0.00  0.00    -0.302 N 
ATOM     15  C   UNL     1       0.582   3.609   3.547  0.00  0.00    +0.234 C 
ATOM     16  O   UNL     1       1.631   3.369   4.106  0.00  0.00    -0.274 OA
ATOM     17  H   UNL     1      -0.281   3.993   1.766  0.00  0.00    +0.150 HD
BRANCH  15  18
ATOM     18  C   UNL     1      -0.695   3.694   4.343  0.00  0.00    +0.159 C 
ATOM     19  C   UNL     1      -1.041   5.164   4.587  0.00  0.00    +0.032 C 
ATOM     20  C   UNL     1      -2.207   5.235   5.581  0.00  0.00    +0.011 C 
ATOM     21  C   UNL     1      -1.714   4.739   6.942  0.00  0.00    +0.096 C 
ATOM     22  C   UNL     1      -0.987   3.435   6.779  0.00  0.00    +0.214 C 
ATOM     23  O   UNL     1      -0.815   2.746   7.762  0.00  0.00    -0.276 OA
ATOM     24  N   UNL     1      -0.518   2.999   5.612  0.00  0.00    -0.304 N 
ATOM     25  H   UNL     1      -0.030   2.160   5.607  0.00  0.00    +0.149 HD
ENDBRANCH  15  18
ENDBRANCH   1  14
BRANCH   1  26
ATOM     26  C   UNL     1       1.472   3.349  -0.010  0.00  0.00    +0.086 C 
BRANCH  26  28
ATOM     27  C   UNL     1      -0.412   1.645   0.133  0.00  0.00    +0.105 A 
ATOM     28  C   UNL     1       0.884   1.962  -0.055  0.00  0.00    +0.036 A 
ATOM     29  N   UNL     1       1.559   0.827  -0.290  0.00  0.00    -0.347 N 
ATOM     30  C   UNL     1       0.731  -0.181  -0.254  0.00  0.00    +0.088 A 
ATOM     31  N   UNL     1      -0.509   0.286   0.007  0.00  0.00    -0.349 N 
ATOM     32  H   UNL     1      -1.318  -0.243   0.090  0.00  0.00    +0.166 HD
ATOM     33  H   UNL     1       2.512   0.765  -0.459  0.00  0.00    +0.167 HD
BRANCH  30  34
ATOM     34  C   UNL     1       1.098  -1.627  -0.469  0.00  0.00    +0.053 C 
ATOM     35  C   UNL     1       0.860  -2.001  -1.933  0.00  0.00    +0.011 C 
ATOM     36  C   UNL     1       1.233  -3.469  -2.152  0.00  0.00    +0.001 C 
ATOM     37  C   UNL     1       0.367  -4.354  -1.252  0.00  0.00    +0.000 C 
ATOM     38  C   UNL     1       0.605  -3.980   0.212  0.00  0.00    +0.001 C 
ATOM     39  C   UNL     1       0.232  -2.512   0.430  0.00  0.00    +0.011 C 
ENDBRANCH  30  34
ENDBRANCH  26  28
ENDBRANCH   1  26
TORSDOF 7
