REMARK  Name = ZINC20112102
REMARK  7 active torsions:
REMARK  status: ('A' for Active; 'I' for Inactive)
REMARK    1  A    between atoms: C_1  and  O_2
REMARK    2  A    between atoms: O_2  and  C_3
REMARK    3  A    between atoms: C_13  and  C_18
REMARK    4  A    between atoms: C_21  and  O_34
REMARK    5  A    between atoms: C_22  and  C_24
REMARK    6  A    between atoms: C_24  and  N_25
REMARK    7  A    between atoms: O_34  and  C_35
REMARK                            x       y       z     vdW  Elec       q    Type
REMARK                         _______ _______ _______ _____ _____    ______ ____
ROOT
ATOM      1  C   UNL     1      -1.220   1.750   0.017  0.00  0.00    -0.024 A 
ATOM      2  C   UNL     1      -0.013   1.076   0.008  0.00  0.00    +0.009 A 
ATOM      3  C   UNL     1       1.174   1.782   0.000  0.00  0.00    +0.046 A 
ATOM      4  C   UNL     1       1.155   3.169   0.008  0.00  0.00    +0.125 A 
ATOM      5  C   UNL     1      -0.057   3.844   0.023  0.00  0.00    +0.016 A 
ATOM      6  C   UNL     1      -1.242   3.132   0.031  0.00  0.00    +0.014 A 
ENDROOT
BRANCH   1  17
ATOM      7  C   UNL     1      -3.921  -1.586  -5.285  0.00  0.00    +0.121 A 
ATOM      8  C   UNL     1      -3.559  -0.342  -5.789  0.00  0.00    +0.047 A 
ATOM      9  C   UNL     1      -3.132   0.688  -4.971  0.00  0.00    +0.030 A 
ATOM     10  C   UNL     1      -3.076   0.433  -3.603  0.00  0.00    +0.047 A 
ATOM     11  C   UNL     1      -3.444  -0.836  -3.085  0.00  0.00    +0.007 A 
ATOM     12  C   UNL     1      -3.874  -1.867  -3.928  0.00  0.00    +0.056 A 
ATOM     13  C   UNL     1      -3.267  -0.748  -1.653  0.00  0.00    -0.016 A 
ATOM     14  C   UNL     1      -2.824   0.504  -1.382  0.00  0.00    +0.042 A 
ATOM     15  N   UNL     1      -2.706   1.214  -2.542  0.00  0.00    -0.356 N 
ATOM     16  H   UNL     1      -2.377   2.249  -2.711  0.00  0.00    +0.166 HD
ATOM     17  C   UNL     1      -2.513   0.977   0.019  0.00  0.00    +0.131 C 
ATOM     18  N   UNL     1      -2.386  -0.199   0.895  0.00  0.00    -0.304 NA
ATOM     19  C   UNL     1      -3.548  -1.089   0.769  0.00  0.00    +0.086 C 
ATOM     20  C   UNL     1      -3.506  -1.794  -0.594  0.00  0.00    +0.052 C 
ATOM     21  H   UNL     1      -1.482  -0.763   0.622  0.00  0.00    +0.123 HD
BRANCH   7  23
ATOM     22  C   UNL     1      -4.363  -2.217  -7.535  0.00  0.00    +0.277 C 
ATOM     23  O   UNL     1      -4.333  -2.554  -6.147  0.00  0.00    -0.495 OA
ENDBRANCH   7  23
ENDBRANCH   1  17
BRANCH   4  24
ATOM     24  O   UNL     1       2.321   3.867   0.000  0.00  0.00    -0.495 OA
ATOM     25  C   UNL     1       3.531   3.107  -0.016  0.00  0.00    +0.277 C 
ENDBRANCH   4  24
BRANCH   5  26
ATOM     26  C   UNL     1      -0.082   5.350   0.032  0.00  0.00    +0.184 C 
BRANCH  26  27
ATOM     27  N   UNL     1       0.162   5.835   1.393  0.00  0.00    -0.239 N 
ATOM     28  C   UNL     1      -0.783   6.093   2.356  0.00  0.00    +0.089 A 
ATOM     29  C   UNL     1      -2.170   5.989   2.402  0.00  0.00    +0.029 A 
ATOM     30  C   UNL     1      -2.838   6.326   3.546  0.00  0.00    +0.002 A 
ATOM     31  C   UNL     1      -2.146   6.764   4.667  0.00  0.00    +0.002 A 
ATOM     32  C   UNL     1      -0.785   6.869   4.649  0.00  0.00    +0.032 A 
ATOM     33  C   UNL     1      -0.076   6.531   3.489  0.00  0.00    +0.113 A 
ATOM     34  N   UNL     1       1.236   6.532   3.178  0.00  0.00    -0.129 NA
ATOM     35  N   UNL     1       1.407   6.132   1.967  0.00  0.00    -0.064 NA
ENDBRANCH  26  27
ENDBRANCH   5  26
TORSDOF 5
