REMARK  Name = ZINC63486258
REMARK  9 active torsions:
REMARK  status: ('A' for Active; 'I' for Inactive)
REMARK    1  A    between atoms: C_1  and  C_2
REMARK    2  A    between atoms: C_13  and  C_15
REMARK    3  A    between atoms: C_15  and  C_16
REMARK    4  A    between atoms: C_16  and  C_17
REMARK    5  A    between atoms: N_19  and  C_20
REMARK    6  A    between atoms: C_20  and  C_21
REMARK    7  A    between atoms: C_21  and  C_22
REMARK    8  A    between atoms: C_25  and  O_31
REMARK    9  A    between atoms: O_31  and  C_32
REMARK                            x       y       z     vdW  Elec       q    Type
REMARK                         _______ _______ _______ _____ _____    ______ ____
ROOT
ATOM      1  C   UNL     1       1.115  -1.984   1.060  0.00  0.00    +0.024 C 
ENDROOT
BRANCH   1  13
ATOM      2  C   UNL     1      -0.019   1.526   0.010  0.00  0.00    +0.013 C 
ATOM      3  C   UNL     1       0.002  -0.004   0.002  0.00  0.00    +0.033 C 
ATOM      4  C   UNL     1      -1.414  -0.524   0.009  0.00  0.00    -0.001 A 
ATOM      5  C   UNL     1      -2.102  -0.540  -1.177  0.00  0.00    +0.019 A 
ATOM      6  C   UNL     1      -3.414  -1.004  -1.222  0.00  0.00    +0.024 A 
ATOM      7  C   UNL     1      -4.038  -1.462  -0.047  0.00  0.00    +0.139 A 
ATOM      8  C   UNL     1      -3.330  -1.442   1.145  0.00  0.00    +0.093 A 
ATOM      9  C   UNL     1      -2.022  -0.977   1.172  0.00  0.00    +0.139 A 
ATOM     10  O   UNL     1      -1.363  -0.992   2.364  0.00  0.00    -0.425 OA
ATOM     11  C   UNL     1      -0.178  -0.354   2.429  0.00  0.00    +0.316 C 
ATOM     12  O   UNL     1       0.131   0.311   3.390  0.00  0.00    -0.250 OA
ATOM     13  C   UNL     1       0.747  -0.510   1.241  0.00  0.00    +0.106 C 
ATOM     14  O   UNL     1      -5.288  -1.848  -0.378  0.00  0.00    -0.459 OA
ATOM     15  C   UNL     1      -5.515  -1.666  -1.690  0.00  0.00    +0.109 A 
ATOM     16  C   UNL     1      -4.418  -1.155  -2.273  0.00  0.00    +0.001 A 
ATOM     17  C   UNL     1      -4.296  -0.819  -3.736  0.00  0.00    +0.039 C 
ATOM     18  C   UNL     1      -5.438  -1.512  -4.490  0.00  0.00    +0.005 C 
ATOM     19  C   UNL     1      -6.763  -1.226  -3.777  0.00  0.00    +0.008 C 
ATOM     20  C   UNL     1      -6.793  -1.971  -2.438  0.00  0.00    +0.075 C 
ENDBRANCH   1  13
BRANCH   1  21
ATOM     21  C   UNL     1       1.965  -2.446   2.245  0.00  0.00    +0.096 C 
BRANCH  21  22
ATOM     22  C   UNL     1       2.328  -3.898   2.067  0.00  0.00    +0.213 C 
ATOM     23  O   UNL     1       1.944  -4.503   1.088  0.00  0.00    -0.276 OA
ATOM     24  N   UNL     1       3.079  -4.524   2.995  0.00  0.00    -0.315 N 
ATOM     25  H   UNL     1       3.385  -4.040   3.777  0.00  0.00    +0.149 HD
BRANCH  24  26
ATOM     26  C   UNL     1       3.431  -5.935   2.821  0.00  0.00    +0.108 C 
BRANCH  26  27
ATOM     27  C   UNL     1       4.281  -6.398   4.006  0.00  0.00    +0.052 C 
BRANCH  27  28
ATOM     28  C   UNL     1       4.644  -7.850   3.828  0.00  0.00    -0.040 C 
ATOM     29  C   UNL     1       5.782  -8.343   3.290  0.00  0.00    +0.002 A 
ATOM     30  C   UNL     1       6.978  -7.703   2.730  0.00  0.00    +0.055 A 
ATOM     31  C   UNL     1       7.984  -8.472   2.252  0.00  0.00    +0.121 A 
ATOM     32  C   UNL     1       7.929  -9.877   2.270  0.00  0.00    +0.047 A 
ATOM     33  C   UNL     1       6.872 -10.557   2.764  0.00  0.00    +0.029 A 
ATOM     34  C   UNL     1       5.725  -9.823   3.309  0.00  0.00    +0.043 A 
ATOM     35  N   UNL     1       4.598 -10.228   3.837  0.00  0.00    -0.380 N 
ATOM     36  C   UNL     1       3.811  -9.050   4.221  0.00  0.00    +0.144 C 
ATOM     37  H   UNL     1       4.329 -11.152   3.958  0.00  0.00    +0.160 HD
BRANCH  31  38
ATOM     38  O   UNL     1       9.086  -7.865   1.736  0.00  0.00    -0.495 OA
ATOM     39  C   UNL     1      10.123  -8.715   1.242  0.00  0.00    +0.277 C 
ENDBRANCH  31  38
ENDBRANCH  27  28
ENDBRANCH  26  27
ENDBRANCH  24  26
ENDBRANCH  21  22
ENDBRANCH   1  21
TORSDOF 7
