REMARK  Name = ZINC20996883
REMARK  8 active torsions:
REMARK  status: ('A' for Active; 'I' for Inactive)
REMARK    1  A    between atoms: C_1  and  C_2
REMARK    2  A    between atoms: C_5  and  C_8
REMARK    3  A    between atoms: C_8  and  N_9
REMARK    4  A    between atoms: N_9  and  C_10
REMARK    5  A    between atoms: C_11  and  C_19
REMARK    6  A    between atoms: C_22  and  C_25
REMARK    7  A    between atoms: C_25  and  C_26
REMARK    8  A    between atoms: C_25  and  C_27
REMARK                            x       y       z     vdW  Elec       q    Type
REMARK                         _______ _______ _______ _____ _____    ______ ____
ROOT
ATOM      1  C   UNL     1       3.625   1.482  -0.664  0.00  0.00    +0.133 A 
ATOM      2  C   UNL     1       2.480   1.073  -0.016  0.00  0.00    +0.113 A 
ATOM      3  N   UNL     1       2.747  -0.093   0.606  0.00  0.00    -0.208 NA
ATOM      4  C   UNL     1       4.001  -0.438   0.370  0.00  0.00    +0.237 A 
ATOM      5  N   UNL     1       4.577   0.532  -0.420  0.00  0.00    -0.272 N 
ATOM      6  C   UNL     1       5.885   0.413  -0.804  0.00  0.00    +0.097 A 
ATOM      7  C   UNL     1       6.596  -0.665  -0.398  0.00  0.00    +0.038 A 
ATOM      8  C   UNL     1       5.977  -1.634   0.407  0.00  0.00    +0.116 A 
ATOM      9  N   UNL     1       4.722  -1.500   0.763  0.00  0.00    -0.220 NA
ENDROOT
BRANCH   2  10
ATOM     10  C   UNL     1       1.185   1.791   0.000  0.00  0.00    +0.004 A 
ATOM     11  C   UNL     1      -0.013   1.076   0.008  0.00  0.00    +0.010 A 
ATOM     12  C   UNL     1      -1.216   1.751   0.017  0.00  0.00    +0.004 A 
ATOM     13  C   UNL     1      -1.236   3.134   0.029  0.00  0.00    -0.045 A 
ATOM     14  C   UNL     1      -0.052   3.849   0.022  0.00  0.00    +0.004 A 
ATOM     15  C   UNL     1       1.158   3.186   0.008  0.00  0.00    +0.010 A 
BRANCH  13  16
ATOM     16  C   UNL     1      -2.554   3.865   0.045  0.00  0.00    +0.013 C 
ATOM     17  C   UNL     1      -3.361   3.488  -1.199  0.00  0.00    +0.012 C 
ATOM     18  C   UNL     1      -3.339   3.476   1.299  0.00  0.00    +0.012 C 
ENDBRANCH  13  16
ENDBRANCH   2  10
BRANCH   1  19
ATOM     19  N   UNL     1       3.783   2.642  -1.423  0.00  0.00    -0.324 N 
ATOM     20  H   UNL     1       3.047   3.429  -1.644  0.00  0.00    +0.148 HD
BRANCH  19  21
ATOM     21  C   UNL     1       5.147   2.740  -1.959  0.00  0.00    +0.138 C 
BRANCH  21  26
ATOM     22  C   UNL     1       5.652   7.581  -5.074  0.00  0.00    +0.044 C 
ATOM     23  C   UNL     1       5.521   6.318  -4.261  0.00  0.00    -0.050 A 
ATOM     24  C   UNL     1       5.802   6.334  -2.908  0.00  0.00    +0.003 A 
ATOM     25  C   UNL     1       5.681   5.176  -2.163  0.00  0.00    +0.005 A 
ATOM     26  C   UNL     1       5.279   4.002  -2.771  0.00  0.00    -0.030 A 
ATOM     27  C   UNL     1       5.002   3.985  -4.125  0.00  0.00    +0.005 A 
ATOM     28  C   UNL     1       5.118   5.144  -4.870  0.00  0.00    +0.003 A 
ENDBRANCH  21  26
ENDBRANCH  19  21
ENDBRANCH   1  19
TORSDOF 5
