REMARK  Name = ZINC64245932
REMARK  2 active torsions:
REMARK  status: ('A' for Active; 'I' for Inactive)
REMARK    1  A    between atoms: C_9  and  C_13
REMARK    2  A    between atoms: N_15  and  C_16
REMARK                            x       y       z     vdW  Elec       q    Type
REMARK                         _______ _______ _______ _____ _____    ______ ____
ROOT
ATOM      1  C   UNL     1      -0.017   1.379   0.010  0.00  0.00    +0.023 A 
ATOM      2  C   UNL     1       1.170   2.084   0.002  0.00  0.00    +0.047 A 
ATOM      3  C   UNL     1       2.386   1.409  -0.014  0.00  0.00    +0.124 A 
ATOM      4  C   UNL     1       2.402   0.025  -0.026  0.00  0.00    -0.004 A 
ATOM      5  C   UNL     1       1.209  -0.678  -0.015  0.00  0.00    +0.027 A 
ATOM      6  C   UNL     1       0.002  -0.004   0.002  0.00  0.00    +0.041 A 
ATOM      7 CL   UNL     1      -1.489  -0.893   0.015  0.00  0.00    -0.084 Cl
ATOM      8  C   UNL     1       3.698  -0.745  -0.055  0.00  0.00    +0.055 C 
ATOM      9  C   UNL     1       4.849   0.167   0.374  0.00  0.00    +0.117 C 
ATOM     10  C   UNL     1       4.739   1.483  -0.406  0.00  0.00    +0.242 C 
ATOM     11  O   UNL     1       3.532   2.138  -0.016  0.00  0.00    -0.491 OA
ENDROOT
BRANCH   9  12
ATOM     12  C   UNL     1       6.166  -0.499   0.067  0.00  0.00    +0.224 C 
ATOM     13  O   UNL     1       6.185  -1.597  -0.447  0.00  0.00    -0.275 OA
ATOM     14  N   UNL     1       7.323   0.127   0.362  0.00  0.00    -0.286 N 
ATOM     15  H   UNL     1       7.308   1.006   0.773  0.00  0.00    +0.155 HD
BRANCH  14  16
ATOM     16  C   UNL     1       8.527  -0.481   0.081  0.00  0.00    +0.053 C 
ATOM     17  C   UNL     1       8.739  -1.687  -0.489  0.00  0.00    +0.155 C 
ATOM     18  N   UNL     1      10.049  -1.933  -0.598  0.00  0.00    -0.161 NA
ATOM     19  N   UNL     1      10.784  -1.040  -0.171  0.00  0.00    -0.182 NA
ATOM     20  C   UNL     1       9.928   0.048   0.332  0.00  0.00    +0.218 C 
ENDBRANCH  14  16
ENDBRANCH   9  12
TORSDOF 2
