REMARK  Name = ZINC52397952
REMARK  6 active torsions:
REMARK  status: ('A' for Active; 'I' for Inactive)
REMARK    1  A    between atoms: C_4  and  C_7
REMARK    2  A    between atoms: C_16  and  C_19
REMARK    3  A    between atoms: N_21  and  C_22
REMARK    4  A    between atoms: C_22  and  C_23
REMARK    5  A    between atoms: N_25  and  C_26
REMARK    6  A    between atoms: C_26  and  C_27
REMARK                            x       y       z     vdW  Elec       q    Type
REMARK                         _______ _______ _______ _____ _____    ______ ____
ROOT
ATOM      1  C   UNL     1       3.711  -0.707  -0.038  0.00  0.00    -0.003 C 
ATOM      2  C   UNL     1       4.495  -0.320  -1.293  0.00  0.00    +0.015 C 
ATOM      3  C   UNL     1       5.830  -1.067  -1.311  0.00  0.00    -0.009 C 
ATOM      4  C   UNL     1       6.641  -0.693  -0.068  0.00  0.00    +0.007 C 
ATOM      5  C   UNL     1       5.857  -1.080   1.187  0.00  0.00    -0.009 C 
ATOM      6  C   UNL     1       4.521  -0.333   1.205  0.00  0.00    +0.015 C 
ATOM      7  C   UNL     1       5.598  -2.588   1.183  0.00  0.00    +0.019 C 
ATOM      8  C   UNL     1       4.787  -2.962  -0.060  0.00  0.00    +0.048 C 
ATOM      9  C   UNL     1       5.571  -2.575  -1.316  0.00  0.00    +0.019 C 
ATOM     10  C   UNL     1       3.452  -2.215  -0.042  0.00  0.00    +0.027 C 
ENDROOT
BRANCH   1  14
ATOM     11  C   UNL     1      -0.017   1.378   0.010  0.00  0.00    +0.000 A 
ATOM     12  C   UNL     1       1.171   2.086   0.002  0.00  0.00    +0.000 A 
ATOM     13  C   UNL     1       2.377   1.411  -0.013  0.00  0.00    +0.004 A 
ATOM     14  C   UNL     1       2.396   0.029  -0.020  0.00  0.00    -0.041 A 
ATOM     15  C   UNL     1       1.208  -0.679  -0.012  0.00  0.00    +0.004 A 
ATOM     16  C   UNL     1       0.002  -0.004   0.002  0.00  0.00    +0.000 A 
ENDBRANCH   1  14
BRANCH   8  17
ATOM     17  C   UNL     1       4.532  -4.447  -0.065  0.00  0.00    +0.220 C 
ATOM     18  O   UNL     1       3.394  -4.867  -0.055  0.00  0.00    -0.275 OA
ATOM     19  N   UNL     1       5.568  -5.309  -0.080  0.00  0.00    -0.306 N 
ATOM     20  H   UNL     1       6.478  -4.973  -0.088  0.00  0.00    +0.149 HD
BRANCH  19  21
ATOM     21  C   UNL     1       5.320  -6.753  -0.085  0.00  0.00    +0.200 C 
BRANCH  21  22
ATOM     22  C   UNL     1       6.635  -7.488  -0.102  0.00  0.00    +0.231 C 
ATOM     23  O   UNL     1       7.677  -6.868  -0.110  0.00  0.00    -0.274 OA
ATOM     24  N   UNL     1       6.653  -8.836  -0.109  0.00  0.00    -0.307 N 
ATOM     25  H   UNL     1       5.820  -9.332  -0.103  0.00  0.00    +0.149 HD
BRANCH  24  26
ATOM     26  C   UNL     1       7.932  -9.551  -0.126  0.00  0.00    +0.178 C 
BRANCH  26  27
ATOM     27  C   UNL     1       7.677 -11.036  -0.131  0.00  0.00    +0.122 A 
ATOM     28  C   UNL     1       7.537 -11.807  -1.224  0.00  0.00    +0.046 A 
ATOM     29  C   UNL     1       7.313 -13.127  -0.769  0.00  0.00    +0.041 A 
ATOM     30  C   UNL     1       7.329 -13.084   0.575  0.00  0.00    +0.195 A 
ATOM     31  O   UNL     1       7.556 -11.816   0.956  0.00  0.00    -0.466 OA
ENDBRANCH  26  27
ENDBRANCH  24  26
ENDBRANCH  21  22
ENDBRANCH  19  21
ENDBRANCH   8  17
TORSDOF 6
