REMARK  Name = ZINC20755351
REMARK  8 active torsions:
REMARK  status: ('A' for Active; 'I' for Inactive)
REMARK    1  A    between atoms: C_1  and  C_2
REMARK    2  A    between atoms: C_2  and  C_3
REMARK    3  A    between atoms: C_2  and  N_4
REMARK    4  A    between atoms: N_4  and  S_5
REMARK    5  A    between atoms: S_5  and  C_8
REMARK    6  A    between atoms: C_21  and  C_24
REMARK    7  A    between atoms: C_28  and  O_30
REMARK    8  A    between atoms: O_30  and  C_31
REMARK                            x       y       z     vdW  Elec       q    Type
REMARK                         _______ _______ _______ _____ _____    ______ ____
ROOT
ATOM      1  C   UNL     1       3.631  -1.492   1.960  0.00  0.00    +0.106 A 
ATOM      2  C   UNL     1       4.270  -0.353   1.507  0.00  0.00    +0.030 A 
ATOM      3  C   UNL     1       3.542   0.665   0.926  0.00  0.00    +0.025 A 
ATOM      4  C   UNL     1       2.163   0.555   0.793  0.00  0.00    +0.031 A 
ATOM      5  C   UNL     1       1.522  -0.596   1.267  0.00  0.00    -0.018 A 
ATOM      6  C   UNL     1       2.259  -1.610   1.839  0.00  0.00    +0.034 A 
ATOM      7  C   UNL     1       0.052  -0.663   1.128  0.00  0.00    +0.049 C 
ATOM      8  C   UNL     1      -0.674  -1.956   1.051  0.00  0.00    -0.023 C 
ATOM      9  C   UNL     1      -1.757  -1.791   0.302  0.00  0.00    -0.030 C 
ATOM     10  C   UNL     1      -1.820  -0.353  -0.216  0.00  0.00    +0.033 C 
ATOM     11  C   UNL     1      -0.338   0.045  -0.204  0.00  0.00    +0.029 C 
ATOM     12  C   UNL     1      -0.018   1.514   0.010  0.00  0.00    +0.105 C 
ATOM     13  N   UNL     1       1.450   1.585   0.168  0.00  0.00    -0.336 N 
ATOM     14  H   UNL     1       2.003   2.458  -0.210  0.00  0.00    +0.147 HD
ENDROOT
BRANCH  12  15
ATOM     15  C   UNL     1      -0.700   2.019   1.256  0.00  0.00    -0.024 A 
ATOM     16  C   UNL     1      -0.043   1.968   2.472  0.00  0.00    +0.006 A 
ATOM     17  C   UNL     1      -0.665   2.430   3.616  0.00  0.00    +0.004 A 
ATOM     18  C   UNL     1      -1.946   2.943   3.549  0.00  0.00    +0.045 A 
ATOM     19  C   UNL     1      -2.608   2.995   2.330  0.00  0.00    +0.120 A 
ATOM     20  C   UNL     1      -1.979   2.536   1.182  0.00  0.00    +0.051 A 
BRANCH  19  21
ATOM     21  O   UNL     1      -3.868   3.500   2.261  0.00  0.00    -0.495 OA
ATOM     22  C   UNL     1      -4.451   3.959   3.482  0.00  0.00    +0.277 C 
ENDBRANCH  19  21
ENDBRANCH  12  15
BRANCH   1  23
ATOM     23  S   UNL     1       4.566  -2.795   2.692  0.00  0.00    +0.059 S 
ATOM     24  O   UNL     1       5.764  -2.208   3.183  0.00  0.00    -0.153 OA
ATOM     25  O   UNL     1       3.672  -3.516   3.528  0.00  0.00    -0.153 OA
BRANCH  23  26
ATOM     26  N   UNL     1       5.008  -3.825   1.473  0.00  0.00    -0.187 NA
ATOM     27  H   UNL     1       4.491  -4.790   1.371  0.00  0.00    +0.148 HD
BRANCH  26  29
ATOM     28  C   UNL     1       7.351  -3.757   0.776  0.00  0.00    +0.025 C 
ATOM     29  C   UNL     1       5.916  -3.365   0.419  0.00  0.00    +0.070 C 
ATOM     30  C   UNL     1       5.526  -4.016  -0.910  0.00  0.00    +0.025 C 
ENDBRANCH  26  29
ENDBRANCH  23  26
ENDBRANCH   1  23
TORSDOF 5
