REMARK  Name = ZINC19589892
REMARK  7 active torsions:
REMARK  status: ('A' for Active; 'I' for Inactive)
REMARK    1  A    between atoms: C_1  and  N_2
REMARK    2  A    between atoms: N_5  and  C_8
REMARK    3  A    between atoms: C_8  and  C_10
REMARK    4  A    between atoms: C_8  and  C_17
REMARK    5  A    between atoms: C_13  and  O_16
REMARK    6  A    between atoms: N_21  and  C_22
REMARK    7  A    between atoms: C_22  and  C_23
REMARK                            x       y       z     vdW  Elec       q    Type
REMARK                         _______ _______ _______ _____ _____    ______ ____
ROOT
ATOM      1  C   UNL     1       2.669  -0.521   1.437  0.00  0.00    +0.157 C 
ENDROOT
BRANCH   1   6
ATOM      2  C   UNL     1       5.895  -5.141   1.041  0.00  0.00    -0.096 C 
ATOM      3  N   UNL     1       5.077  -3.938   0.830  0.00  0.00    +0.379 N 
ATOM      4  C   UNL     1       3.708  -4.139   1.324  0.00  0.00    -0.064 C 
ATOM      5  C   UNL     1       2.869  -2.897   1.015  0.00  0.00    +0.067 C 
ATOM      6  N   UNL     1       3.487  -1.723   1.647  0.00  0.00    -0.293 NA
ATOM      7  C   UNL     1       4.856  -1.522   1.154  0.00  0.00    +0.067 C 
ATOM      8  C   UNL     1       5.695  -2.764   1.463  0.00  0.00    -0.064 C 
ATOM      9  H   UNL     1       5.024  -3.753  -0.253  0.00  0.00    -0.082 HD
ENDBRANCH   1   6
BRANCH   1  10
ATOM     10  C   UNL     1       3.333   0.660   2.098  0.00  0.00    -0.023 A 
ATOM     11  C   UNL     1       3.805   0.551   3.393  0.00  0.00    +0.009 A 
ATOM     12  C   UNL     1       4.418   1.630   3.998  0.00  0.00    +0.046 A 
ATOM     13  C   UNL     1       4.550   2.828   3.311  0.00  0.00    +0.117 A 
ATOM     14  C   UNL     1       4.070   2.937   2.014  0.00  0.00    +0.046 A 
ATOM     15  C   UNL     1       3.463   1.853   1.410  0.00  0.00    +0.009 A 
BRANCH  13  16
ATOM     16  O   UNL     1       5.147   3.893   3.907  0.00  0.00    -0.507 OA
ATOM     17  H   UNL     1       5.251   4.842   3.361  0.00  0.00    +0.292 HD
ENDBRANCH  13  16
ENDBRANCH   1  10
BRANCH   1  18
ATOM     18  C   UNL     1       1.303  -0.731   2.037  0.00  0.00    +0.173 A 
ATOM     19  N   UNL     1       1.029  -0.950   3.300  0.00  0.00    -0.111 NA
ATOM     20  N   UNL     1      -0.248  -1.082   3.413  0.00  0.00    -0.023 NA
ATOM     21  N   UNL     1      -0.796  -0.947   2.256  0.00  0.00    -0.044 NA
ATOM     22  N   UNL     1       0.128  -0.726   1.382  0.00  0.00    -0.223 N 
BRANCH  22  23
ATOM     23  C   UNL     1      -0.067  -0.516  -0.055  0.00  0.00    +0.182 C 
BRANCH  23  24
ATOM     24  C   UNL     1      -0.326   0.945  -0.318  0.00  0.00    -0.026 A 
ATOM     25  C   UNL     1      -1.605   1.454  -0.187  0.00  0.00    +0.008 A 
ATOM     26  C   UNL     1      -1.843   2.795  -0.423  0.00  0.00    +0.038 A 
ATOM     27  C   UNL     1      -0.803   3.626  -0.803  0.00  0.00    +0.123 A 
ATOM     28  C   UNL     1       0.476   3.114  -0.939  0.00  0.00    +0.038 A 
ATOM     29  C   UNL     1       0.713   1.774  -0.697  0.00  0.00    +0.008 A 
ATOM     30  F   UNL     1      -1.036   4.936  -1.039  0.00  0.00    -0.205 F 
ENDBRANCH  23  24
ENDBRANCH  22  23
ENDBRANCH   1  18
TORSDOF 6
