REMARK  Name = ZINC38578007
REMARK  9 active torsions:
REMARK  status: ('A' for Active; 'I' for Inactive)
REMARK    1  A    between atoms: C_1  and  C_2
REMARK    2  A    between atoms: C_2  and  N_3
REMARK    3  A    between atoms: C_4  and  C_6
REMARK    4  A    between atoms: C_15  and  N_17
REMARK    5  A    between atoms: C_18  and  C_20
REMARK    6  A    between atoms: C_23  and  C_25
REMARK    7  A    between atoms: C_27  and  C_33
REMARK    8  A    between atoms: C_29  and  C_32
REMARK    9  A    between atoms: C_30  and  O_31
REMARK                            x       y       z     vdW  Elec       q    Type
REMARK                         _______ _______ _______ _____ _____    ______ ____
ROOT
ATOM      1  N   UNL     1       2.846  -0.306  -3.050  0.00  0.00    -0.294 N 
ATOM      2  C   UNL     1       3.984   0.087  -3.655  0.00  0.00    +0.261 C 
ATOM      3  O   UNL     1       4.288  -0.375  -4.739  0.00  0.00    -0.269 OA
ATOM      4  H   UNL     1       2.603   0.063  -2.187  0.00  0.00    +0.150 HD
ENDROOT
BRANCH   1  13
ATOM      5  C   UNL     1       1.128  -2.026  -2.675  0.00  0.00    +0.045 C 
ATOM      6  C   UNL     1       1.051  -3.331  -2.741  0.00  0.00    -0.046 C 
ATOM      7  C   UNL     1       0.332  -4.224  -1.730  0.00  0.00    +0.032 C 
ATOM      8  C   UNL     1       0.253  -5.617  -2.361  0.00  0.00    +0.004 C 
ATOM      9  C   UNL     1       1.633  -6.191  -2.649  0.00  0.00    +0.002 C 
ATOM     10  C   UNL     1       2.604  -5.155  -3.210  0.00  0.00    +0.018 C 
ATOM     11  C   UNL     1       1.816  -4.026  -3.877  0.00  0.00    +0.075 C 
ATOM     12  S   UNL     1       2.958  -2.685  -4.403  0.00  0.00    -0.126 S 
ATOM     13  C   UNL     1       1.975  -1.290  -3.697  0.00  0.00    +0.167 C 
BRANCH   5  15
ATOM     14  N   UNL     1       0.385   0.062  -1.650  0.00  0.00    -0.312 N 
ATOM     15  C   UNL     1       0.401  -1.285  -1.633  0.00  0.00    +0.243 C 
ATOM     16  O   UNL     1      -0.186  -1.889  -0.755  0.00  0.00    -0.270 OA
ATOM     17  H   UNL     1       0.911   0.545  -2.307  0.00  0.00    +0.149 HD
BRANCH  14  19
ATOM     18  C   UNL     1      -0.266   2.301  -0.913  0.00  0.00    +0.024 C 
ATOM     19  C   UNL     1      -0.426   0.798  -0.677  0.00  0.00    +0.101 C 
ENDBRANCH  14  19
ENDBRANCH   5  15
ENDBRANCH   1  13
BRANCH   2  20
ATOM     20  C   UNL     1       4.856   1.072  -3.008  0.00  0.00    +0.131 C 
ATOM     21  N   UNL     1       4.677   1.656  -1.852  0.00  0.00    -0.148 NA
ATOM     22  N   UNL     1       5.597   2.477  -1.527  0.00  0.00    -0.153 NA
ATOM     23  C   UNL     1       6.559   2.587  -2.416  0.00  0.00    +0.080 C 
ATOM     24  C   UNL     1       6.168   1.632  -3.532  0.00  0.00    +0.120 C 
BRANCH  23  25
ATOM     25  C   UNL     1       7.749   3.437  -2.343  0.00  0.00    +0.040 A 
ATOM     26  C   UNL     1       8.681   3.438  -3.390  0.00  0.00    +0.016 A 
ATOM     27  C   UNL     1       9.797   4.241  -3.314  0.00  0.00    -0.049 A 
ATOM     28  C   UNL     1      10.005   5.048  -2.206  0.00  0.00    +0.010 A 
ATOM     29  C   UNL     1       9.096   5.059  -1.166  0.00  0.00    -0.008 A 
ATOM     30  C   UNL     1       7.963   4.263  -1.224  0.00  0.00    +0.129 A 
ATOM     31  C   UNL     1       9.334   5.942   0.032  0.00  0.00    +0.047 C 
ATOM     32  C   UNL     1      10.798   4.241  -4.441  0.00  0.00    +0.044 C 
BRANCH  30  33
ATOM     33  O   UNL     1       7.067   4.276  -0.206  0.00  0.00    -0.506 OA
ATOM     34  H   UNL     1       7.250   3.627   0.487  0.00  0.00    +0.292 HD
ENDBRANCH  30  33
ENDBRANCH  23  25
ENDBRANCH   2  20
TORSDOF 6
