REMARK  Name = ZINC08970076
REMARK  5 active torsions:
REMARK  status: ('A' for Active; 'I' for Inactive)
REMARK    1  A    between atoms: C_1  and  C_2
REMARK    2  A    between atoms: C_5  and  N_8
REMARK    3  A    between atoms: C_11  and  C_17
REMARK    4  A    between atoms: C_12  and  O_16
REMARK    5  A    between atoms: C_14  and  O_15
REMARK                            x       y       z     vdW  Elec       q    Type
REMARK                         _______ _______ _______ _____ _____    ______ ____
ROOT
ATOM      1  N   UNL     1      -3.706   3.440   3.533  0.00  0.00    -0.231 N 
ATOM      2  C   UNL     1      -2.540   2.988   3.025  0.00  0.00    +0.267 A 
ATOM      3  O   UNL     1      -1.718   3.766   2.568  0.00  0.00    -0.267 OA
ATOM      4  C   UNL     1      -2.291   1.610   3.033  0.00  0.00    +0.071 A 
ATOM      5  C   UNL     1      -3.252   0.763   3.556  0.00  0.00    +0.224 A 
ATOM      6  N   UNL     1      -4.386   1.270   4.051  0.00  0.00    -0.161 NA
ATOM      7  C   UNL     1      -4.615   2.564   4.041  0.00  0.00    +0.306 A 
ENDROOT
BRANCH   4   8
ATOM      8  C   UNL     1      -1.003   1.060   2.476  0.00  0.00    +0.018 C 
ATOM      9  C   UNL     1      -0.936   1.326   0.991  0.00  0.00    +0.011 A 
ATOM     10  C   UNL     1       0.181   1.767   0.370  0.00  0.00    -0.022 A 
ATOM     11  C   UNL     1      -0.137   1.910  -1.033  0.00  0.00    +0.003 A 
ATOM     12  C   UNL     1       0.609   2.323  -2.141  0.00  0.00    +0.010 A 
ATOM     13  C   UNL     1      -0.034   2.336  -3.354  0.00  0.00    +0.001 A 
ATOM     14  C   UNL     1      -1.360   1.960  -3.488  0.00  0.00    +0.002 A 
ATOM     15  C   UNL     1      -2.123   1.547  -2.409  0.00  0.00    +0.026 A 
ATOM     16  C   UNL     1      -1.496   1.523  -1.165  0.00  0.00    +0.047 A 
ATOM     17  N   UNL     1      -1.944   1.177   0.078  0.00  0.00    -0.359 N 
ATOM     18  H   UNL     1      -2.842   0.870   0.282  0.00  0.00    +0.166 HD
ATOM     19  C   UNL     1       1.480   2.035   1.088  0.00  0.00    +0.018 C 
ATOM     20  C   UNL     1       1.408   1.363   2.466  0.00  0.00    -0.076 C 
ATOM     21  N   UNL     1       0.142   1.731   3.131  0.00  0.00    +0.388 N 
ATOM     22  H   UNL     1       0.182   1.446   4.117  0.00  0.00    -0.084 HD
ATOM     23  H   UNL     1       0.014   2.748   3.075  0.00  0.00    -0.084 HD
ENDBRANCH   4   8
BRANCH   1  28
ATOM     24  C   UNL     1      -4.819   9.005   3.549  0.00  0.00    +0.044 C 
ATOM     25  C   UNL     1      -4.523   7.527   3.545  0.00  0.00    -0.050 A 
ATOM     26  C   UNL     1      -3.877   6.950   4.622  0.00  0.00    +0.005 A 
ATOM     27  C   UNL     1      -3.605   5.596   4.621  0.00  0.00    +0.026 A 
ATOM     28  C   UNL     1      -3.981   4.814   3.537  0.00  0.00    +0.054 A 
ATOM     29  C   UNL     1      -4.625   5.398   2.454  0.00  0.00    +0.026 A 
ATOM     30  C   UNL     1      -4.899   6.752   2.463  0.00  0.00    +0.005 A 
ENDBRANCH   1  28
BRANCH   7  31
ATOM     31  O   UNL     1      -5.775   3.034   4.544  0.00  0.00    -0.479 OA
ATOM     32  H   UNL     1      -6.396   2.382   4.896  0.00  0.00    +0.295 HD
ENDBRANCH   7  31
BRANCH   5  33
ATOM     33  O   UNL     1      -3.042  -0.574   3.572  0.00  0.00    -0.492 OA
ATOM     34  H   UNL     1      -3.770  -1.082   3.957  0.00  0.00    +0.294 HD
ENDBRANCH   5  33
TORSDOF 4
