REMARK  Name = ZINC36318886
REMARK  3 active torsions:
REMARK  status: ('A' for Active; 'I' for Inactive)
REMARK    1  A    between atoms: C_5  and  C_13
REMARK    2  A    between atoms: C_6  and  C_11
REMARK    3  A    between atoms: C_11  and  O_12
REMARK                            x       y       z     vdW  Elec       q    Type
REMARK                         _______ _______ _______ _____ _____    ______ ____
ROOT
ATOM      1  C   UNL     1       0.018   1.262  -0.664  0.00  0.00    +0.006 A 
ATOM      2  C   UNL     1       1.149   1.999  -0.494  0.00  0.00    +0.047 A 
ATOM      3  C   UNL     1       2.369   1.343  -0.232  0.00  0.00    +0.139 A 
ATOM      4  N   UNL     1       3.596   1.798  -0.029  0.00  0.00    -0.227 NA
ATOM      5  C   UNL     1       4.422   0.760   0.180  0.00  0.00    +0.095 A 
ATOM      6  C   UNL     1       3.692  -0.388   0.106  0.00  0.00    +0.077 A 
ATOM      7  N   UNL     1       2.399  -0.026  -0.153  0.00  0.00    -0.288 N 
ATOM      8  C   UNL     1       1.257  -0.754  -0.327  0.00  0.00    +0.091 A 
ATOM      9  C   UNL     1       0.080  -0.138  -0.577  0.00  0.00    +0.034 A 
ATOM     10 BR   UNL     1       1.321  -2.640  -0.213  0.00  0.00    -0.030 Br
ENDROOT
BRANCH   5  11
ATOM     11  C   UNL     1       5.879   0.848   0.445  0.00  0.00    +0.006 A 
ATOM     12  C   UNL     1       6.755  -0.044  -0.170  0.00  0.00    +0.014 A 
ATOM     13  C   UNL     1       8.111   0.038   0.077  0.00  0.00    +0.050 A 
ATOM     14  C   UNL     1       8.605   1.008   0.937  0.00  0.00    +0.166 A 
ATOM     15  C   UNL     1       7.733   1.903   1.554  0.00  0.00    +0.167 A 
ATOM     16  C   UNL     1       6.374   1.826   1.305  0.00  0.00    +0.059 A 
ATOM     17  O   UNL     1       8.461   2.748   2.341  0.00  0.00    -0.453 OA
ATOM     18  C   UNL     1       9.736   2.104   2.519  0.00  0.00    +0.466 C 
ATOM     19  O   UNL     1       9.878   1.293   1.338  0.00  0.00    -0.453 OA
ENDBRANCH   5  11
BRANCH   6  20
ATOM     20  C   UNL     1       4.212  -1.792   0.278  0.00  0.00    +0.211 C 
BRANCH  20  21
ATOM     21  O   UNL     1       4.477  -2.362  -1.005  0.00  0.00    -0.389 OA
ATOM     22  H   UNL     1       4.815  -3.268  -0.972  0.00  0.00    +0.210 HD
ENDBRANCH  20  21
ENDBRANCH   6  20
TORSDOF 3
