REMARK  Name = ZINC39467080
REMARK  4 active torsions:
REMARK  status: ('A' for Active; 'I' for Inactive)
REMARK    1  A    between atoms: C_4  and  C_7
REMARK    2  A    between atoms: C_7  and  C_8
REMARK    3  A    between atoms: P_17  and  C_27
REMARK    4  A    between atoms: C_32  and  O_33
REMARK                            x       y       z     vdW  Elec       q    Type
REMARK                         _______ _______ _______ _____ _____    ______ ____
ROOT
ATOM      1  C   UNL     1       4.120  -1.075   1.366  0.00  0.00    -0.033 C 
ATOM      2  C   UNL     1       3.859  -2.293   1.841  0.00  0.00    -0.018 C 
ATOM      3  C   UNL     1       4.292  -2.630   3.241  0.00  0.00    +0.016 C 
ATOM      4  C   UNL     1       4.440  -4.136   3.436  0.00  0.00    -0.003 C 
ATOM      5  C   UNL     1       4.919  -4.421   4.867  0.00  0.00    -0.020 C 
ATOM      6  C   UNL     1       5.073  -5.941   5.001  0.00  0.00    +0.157 C 
ATOM      7  O   UNL     1       5.436  -6.266   6.356  0.00  0.00    -0.316 OA
ATOM      8  P   UNL     1       6.681  -5.456   7.021  0.00  0.00    +0.291 P 
ATOM      9  O   UNL     1       7.968  -6.038   6.577  0.00  0.00    -0.269 OA
ATOM     10  N   UNL     1       6.535  -3.906   6.470  0.00  0.00    -0.288 NA
ATOM     11  N   UNL     1       6.186  -3.746   5.144  0.00  0.00    +0.398 N 
ATOM     12  C   UNL     1       6.078  -2.291   4.937  0.00  0.00    -0.046 C 
ATOM     13  C   UNL     1       5.658  -1.984   3.506  0.00  0.00    +0.005 C 
ATOM     14  C   UNL     1       5.555  -0.507   3.243  0.00  0.00    -0.009 C 
ATOM     15  C   UNL     1       4.815  -0.091   2.215  0.00  0.00    +0.017 C 
ATOM     16 BR   UNL     1       4.653   1.758   1.854  0.00  0.00    -0.050 Br
ATOM     17  H   UNL     1       6.697  -3.148   7.053  0.00  0.00    +0.111 HD
ATOM     18  H   UNL     1       6.906  -4.120   4.544  0.00  0.00    -0.055 HD
ENDROOT
BRANCH   8  19
ATOM     19  C   UNL     1       6.564  -5.498   8.830  0.00  0.00    +0.091 A 
ATOM     20  C   UNL     1       5.869  -4.510   9.501  0.00  0.00    +0.018 A 
ATOM     21  C   UNL     1       5.780  -4.541  10.880  0.00  0.00    +0.001 A 
ATOM     22  C   UNL     1       6.385  -5.560  11.592  0.00  0.00    +0.004 A 
ATOM     23  C   UNL     1       7.080  -6.551  10.926  0.00  0.00    +0.046 A 
ATOM     24  C   UNL     1       7.167  -6.525   9.541  0.00  0.00    +0.131 A 
BRANCH  24  25
ATOM     25  O   UNL     1       7.846  -7.501   8.883  0.00  0.00    -0.506 OA
ATOM     26  H   UNL     1       8.784  -7.308   8.752  0.00  0.00    +0.292 HD
ENDBRANCH  24  25
ENDBRANCH   8  19
BRANCH   1  27
ATOM     27  C   UNL     1       3.711  -0.707  -0.038  0.00  0.00    +0.071 C 
BRANCH  27  31
ATOM     28  C   UNL     1       6.988  -1.369  -2.697  0.00  0.00    +0.000 A 
ATOM     29  C   UNL     1       6.146  -2.414  -2.364  0.00  0.00    +0.000 A 
ATOM     30  C   UNL     1       5.085  -2.200  -1.503  0.00  0.00    +0.004 A 
ATOM     31  C   UNL     1       4.868  -0.941  -0.975  0.00  0.00    -0.043 A 
ATOM     32  C   UNL     1       5.710   0.103  -1.307  0.00  0.00    +0.004 A 
ATOM     33  C   UNL     1       6.770  -0.111  -2.169  0.00  0.00    +0.000 A 
ENDBRANCH  27  31
ENDBRANCH   1  27
TORSDOF 4
