REMARK  Name = ZINC52569917
REMARK  9 active torsions:
REMARK  status: ('A' for Active; 'I' for Inactive)
REMARK    1  A    between atoms: C_1  and  C_2
REMARK    2  A    between atoms: C_5  and  C_12
REMARK    3  A    between atoms: C_14  and  O_23
REMARK    4  A    between atoms: C_17  and  C_18
REMARK    5  A    between atoms: O_23  and  C_24
REMARK    6  A    between atoms: C_24  and  C_25
REMARK    7  A    between atoms: C_25  and  C_27
REMARK    8  A    between atoms: C_25  and  N_37
REMARK    9  A    between atoms: C_27  and  C_28
REMARK                            x       y       z     vdW  Elec       q    Type
REMARK                         _______ _______ _______ _____ _____    ______ ____
ROOT
ATOM      1  C   UNL     1      -5.252   2.227   0.664  0.00  0.00    +0.012 A 
ATOM      2  C   UNL     1      -5.527   1.022   1.311  0.00  0.00    +0.057 A 
ATOM      3  C   UNL     1      -6.677   0.937   2.086  0.00  0.00    +0.139 A 
ATOM      4  C   UNL     1      -7.511   2.042   2.193  0.00  0.00    +0.157 A 
ATOM      5  N   UNL     1      -7.229   3.169   1.572  0.00  0.00    -0.251 NA
ATOM      6  C   UNL     1      -6.141   3.302   0.825  0.00  0.00    +0.082 A 
ENDROOT
BRANCH   1  11
ATOM      7  C   UNL     1       0.377   1.264   0.967  0.00  0.00    +0.068 C 
ATOM      8  C   UNL     1      -0.247   1.842  -0.277  0.00  0.00    +0.067 A 
ATOM      9  C   UNL     1      -1.665   2.132  -0.473  0.00  0.00    +0.023 A 
ATOM     10  C   UNL     1      -2.802   1.991   0.326  0.00  0.00    +0.020 A 
ATOM     11  C   UNL     1      -4.038   2.372  -0.175  0.00  0.00    -0.015 A 
ATOM     12  C   UNL     1      -4.143   2.893  -1.470  0.00  0.00    +0.010 A 
ATOM     13  C   UNL     1      -3.037   3.034  -2.256  0.00  0.00    +0.028 A 
ATOM     14  C   UNL     1      -1.784   2.658  -1.775  0.00  0.00    +0.066 A 
ATOM     15  N   UNL     1      -0.522   2.677  -2.309  0.00  0.00    -0.277 N 
ATOM     16  N   UNL     1       0.382   2.179  -1.366  0.00  0.00    -0.178 NA
ATOM     17  H   UNL     1      -0.293   2.990  -3.198  0.00  0.00    +0.189 HD
ENDBRANCH   1  11
BRANCH   6  18
ATOM     18  C   UNL     1      -5.864   4.593   0.152  0.00  0.00    +0.039 A 
ATOM     19  C   UNL     1      -6.847   5.529  -0.407  0.00  0.00    +0.051 A 
ATOM     20  C   UNL     1      -6.138   6.553  -0.912  0.00  0.00    +0.195 A 
ATOM     21  O   UNL     1      -4.832   6.321  -0.711  0.00  0.00    -0.470 OA
ATOM     22  C   UNL     1      -4.648   5.157  -0.072  0.00  0.00    +0.204 A 
ENDBRANCH   6  18
BRANCH   3  23
ATOM     23  O   UNL     1      -6.984  -0.218   2.734  0.00  0.00    -0.492 OA
BRANCH  23  24
ATOM     24  C   UNL     1      -8.183  -0.228   3.511  0.00  0.00    +0.213 C 
BRANCH  24  25
ATOM     25  C   UNL     1      -8.359  -1.602   4.160  0.00  0.00    -0.033 C 
BRANCH  25  26
ATOM     26  N   UNL     1      -7.272  -1.834   5.120  0.00  0.00    +0.382 N 
ATOM     27  H   UNL     1      -7.345  -1.171   5.877  0.00  0.00    -0.089 HD
ATOM     28  H   UNL     1      -7.340  -2.772   5.486  0.00  0.00    -0.089 HD
ATOM     29  H   UNL     1      -6.383  -1.717   4.656  0.00  0.00    -0.089 HD
ENDBRANCH  25  26
BRANCH  25  30
ATOM     30  C   UNL     1      -9.703  -1.653   4.889  0.00  0.00    +0.022 C 
BRANCH  30  31
ATOM     31  C   UNL     1      -9.926  -3.040   5.435  0.00  0.00    -0.025 C 
ATOM     32  C   UNL     1      -9.642  -3.479   6.685  0.00  0.00    +0.088 A 
ATOM     33  C   UNL     1     -10.022  -4.905   6.789  0.00  0.00    +0.061 A 
ATOM     34  N   UNL     1     -10.520  -5.332   5.659  0.00  0.00    -0.379 N 
ATOM     35  C   UNL     1     -10.519  -4.222   4.700  0.00  0.00    +0.146 C 
ATOM     36  C   UNL     1      -9.791  -5.575   8.080  0.00  0.00    +0.029 A 
ATOM     37  C   UNL     1      -9.247  -4.843   9.082  0.00  0.00    +0.022 A 
ATOM     38  C   UNL     1      -8.917  -3.491   8.891  0.00  0.00    +0.111 A 
ATOM     39  N   UNL     1      -9.104  -2.863   7.769  0.00  0.00    -0.254 NA
ATOM     40  H   UNL     1     -10.839  -6.231   5.484  0.00  0.00    +0.160 HD
ENDBRANCH  30  31
ENDBRANCH  25  30
ENDBRANCH  24  25
ENDBRANCH  23  24
ENDBRANCH   3  23
TORSDOF 8
