REMARK  Name = ZINC15239516
REMARK  6 active torsions:
REMARK  status: ('A' for Active; 'I' for Inactive)
REMARK    1  A    between atoms: C_1  and  C_2
REMARK    2  A    between atoms: C_2  and  C_4
REMARK    3  A    between atoms: C_2  and  N_29
REMARK    4  A    between atoms: C_7  and  C_10
REMARK    5  A    between atoms: C_16  and  C_18
REMARK    6  A    between atoms: C_30  and  C_32
REMARK                            x       y       z     vdW  Elec       q    Type
REMARK                         _______ _______ _______ _____ _____    ______ ____
ROOT
ATOM      1  C   UNL     1      -9.658   3.944   0.196  0.00  0.00    +0.080 A 
ATOM      2  C   UNL     1      -9.485   5.176  -0.371  0.00  0.00    +0.076 A 
ATOM      3  S   UNL     1      -7.701   5.257  -0.451  0.00  0.00    -0.060 S 
ATOM      4  C   UNL     1      -7.372   3.655   0.271  0.00  0.00    +0.165 A 
ATOM      5  N   UNL     1      -8.595   3.213   0.497  0.00  0.00    -0.225 NA
ATOM      6  N   UNL     1      -6.153   3.037   0.522  0.00  0.00    -0.264 N 
ATOM      7  C   UNL     1      -5.003   3.664   0.208  0.00  0.00    +0.225 C 
ATOM      8  O   UNL     1      -5.031   4.768  -0.294  0.00  0.00    -0.275 OA
ATOM      9  H   UNL     1      -6.131   2.155   0.924  0.00  0.00    +0.157 HD
ENDROOT
BRANCH   7  10
ATOM     10  C   UNL     1      -3.680   2.994   0.480  0.00  0.00    +0.117 C 
ATOM     11  C   UNL     1      -2.537   3.909   0.035  0.00  0.00    +0.055 C 
ATOM     12  C   UNL     1      -1.242   3.136   0.027  0.00  0.00    -0.005 A 
ATOM     13  C   UNL     1      -0.048   3.838   0.020  0.00  0.00    +0.007 A 
ATOM     14  C   UNL     1       1.157   3.162   0.008  0.00  0.00    +0.000 A 
ATOM     15  C   UNL     1       1.174   1.780   0.000  0.00  0.00    +0.004 A 
ATOM     16  C   UNL     1      -0.013   1.076   0.008  0.00  0.00    +0.046 A 
ATOM     17  C   UNL     1      -1.228   1.753   0.017  0.00  0.00    +0.124 A 
ATOM     18  O   UNL     1      -2.375   1.025   0.040  0.00  0.00    -0.491 OA
ATOM     19  C   UNL     1      -3.590   1.686  -0.317  0.00  0.00    +0.242 C 
ENDBRANCH   7  10
BRANCH   1  23
ATOM     20  C   UNL     1     -13.569   2.465   0.967  0.00  0.00    -0.027 A 
ATOM     21  C   UNL     1     -12.465   1.696   1.290  0.00  0.00    +0.006 A 
ATOM     22  C   UNL     1     -11.194   2.171   1.042  0.00  0.00    +0.010 A 
ATOM     23  C   UNL     1     -11.022   3.428   0.464  0.00  0.00    +0.001 A 
ATOM     24  C   UNL     1     -12.138   4.201   0.146  0.00  0.00    +0.010 A 
ATOM     25  C   UNL     1     -13.405   3.713   0.394  0.00  0.00    +0.006 A 
BRANCH  20  27
ATOM     26  C   UNL     1     -15.490   2.564   2.532  0.00  0.00    +0.033 C 
ATOM     27  C   UNL     1     -14.955   1.941   1.241  0.00  0.00    +0.100 C 
BRANCH  27  28
ATOM     28  N   UNL     1     -15.839   2.293   0.127  0.00  0.00    -0.309 N 
ATOM     29  C   UNL     1     -16.936   1.551  -0.123  0.00  0.00    +0.210 C 
ATOM     30  O   UNL     1     -17.192   0.593   0.575  0.00  0.00    -0.276 OA
ATOM     31  C   UNL     1     -17.846   1.913  -1.269  0.00  0.00    +0.109 C 
ATOM     32  H   UNL     1     -15.634   3.059  -0.432  0.00  0.00    +0.149 HD
ENDBRANCH  27  28
ENDBRANCH  20  27
ENDBRANCH   1  23
TORSDOF 4
