REMARK  Name = ZINC00423823
REMARK  3 active torsions:
REMARK  status: ('A' for Active; 'I' for Inactive)
REMARK    1  A    between atoms: C_4  and  N_20
REMARK    2  A    between atoms: C_5  and  C_7
REMARK    3  A    between atoms: N_9  and  C_14
REMARK                            x       y       z     vdW  Elec       q    Type
REMARK                         _______ _______ _______ _____ _____    ______ ____
ROOT
ATOM      1  C   UNL     1      -2.792   5.809   0.060  0.00  0.00    +0.167 C 
ATOM      2  N   UNL     1      -1.510   5.081   0.044  0.00  0.00    -0.282 N 
ATOM      3  C   UNL     1      -0.374   5.767   0.042  0.00  0.00    +0.227 C 
ATOM      4  O   UNL     1       0.700   5.205   0.039  0.00  0.00    -0.275 OA
ATOM      5  C   UNL     1      -0.469   7.285   0.040  0.00  0.00    +0.167 C 
ATOM      6  S   UNL     1      -2.247   7.511  -0.399  0.00  0.00    -0.124 S 
ENDROOT
BRANCH   1  11
ATOM      7  C   UNL     1      -3.211   5.408   3.790  0.00  0.00    +0.000 A 
ATOM      8  C   UNL     1      -4.539   5.755   3.958  0.00  0.00    +0.002 A 
ATOM      9  C   UNL     1      -5.301   6.121   2.864  0.00  0.00    +0.033 A 
ATOM     10  C   UNL     1      -4.734   6.143   1.603  0.00  0.00    +0.132 A 
ATOM     11  C   UNL     1      -3.408   5.790   1.435  0.00  0.00    +0.013 A 
ATOM     12  C   UNL     1      -2.646   5.426   2.529  0.00  0.00    +0.008 A 
BRANCH  10  13
ATOM     13  N   UNL     1      -5.549   6.539   0.432  0.00  0.00    +0.057 N 
ATOM     14  O   UNL     1      -6.717   6.849   0.581  0.00  0.00    -0.126 OA
ATOM     15  O   UNL     1      -5.051   6.554  -0.679  0.00  0.00    -0.126 OA
ENDBRANCH  10  13
ENDBRANCH   1  11
BRANCH   2  16
ATOM     16  C   UNL     1      -1.490   3.616   0.036  0.00  0.00    +0.077 C 
ATOM     17  C   UNL     1      -0.773   3.123  -1.223  0.00  0.00    +0.022 C 
ATOM     18  C   UNL     1      -0.753   1.593  -1.232  0.00  0.00    +0.002 C 
ATOM     19  C   UNL     1      -0.013   1.086   0.008  0.00  0.00    +0.000 C 
ATOM     20  C   UNL     1      -0.729   1.579   1.267  0.00  0.00    +0.002 C 
ATOM     21  C   UNL     1      -0.750   3.109   1.275  0.00  0.00    +0.022 C 
ENDBRANCH   2  16
TORSDOF 3
