REMARK  Name = ZINC64074536
REMARK  4 active torsions:
REMARK  status: ('A' for Active; 'I' for Inactive)
REMARK    1  A    between atoms: C_6  and  C_11
REMARK    2  A    between atoms: C_15  and  N_17
REMARK    3  A    between atoms: C_18  and  C_20
REMARK    4  A    between atoms: C_26  and  C_28
REMARK                            x       y       z     vdW  Elec       q    Type
REMARK                         _______ _______ _______ _____ _____    ______ ____
ROOT
ATOM      1  N   UNL     1       4.668  -6.043   2.326  0.00  0.00    -0.285 N 
ATOM      2  C   UNL     1       5.241  -6.642   3.389  0.00  0.00    +0.220 C 
ATOM      3  O   UNL     1       5.180  -6.123   4.484  0.00  0.00    -0.275 OA
ATOM      4  H   UNL     1       4.651  -6.493   1.467  0.00  0.00    +0.155 HD
ENDROOT
BRANCH   2   5
ATOM      5  C   UNL     1       5.957  -7.957   3.218  0.00  0.00    +0.078 C 
ATOM      6  C   UNL     1       4.978  -9.005   2.684  0.00  0.00    +0.032 C 
ATOM      7  C   UNL     1       5.717 -10.331   2.479  0.00  0.00    +0.108 C 
ATOM      8  N   UNL     1       6.375 -10.706   3.738  0.00  0.00    -0.301 N 
ATOM      9  C   UNL     1       7.268  -9.735   4.384  0.00  0.00    +0.108 C 
ATOM     10  C   UNL     1       6.512  -8.415   4.569  0.00  0.00    +0.032 C 
ATOM     11  C   UNL     1       6.163 -11.917   4.289  0.00  0.00    +0.219 C 
ATOM     12  O   UNL     1       5.423 -12.710   3.746  0.00  0.00    -0.275 OA
BRANCH  11  13
ATOM     13  C   UNL     1       6.846 -12.287   5.581  0.00  0.00    +0.082 C 
ATOM     14  C   UNL     1       6.990 -13.776   5.904  0.00  0.00    +0.021 C 
ATOM     15  C   UNL     1       8.211 -12.960   5.489  0.00  0.00    -0.017 C 
ATOM     16  C   UNL     1       8.887 -13.189   4.125  0.00  0.00    +0.008 C 
ATOM     17  C   UNL     1      10.228 -12.421   4.236  0.00  0.00    +0.001 C 
ATOM     18  C   UNL     1      10.651 -12.677   5.704  0.00  0.00    +0.001 C 
ATOM     19  C   UNL     1       9.325 -12.634   6.494  0.00  0.00    +0.008 C 
ENDBRANCH  11  13
ENDBRANCH   2   5
BRANCH   1  24
ATOM     20  C   UNL     1       2.421  -3.172   1.848  0.00  0.00    -0.020 A 
ATOM     21  C   UNL     1       2.969  -2.261   2.731  0.00  0.00    +0.006 A 
ATOM     22  C   UNL     1       4.080  -2.602   3.481  0.00  0.00    +0.002 A 
ATOM     23  C   UNL     1       4.646  -3.855   3.349  0.00  0.00    +0.023 A 
ATOM     24  C   UNL     1       4.097  -4.773   2.463  0.00  0.00    +0.034 A 
ATOM     25  C   UNL     1       2.978  -4.429   1.715  0.00  0.00    +0.029 A 
BRANCH  20  31
ATOM     26  C   UNL     1      -1.966   0.336   2.319  0.00  0.00    +0.001 A 
ATOM     27  C   UNL     1      -1.132   1.133   1.523  0.00  0.00    +0.002 A 
ATOM     28  C   UNL     1      -0.032   0.651   0.908  0.00  0.00    +0.026 A 
ATOM     29  C   UNL     1       0.328  -0.718   1.049  0.00  0.00    +0.043 A 
ATOM     30  N   UNL     1       1.328  -1.412   0.561  0.00  0.00    -0.374 N 
ATOM     31  C   UNL     1       1.210  -2.796   1.033  0.00  0.00    +0.133 C 
ATOM     32  C   UNL     1      -0.032  -2.837   1.895  0.00  0.00    +0.012 C 
ATOM     33  C   UNL     1      -0.536  -1.581   1.885  0.00  0.00    -0.004 A 
ATOM     34  C   UNL     1      -1.714  -0.978   2.519  0.00  0.00    +0.010 A 
ATOM     35  H   UNL     1       2.028  -1.068  -0.015  0.00  0.00    +0.161 HD
ENDBRANCH  20  31
ENDBRANCH   1  24
TORSDOF 4
