REMARK  Name = ZINC22525360
REMARK  16 active torsions:
REMARK  status: ('A' for Active; 'I' for Inactive)
REMARK    1  A    between atoms: C_1  and  C_2
REMARK    2  A    between atoms: C_3  and  C_32
REMARK    3  A    between atoms: N_4  and  C_26
REMARK    4  A    between atoms: C_5  and  N_9
REMARK    5  A    between atoms: C_6  and  C_7
REMARK    6  A    between atoms: C_10  and  C_12
REMARK    7  A    between atoms: C_12  and  O_13
REMARK    8  A    between atoms: O_13  and  C_14
REMARK    9  A    between atoms: C_14  and  C_16
REMARK   10  A    between atoms: C_16  and  C_18
REMARK   11  A    between atoms: C_16  and  N_19
REMARK   12  A    between atoms: C_20  and  C_22
REMARK   13  A    between atoms: C_22  and  C_23
REMARK   14  A    between atoms: C_22  and  C_24
REMARK   15  A    between atoms: C_22  and  C_25
REMARK   16  A    between atoms: C_26  and  C_27
REMARK                            x       y       z     vdW  Elec       q    Type
REMARK                         _______ _______ _______ _____ _____    ______ ____
ROOT
ATOM      1  N   UNL     1       1.769   3.174   0.002  0.00  0.00    -0.268 N 
ATOM      2  C   UNL     1       3.088   3.426  -0.112  0.00  0.00    +0.256 C 
ATOM      3  O   UNL     1       3.865   2.516  -0.307  0.00  0.00    -0.272 OA
ATOM      4  H   UNL     1       1.055   4.006   0.082  0.00  0.00    +0.156 HD
ENDROOT
BRANCH   1   9
ATOM      5  C   UNL     1       1.417  -1.824   0.663  0.00  0.00    +0.047 C 
ATOM      6  C   UNL     1       1.122  -0.391   0.303  0.00  0.00    -0.011 A 
ATOM      7  C   UNL     1      -0.004   0.079  -0.258  0.00  0.00    +0.022 A 
ATOM      8  N   UNL     1       0.106   1.432  -0.431  0.00  0.00    -0.324 N 
ATOM      9  C   UNL     1       1.313   1.864   0.019  0.00  0.00    +0.124 A 
ATOM     10  C   UNL     1       2.009   0.763   0.497  0.00  0.00    +0.095 A 
ATOM     11  C   UNL     1      -1.202  -0.754  -0.638  0.00  0.00    +0.064 C 
BRANCH  10  12
ATOM     12  C   UNL     1       3.321   0.754   1.070  0.00  0.00    +0.103 C 
ATOM     13  N   UNL     1       4.362   0.747   1.524  0.00  0.00    -0.191 NA
ENDBRANCH  10  12
BRANCH   8  14
ATOM     14  C   UNL     1      -0.927   2.291  -1.015  0.00  0.00    +0.197 C 
BRANCH  14  15
ATOM     15  C   UNL     1      -1.908   2.696   0.055  0.00  0.00    +0.124 A 
ATOM     16  C   UNL     1      -1.812   3.784   0.839  0.00  0.00    +0.046 A 
ATOM     17  C   UNL     1      -2.939   3.776   1.692  0.00  0.00    +0.041 A 
ATOM     18  C   UNL     1      -3.653   2.678   1.383  0.00  0.00    +0.195 A 
ATOM     19  O   UNL     1      -3.023   2.028   0.391  0.00  0.00    -0.466 OA
ENDBRANCH  14  15
ENDBRANCH   8  14
ENDBRANCH   1   9
BRANCH   2  20
ATOM     20  C   UNL     1       3.598   4.840   0.004  0.00  0.00    +0.328 C 
BRANCH  20  21
ATOM     21  O   UNL     1       5.041   4.849  -0.153  0.00  0.00    -0.454 OA
BRANCH  21  22
ATOM     22  C   UNL     1       5.655   6.040  -0.075  0.00  0.00    +0.328 C 
ATOM     23  O   UNL     1       5.008   7.042   0.117  0.00  0.00    -0.249 OA
BRANCH  22  24
ATOM     24  C   UNL     1       7.152   6.127  -0.229  0.00  0.00    +0.179 C 
ATOM     25  C   UNL     1       7.556   5.591  -1.604  0.00  0.00    +0.040 C 
BRANCH  24  26
ATOM     26  N   UNL     1       7.574   7.524  -0.105  0.00  0.00    -0.302 N 
ATOM     27  C   UNL     1       8.829   7.817   0.293  0.00  0.00    +0.219 C 
ATOM     28  O   UNL     1       9.607   6.923   0.549  0.00  0.00    -0.275 OA
ATOM     29  H   UNL     1       6.868   8.335  -0.338  0.00  0.00    +0.150 HD
BRANCH  27  30
ATOM     30  C   UNL     1       9.263   9.254   0.419  0.00  0.00    +0.039 C 
ATOM     31  C   UNL     1      10.720   9.307   0.884  0.00  0.00    +0.020 C 
ATOM     32  C   UNL     1       9.136   9.947  -0.939  0.00  0.00    +0.020 C 
ATOM     33  C   UNL     1       8.376   9.967   1.441  0.00  0.00    +0.020 C 
ENDBRANCH  27  30
ENDBRANCH  24  26
ENDBRANCH  22  24
ENDBRANCH  21  22
ENDBRANCH  20  21
ENDBRANCH   2  20
TORSDOF 10
