REMARK  Name = ZINC21155543
REMARK  7 active torsions:
REMARK  status: ('A' for Active; 'I' for Inactive)
REMARK    1  A    between atoms: C_1  and  N_2
REMARK    2  A    between atoms: C_6  and  C_7
REMARK    3  A    between atoms: C_7  and  C_9
REMARK    4  A    between atoms: C_7  and  N_25
REMARK    5  A    between atoms: C_9  and  N_10
REMARK    6  A    between atoms: C_11  and  C_13
REMARK    7  A    between atoms: N_15  and  C_16
REMARK                            x       y       z     vdW  Elec       q    Type
REMARK                         _______ _______ _______ _____ _____    ______ ____
ROOT
ATOM      1  C   UNL     1      -4.438  -3.136  -0.299  0.00  0.00    +0.129 C 
ENDROOT
BRANCH   1   2
ATOM      2  N   UNL     1      -3.076  -2.864   0.167  0.00  0.00    -0.306 N 
ATOM      3  C   UNL     1      -2.618  -1.597   0.207  0.00  0.00    +0.299 C 
ATOM      4  O   UNL     1      -3.334  -0.682  -0.143  0.00  0.00    -0.265 OA
ATOM      5  H   UNL     1      -2.426  -3.693   0.484  0.00  0.00    +0.149 HD
BRANCH   3   6
ATOM      6  C   UNL     1      -1.230  -1.319   0.681  0.00  0.00    +0.303 C 
ATOM      7  O   UNL     1      -0.513  -2.234   1.032  0.00  0.00    -0.265 OA
ATOM      8  N   UNL     1      -0.772  -0.052   0.721  0.00  0.00    -0.278 N 
ATOM      9  H   UNL     1      -1.451   0.785   0.499  0.00  0.00    +0.155 HD
BRANCH   8  10
ATOM     10  C   UNL     1       0.565   0.199   1.045  0.00  0.00    +0.038 A 
ATOM     11  C   UNL     1       1.558  -0.674   0.620  0.00  0.00    +0.027 A 
ATOM     12  C   UNL     1       2.880  -0.424   0.935  0.00  0.00    +0.051 A 
ATOM     13  C   UNL     1       3.218   0.694   1.679  0.00  0.00    +0.166 A 
ATOM     14  C   UNL     1       2.224   1.569   2.112  0.00  0.00    +0.168 A 
ATOM     15  C   UNL     1       0.899   1.318   1.797  0.00  0.00    +0.072 A 
ATOM     16  O   UNL     1       2.809   2.580   2.818  0.00  0.00    -0.453 OA
ATOM     17  C   UNL     1       4.205   2.537   2.467  0.00  0.00    +0.466 C 
ATOM     18  O   UNL     1       4.427   1.159   2.115  0.00  0.00    -0.453 OA
ENDBRANCH   8  10
ENDBRANCH   3   6
ENDBRANCH   1   2
BRANCH   1  19
ATOM     19  C   UNL     1      -4.647  -4.648  -0.406  0.00  0.00    +0.121 C 
BRANCH  19  20
ATOM     20  N   UNL     1      -3.766  -5.192  -1.449  0.00  0.00    -0.288 NA
ATOM     21  C   UNL     1      -2.365  -5.210  -0.999  0.00  0.00    +0.090 C 
ATOM     22  C   UNL     1      -1.563  -6.103  -1.946  0.00  0.00    +0.051 C 
ATOM     23  C   UNL     1      -1.828  -5.707  -3.376  0.00  0.00    -0.042 A 
ATOM     24  C   UNL     1      -0.951  -6.144  -4.357  0.00  0.00    +0.004 A 
ATOM     25  C   UNL     1      -1.160  -5.808  -5.679  0.00  0.00    +0.000 A 
ATOM     26  C   UNL     1      -2.249  -5.030  -6.027  0.00  0.00    +0.000 A 
ATOM     27  C   UNL     1      -3.121  -4.593  -5.052  0.00  0.00    +0.005 A 
ATOM     28  C   UNL     1      -2.913  -4.930  -3.722  0.00  0.00    -0.030 A 
ATOM     29  C   UNL     1      -3.890  -4.426  -2.693  0.00  0.00    +0.120 C 
ENDBRANCH  19  20
BRANCH  19  35
ATOM     30  C   UNL     1      -7.151  -3.794   1.211  0.00  0.00    +0.148 C 
ATOM     31  N   UNL     1      -7.176  -4.551  -0.043  0.00  0.00    -0.352 N 
ATOM     32  C   UNL     1      -8.297  -4.990  -0.683  0.00  0.00    +0.085 A 
ATOM     33  C   UNL     1      -7.916  -5.645  -1.799  0.00  0.00    +0.019 A 
ATOM     34  C   UNL     1      -6.509  -5.603  -1.853  0.00  0.00    +0.024 A 
ATOM     35  C   UNL     1      -6.083  -4.933  -0.763  0.00  0.00    +0.037 A 
ENDBRANCH  19  35
ENDBRANCH   1  19
TORSDOF 6
