REMARK  Name = ZINC22936745
REMARK  7 active torsions:
REMARK  status: ('A' for Active; 'I' for Inactive)
REMARK    1  A    between atoms: C_1  and  N_2
REMARK    2  A    between atoms: C_4  and  C_11
REMARK    3  A    between atoms: C_11  and  N_12
REMARK    4  A    between atoms: N_12  and  C_13
REMARK    5  A    between atoms: C_22  and  C_26
REMARK    6  A    between atoms: C_26  and  C_27
REMARK    7  A    between atoms: C_27  and  C_28
REMARK                            x       y       z     vdW  Elec       q    Type
REMARK                         _______ _______ _______ _____ _____    ______ ____
ROOT
ATOM      1  C   UNL     1      -1.433  -4.959  -2.482  0.00  0.00    +0.036 C 
ATOM      2  C   UNL     1      -1.127  -6.311  -1.775  0.00  0.00    +0.010 C 
ATOM      3  C   UNL     1      -2.042  -7.277  -2.541  0.00  0.00    +0.021 C 
ATOM      4  C   UNL     1      -2.398  -8.533  -1.815  0.00  0.00    +0.200 C 
ATOM      5  O   UNL     1      -1.598  -9.064  -1.074  0.00  0.00    -0.278 OA
ATOM      6  N   UNL     1      -3.622  -9.067  -1.998  0.00  0.00    -0.318 N 
ATOM      7  C   UNL     1      -4.688  -8.439  -2.768  0.00  0.00    +0.089 C 
ATOM      8  C   UNL     1      -4.192  -7.210  -3.545  0.00  0.00    -0.050 C 
ATOM      9  N   UNL     1      -3.284  -6.470  -2.691  0.00  0.00    +0.391 N 
ATOM     10  C   UNL     1      -2.829  -5.151  -3.130  0.00  0.00    -0.059 C 
ATOM     11  H   UNL     1      -3.806  -9.927  -1.589  0.00  0.00    +0.149 HD
ATOM     12  H   UNL     1      -3.717  -6.369  -1.786  0.00  0.00    -0.080 HD
ENDROOT
BRANCH   1  13
ATOM     13  N   UNL     1      -1.472  -3.867  -1.500  0.00  0.00    -0.311 NA
ATOM     14  H   UNL     1      -1.872  -4.178  -0.628  0.00  0.00    +0.122 HD
BRANCH  13  15
ATOM     15  C   UNL     1      -0.133  -3.299  -1.292  0.00  0.00    +0.118 C 
BRANCH  15  19
ATOM     16  C   UNL     1      -0.369   1.302   0.720  0.00  0.00    +0.149 C 
ATOM     17  N   UNL     1      -0.317  -0.159   0.623  0.00  0.00    -0.349 N 
ATOM     18  C   UNL     1      -0.244  -0.868  -0.545  0.00  0.00    +0.091 A 
ATOM     19  C   UNL     1      -0.212  -2.183  -0.281  0.00  0.00    -0.008 A 
ATOM     20  C   UNL     1      -0.270  -2.330   1.175  0.00  0.00    +0.004 A 
ATOM     21  C   UNL     1      -0.329  -1.024   1.695  0.00  0.00    +0.049 A 
ATOM     22  C   UNL     1      -0.387  -0.841   3.072  0.00  0.00    +0.026 A 
ATOM     23  C   UNL     1      -0.382  -1.935   3.909  0.00  0.00    +0.002 A 
ATOM     24  C   UNL     1      -0.320  -3.221   3.391  0.00  0.00    +0.001 A 
ATOM     25  C   UNL     1      -0.271  -3.425   2.041  0.00  0.00    +0.010 A 
ENDBRANCH  15  19
ENDBRANCH  13  15
ENDBRANCH   1  13
BRANCH   8  26
ATOM     26  C   UNL     1      -5.379  -6.324  -3.930  0.00  0.00    -0.005 C 
BRANCH  26  27
ATOM     27  C   UNL     1      -6.275  -7.074  -4.918  0.00  0.00    +0.095 C 
BRANCH  27  28
ATOM     28  C   UNL     1      -7.375  -6.159  -5.393  0.00  0.00    +0.220 C 
ATOM     29  O   UNL     1      -7.435  -5.020  -4.981  0.00  0.00    -0.275 OA
ATOM     30  N   UNL     1      -8.290  -6.607  -6.274  0.00  0.00    -0.271 N 
ATOM     31  C   UNL     1      -9.398  -5.812  -6.811  0.00  0.00    +0.118 C 
ATOM     32  C   UNL     1     -10.149  -6.758  -7.763  0.00  0.00    +0.056 C 
ATOM     33  C   UNL     1      -9.382  -8.060  -7.689  0.00  0.00    -0.024 A 
ATOM     34  C   UNL     1      -8.319  -7.896  -6.815  0.00  0.00    +0.039 A 
ATOM     35  C   UNL     1      -7.457  -8.971  -6.587  0.00  0.00    +0.024 A 
ATOM     36  C   UNL     1      -7.662 -10.174  -7.228  0.00  0.00    +0.002 A 
ATOM     37  C   UNL     1      -8.723 -10.326  -8.101  0.00  0.00    +0.000 A 
ATOM     38  C   UNL     1      -9.586  -9.269  -8.325  0.00  0.00    +0.005 A 
ENDBRANCH  27  28
ENDBRANCH  26  27
ENDBRANCH   8  26
TORSDOF 6
