REMARK  Name = ZINC06162978
REMARK  9 active torsions:
REMARK  status: ('A' for Active; 'I' for Inactive)
REMARK    1  A    between atoms: C_1  and  C_2
REMARK    2  A    between atoms: C_5  and  C_33
REMARK    3  A    between atoms: C_6  and  O_8
REMARK    4  A    between atoms: O_8  and  C_9
REMARK    5  A    between atoms: C_15  and  O_32
REMARK    6  A    between atoms: C_16  and  C_24
REMARK    7  A    between atoms: C_19  and  C_20
REMARK    8  A    between atoms: C_24  and  N_59
REMARK    9  A    between atoms: C_28  and  C_31
REMARK                            x       y       z     vdW  Elec       q    Type
REMARK                         _______ _______ _______ _____ _____    ______ ____
ROOT
ATOM      1  C   UNL     1       2.262   5.371   0.006  0.00  0.00    +0.222 A 
ATOM      2  C   UNL     1       2.387   3.953  -0.001  0.00  0.00    +0.235 A 
ATOM      3  O   UNL     1       3.480   3.412  -0.013  0.00  0.00    -0.283 OA
ATOM      4  C   UNL     1       1.142   3.166   0.008  0.00  0.00    +0.068 A 
ATOM      5  C   UNL     1       1.163   1.771   0.001  0.00  0.00    +0.019 A 
ATOM      6  C   UNL     1      -0.013   1.076   0.008  0.00  0.00    +0.046 A 
ATOM      7  C   UNL     1      -1.231   1.752   0.017  0.00  0.00    +0.122 A 
ATOM      8  C   UNL     1      -1.269   3.136   0.030  0.00  0.00    +0.020 A 
ATOM      9  C   UNL     1      -0.083   3.857   0.023  0.00  0.00    +0.144 A 
ATOM     10  O   UNL     1      -0.091   5.205   0.029  0.00  0.00    -0.447 OA
ATOM     11  C   UNL     1       1.036   5.930   0.021  0.00  0.00    +0.254 A 
ENDROOT
BRANCH  11  12
ATOM     12  C   UNL     1       0.927   7.433   0.029  0.00  0.00    +0.454 C 
ATOM     13  F   UNL     1       0.880   7.904  -1.288  0.00  0.00    -0.163 F 
ATOM     14  F   UNL     1      -0.239   7.813   0.702  0.00  0.00    -0.163 F 
ATOM     15  F   UNL     1       2.039   7.977   0.680  0.00  0.00    -0.163 F 
ENDBRANCH  11  12
BRANCH   7  16
ATOM     16  O   UNL     1      -2.392   1.048   0.019  0.00  0.00    -0.506 OA
ATOM     17  H   UNL     1      -2.724   0.839   0.903  0.00  0.00    +0.292 HD
ENDBRANCH   7  16
BRANCH   1  18
ATOM     18  O   UNL     1       3.373   6.157  -0.001  0.00  0.00    -0.448 OA
BRANCH  18  24
ATOM     19  C   UNL     1       3.222   5.998   4.875  0.00  0.00    +0.044 C 
ATOM     20  C   UNL     1       3.861   6.463   3.591  0.00  0.00    -0.047 A 
ATOM     21  C   UNL     1       4.989   7.260   3.631  0.00  0.00    +0.004 A 
ATOM     22  C   UNL     1       5.577   7.689   2.455  0.00  0.00    +0.007 A 
ATOM     23  C   UNL     1       5.038   7.321   1.238  0.00  0.00    -0.008 A 
ATOM     24  C   UNL     1       3.906   6.520   1.195  0.00  0.00    +0.132 A 
ATOM     25  C   UNL     1       3.314   6.096   2.377  0.00  0.00    +0.050 A 
ATOM     26  C   UNL     1       5.679   7.789  -0.043  0.00  0.00    +0.047 C 
ENDBRANCH  18  24
ENDBRANCH   1  18
BRANCH   8  27
ATOM     27  C   UNL     1      -2.592   3.857   0.047  0.00  0.00    -0.036 C 
BRANCH  27  34
ATOM     28  C   UNL     1      -2.876   2.891  -2.155  0.00  0.00    -0.078 C 
ATOM     29  C   UNL     1      -3.208   3.218  -3.613  0.00  0.00    -0.018 C 
ATOM     30  C   UNL     1      -4.648   3.731  -3.700  0.00  0.00    -0.001 C 
ATOM     31  C   UNL     1      -4.800   4.958  -2.798  0.00  0.00    -0.031 C 
ATOM     32  C   UNL     1      -4.421   4.581  -1.364  0.00  0.00    -0.075 C 
ATOM     33  C   UNL     1      -6.251   5.442  -2.833  0.00  0.00    +0.005 C 
ATOM     34  N   UNL     1      -3.017   4.119  -1.344  0.00  0.00    +0.383 N 
ATOM     35  H   UNL     1      -2.420   4.853  -1.742  0.00  0.00    -0.081 HD
ENDBRANCH  27  34
ENDBRANCH   8  27
TORSDOF 6
