REMARK  Name = ZINC65994602
REMARK  6 active torsions:
REMARK  status: ('A' for Active; 'I' for Inactive)
REMARK    1  A    between atoms: C_1  and  C_2
REMARK    2  A    between atoms: C_2  and  C_3
REMARK    3  A    between atoms: C_2  and  N_15
REMARK    4  A    between atoms: C_7  and  N_9
REMARK    5  A    between atoms: N_18  and  C_19
REMARK    6  A    between atoms: C_28  and  O_30
REMARK                            x       y       z     vdW  Elec       q    Type
REMARK                         _______ _______ _______ _____ _____    ______ ____
ROOT
ATOM      1  N   UNL     1       0.687  -0.447  -1.193  0.00  0.00    -0.293 N 
ATOM      2  C   UNL     1       2.031  -0.543  -1.199  0.00  0.00    +0.301 C 
ATOM      3  O   UNL     1       2.667  -0.239  -0.208  0.00  0.00    -0.253 OA
ATOM      4  N   UNL     1       2.671  -0.977  -2.303  0.00  0.00    -0.290 N 
ATOM      5  H   UNL     1       0.180  -0.690  -1.983  0.00  0.00    +0.151 HD
ATOM      6  H   UNL     1       2.164  -1.219  -3.093  0.00  0.00    +0.151 HD
ENDROOT
BRANCH   4   7
ATOM      7  C   UNL     1       4.132  -1.081  -2.309  0.00  0.00    +0.134 C 
ATOM      8  C   UNL     1       4.751   0.234  -2.730  0.00  0.00    -0.021 A 
ATOM      9  C   UNL     1       4.948   1.403  -2.013  0.00  0.00    +0.006 A 
ATOM     10  C   UNL     1       5.542   2.495  -2.614  0.00  0.00    +0.000 A 
ATOM     11  C   UNL     1       5.942   2.423  -3.936  0.00  0.00    +0.000 A 
ATOM     12  C   UNL     1       5.747   1.258  -4.652  0.00  0.00    +0.004 A 
ATOM     13  C   UNL     1       5.152   0.162  -4.051  0.00  0.00    -0.040 A 
ATOM     14  C   UNL     1       4.829  -1.208  -4.608  0.00  0.00    +0.069 C 
ATOM     15  C   UNL     1       4.591  -2.104  -3.371  0.00  0.00    +0.143 C 
BRANCH  15  16
ATOM     16  O   UNL     1       3.566  -3.065  -3.627  0.00  0.00    -0.389 OA
ATOM     17  H   UNL     1       3.806  -3.730  -4.287  0.00  0.00    +0.210 HD
ENDBRANCH  15  16
ENDBRANCH   4   7
BRANCH   1  19
ATOM     18  C   UNL     1      -0.045   1.554   0.008  0.00  0.00    +0.033 C 
ATOM     19  C   UNL     1      -0.009   0.024   0.007  0.00  0.00    +0.102 C 
BRANCH  19  20
ATOM     20  C   UNL     1      -1.417  -0.512   0.015  0.00  0.00    -0.026 A 
ATOM     21  C   UNL     1      -2.141  -0.569  -1.162  0.00  0.00    +0.005 A 
ATOM     22  C   UNL     1      -3.433  -1.060  -1.159  0.00  0.00    +0.002 A 
ATOM     23  C   UNL     1      -4.005  -1.497   0.021  0.00  0.00    +0.023 A 
ATOM     24  C   UNL     1      -3.280  -1.442   1.204  0.00  0.00    +0.037 A 
ATOM     25  C   UNL     1      -1.981  -0.952   1.197  0.00  0.00    +0.029 A 
BRANCH  24  26
ATOM     26  N   UNL     1      -3.857  -1.883   2.400  0.00  0.00    -0.271 N 
ATOM     27  C   UNL     1      -3.143  -1.973   3.679  0.00  0.00    +0.114 C 
ATOM     28  C   UNL     1      -4.243  -2.074   4.759  0.00  0.00    +0.029 C 
ATOM     29  C   UNL     1      -5.418  -2.679   3.957  0.00  0.00    +0.098 C 
ATOM     30  C   UNL     1      -5.137  -2.273   2.527  0.00  0.00    +0.220 C 
ATOM     31  O   UNL     1      -5.948  -2.298   1.625  0.00  0.00    -0.275 OA
ENDBRANCH  24  26
ENDBRANCH  19  20
ENDBRANCH   1  19
TORSDOF 5
