REMARK  Name = ZINC65292081
REMARK  6 active torsions:
REMARK  status: ('A' for Active; 'I' for Inactive)
REMARK    1  A    between atoms: C_1  and  C_2
REMARK    2  A    between atoms: C_2  and  C_3
REMARK    3  A    between atoms: C_3  and  N_12
REMARK    4  A    between atoms: N_10  and  C_11
REMARK    5  A    between atoms: N_15  and  S_18
REMARK    6  A    between atoms: S_18  and  C_21
REMARK                            x       y       z     vdW  Elec       q    Type
REMARK                         _______ _______ _______ _____ _____    ______ ____
ROOT
ATOM      1  N   UNL     1      -1.574  -1.894  -0.033  0.00  0.00    -0.293 NA
ATOM      2  C   UNL     1      -2.973  -2.321  -0.167  0.00  0.00    +0.102 C 
ATOM      3  C   UNL     1      -3.026  -3.844  -0.328  0.00  0.00    +0.125 C 
ATOM      4  N   UNL     1      -2.293  -4.458   0.789  0.00  0.00    -0.174 NA
ATOM      5  C   UNL     1      -0.930  -3.982   1.073  0.00  0.00    +0.125 C 
ATOM      6  C   UNL     1      -0.960  -2.454   1.179  0.00  0.00    +0.102 C 
ENDROOT
BRANCH   1   7
ATOM      7  C   UNL     1      -1.467  -0.429  -0.049  0.00  0.00    +0.039 C 
ATOM      8  C   UNL     1      -2.150   0.148  -1.310  0.00  0.00    +0.043 C 
ATOM      9  C   UNL     1      -3.552   0.551  -0.789  0.00  0.00    +0.111 C 
ATOM     10  N   UNL     1      -3.273   1.066   0.572  0.00  0.00    -0.284 N 
ATOM     11  C   UNL     1      -2.240   0.177   1.137  0.00  0.00    +0.131 C 
ATOM     12  C   UNL     1      -3.844   2.129   1.171  0.00  0.00    +0.302 C 
ATOM     13  O   UNL     1      -3.517   2.440   2.300  0.00  0.00    -0.253 OA
ATOM     14  N   UNL     1      -4.780   2.848   0.518  0.00  0.00    -0.302 N 
ATOM     15  C   UNL     1      -5.401   4.004   1.170  0.00  0.00    +0.129 C 
ATOM     16  H   UNL     1      -5.041   2.600  -0.382  0.00  0.00    +0.150 HD
BRANCH   7  18
ATOM     17  C   UNL     1       0.778  -0.717  -1.107  0.00  0.00    +0.006 C 
ATOM     18  C   UNL     1       0.002  -0.004   0.002  0.00  0.00    +0.020 C 
ENDBRANCH   7  18
ENDBRANCH   1   7
BRANCH   4  19
ATOM     19  S   UNL     1      -2.983  -5.653   1.705  0.00  0.00    +0.067 S 
ATOM     20  O   UNL     1      -2.323  -5.633   2.963  0.00  0.00    -0.152 OA
ATOM     21  O   UNL     1      -4.390  -5.498   1.580  0.00  0.00    -0.152 OA
BRANCH  19  22
ATOM     22  C   UNL     1      -2.577  -7.190   0.946  0.00  0.00    +0.144 A 
ATOM     23  C   UNL     1      -1.509  -7.995   1.167  0.00  0.00    +0.038 A 
ATOM     24  C   UNL     1      -1.394  -9.170   0.447  0.00  0.00    +0.030 A 
ATOM     25  C   UNL     1      -2.354  -9.481  -0.460  0.00  0.00    +0.080 A 
ATOM     26  S   UNL     1      -3.470  -8.096  -0.307  0.00  0.00    -0.057 S 
ATOM     27 CL   UNL     1      -2.470 -10.870  -1.495  0.00  0.00    -0.076 Cl
ENDBRANCH  19  22
ENDBRANCH   4  19
TORSDOF 4
