REMARK  Name = ZINC08876832
REMARK  10 active torsions:
REMARK  status: ('A' for Active; 'I' for Inactive)
REMARK    1  A    between atoms: C_1  and  C_2
REMARK    2  A    between atoms: C_2  and  O_3
REMARK    3  A    between atoms: O_3  and  C_4
REMARK    4  A    between atoms: C_4  and  C_6
REMARK    5  A    between atoms: C_9  and  N_12
REMARK    6  A    between atoms: C_13  and  C_15
REMARK    7  A    between atoms: C_18  and  C_31
REMARK    8  A    between atoms: C_23  and  C_30
REMARK    9  A    between atoms: C_31  and  C_32
REMARK   10  A    between atoms: C_35  and  O_38
REMARK                            x       y       z     vdW  Elec       q    Type
REMARK                         _______ _______ _______ _____ _____    ______ ____
ROOT
ATOM      1  C   UNL     1      -2.437   0.746  -0.008  0.00  0.00    +0.076 C 
ATOM      2  C   UNL     1      -2.613   0.018   1.346  0.00  0.00    -0.003 C 
ATOM      3  C   UNL     1      -3.624   0.927   2.096  0.00  0.00    -0.065 C 
ATOM      4  C   UNL     1      -3.695   1.609  -0.159  0.00  0.00    +0.049 C 
ATOM      5  C   UNL     1      -3.339   3.065  -0.294  0.00  0.00    -0.027 A 
ATOM      6  C   UNL     1      -2.671   3.954   0.518  0.00  0.00    +0.008 A 
ATOM      7  C   UNL     1      -2.495   5.265   0.111  0.00  0.00    -0.050 A 
ATOM      8  C   UNL     1      -2.991   5.679  -1.112  0.00  0.00    +0.005 A 
ATOM      9  C   UNL     1      -3.661   4.792  -1.928  0.00  0.00    +0.024 A 
ATOM     10  C   UNL     1      -3.841   3.470  -1.527  0.00  0.00    +0.036 A 
ATOM     11  N   UNL     1      -4.473   2.401  -2.165  0.00  0.00    -0.286 N 
ATOM     12  C   UNL     1      -4.430   1.273  -1.431  0.00  0.00    +0.211 C 
ATOM     13  O   UNL     1      -4.895   0.195  -1.734  0.00  0.00    -0.277 OA
ATOM     14  C   UNL     1      -1.763   6.239   0.998  0.00  0.00    +0.044 C 
ATOM     15  H   UNL     1      -4.894   2.463  -3.037  0.00  0.00    +0.155 HD
ATOM     16  N   UNL     1      -4.519   1.374   1.018  0.00  0.00    +0.394 N 
ATOM     17  H   UNL     1      -4.995   2.241   1.293  0.00  0.00    -0.083 HD
ATOM     18  H   UNL     1      -5.218   0.649   0.818  0.00  0.00    -0.083 HD
ENDROOT
BRANCH   1  20
ATOM     19  N   UNL     1      -0.631   2.003  -1.137  0.00  0.00    -0.285 N 
ATOM     20  C   UNL     1      -1.205   1.613   0.018  0.00  0.00    +0.220 C 
ATOM     21  O   UNL     1      -0.731   1.960   1.079  0.00  0.00    -0.275 OA
ATOM     22  H   UNL     1      -1.050   1.785  -1.985  0.00  0.00    +0.155 HD
BRANCH  19  26
ATOM     23  C   UNL     1       2.933   4.159  -1.068  0.00  0.00    +0.059 A 
ATOM     24  C   UNL     1       2.691   3.237  -2.091  0.00  0.00    +0.017 A 
ATOM     25  C   UNL     1       1.512   2.527  -2.111  0.00  0.00    +0.024 A 
ATOM     26  C   UNL     1       0.562   2.724  -1.114  0.00  0.00    +0.033 A 
ATOM     27  C   UNL     1       0.797   3.644  -0.097  0.00  0.00    +0.024 A 
ATOM     28  C   UNL     1       1.976   4.355  -0.068  0.00  0.00    +0.017 A 
BRANCH  23  29
ATOM     29  C   UNL     1       4.194   4.921  -1.043  0.00  0.00    +0.339 C 
ATOM     30  O   UNL     1       5.025   4.750  -1.913  0.00  0.00    -0.245 OA
BRANCH  29  31
ATOM     31  O   UNL     1       4.426   5.809  -0.056  0.00  0.00    -0.461 OA
BRANCH  31  33
ATOM     32  C   UNL     1       5.771   7.480   1.097  0.00  0.00    +0.048 C 
ATOM     33  C   UNL     1       5.689   6.524  -0.096  0.00  0.00    +0.229 C 
ENDBRANCH  31  33
ENDBRANCH  29  31
ENDBRANCH  23  29
ENDBRANCH  19  26
ENDBRANCH   1  20
BRANCH   3  34
ATOM     34  C   UNL     1      -4.384   0.127   3.156  0.00  0.00    +0.019 C 
BRANCH  34  35
ATOM     35  C   UNL     1      -5.351   1.034   3.873  0.00  0.00    -0.049 A 
ATOM     36  C   UNL     1      -4.949   1.709   5.011  0.00  0.00    +0.007 A 
ATOM     37  C   UNL     1      -5.831   2.545   5.667  0.00  0.00    +0.045 A 
ATOM     38  C   UNL     1      -7.125   2.698   5.190  0.00  0.00    +0.117 A 
ATOM     39  C   UNL     1      -7.527   2.015   4.051  0.00  0.00    +0.045 A 
ATOM     40  C   UNL     1      -6.639   1.185   3.395  0.00  0.00    +0.007 A 
BRANCH  38  41
ATOM     41  O   UNL     1      -7.997   3.516   5.837  0.00  0.00    -0.507 OA
ATOM     42  H   UNL     1      -8.514   3.074   6.525  0.00  0.00    +0.292 HD
ENDBRANCH  38  41
ENDBRANCH  34  35
ENDBRANCH   3  34
TORSDOF 8
