REMARK  Name = ZINC27816985
REMARK  7 active torsions:
REMARK  status: ('A' for Active; 'I' for Inactive)
REMARK    1  A    between atoms: C_1  and  C_2
REMARK    2  A    between atoms: C_6  and  C_7
REMARK    3  A    between atoms: N_9  and  N_10
REMARK    4  A    between atoms: C_11  and  C_13
REMARK    5  A    between atoms: C_21  and  C_26
REMARK    6  A    between atoms: C_21  and  C_27
REMARK    7  A    between atoms: C_23  and  O_25
REMARK                            x       y       z     vdW  Elec       q    Type
REMARK                         _______ _______ _______ _____ _____    ______ ____
ROOT
ATOM      1  C   UNL     1      -0.740  -3.446   1.064  0.00  0.00    +0.296 C 
ATOM      2  O   UNL     1      -1.885  -3.481   1.475  0.00  0.00    -0.265 OA
ATOM      3  N   UNL     1       0.024  -4.555   1.101  0.00  0.00    -0.228 N 
ATOM      4  H   UNL     1       1.059  -4.523   0.730  0.00  0.00    +0.173 HD
ENDROOT
BRANCH   1  10
ATOM      5  C   UNL     1      -2.275  -0.726   0.854  0.00  0.00    +0.048 C 
ATOM      6  C   UNL     1      -0.855  -1.003   0.433  0.00  0.00    +0.006 A 
ATOM      7  C   UNL     1       0.041  -0.093  -0.132  0.00  0.00    +0.025 A 
ATOM      8  C   UNL     1       1.202  -0.755  -0.358  0.00  0.00    +0.112 A 
ATOM      9  O   UNL     1       1.057  -2.021   0.043  0.00  0.00    -0.454 OA
ATOM     10  C   UNL     1      -0.192  -2.195   0.528  0.00  0.00    +0.194 A 
ATOM     11  C   UNL     1       2.428  -0.118  -0.969  0.00  0.00    +0.081 C 
ATOM     12  C   UNL     1       2.006   1.193  -1.643  0.00  0.00    -0.025 C 
ATOM     13  C   UNL     1       1.178   2.030  -0.664  0.00  0.00    +0.043 C 
ATOM     14  C   UNL     1      -0.187   1.362  -0.450  0.00  0.00    +0.149 C 
ATOM     15  C   UNL     1       3.253   1.978  -2.055  0.00  0.00    +0.011 C 
ATOM     16  C   UNL     1       1.167   0.882  -2.883  0.00  0.00    +0.011 C 
BRANCH  14  17
ATOM     17  O   UNL     1      -0.866   1.992   0.638  0.00  0.00    -0.387 OA
ATOM     18  H   UNL     1      -1.118   3.061   0.584  0.00  0.00    +0.210 HD
ENDBRANCH  14  17
ENDBRANCH   1  10
BRANCH   3  19
ATOM     19  N   UNL     1      -0.500  -5.750   1.613  0.00  0.00    -0.230 N 
ATOM     20  C   UNL     1       0.265  -6.859   1.651  0.00  0.00    +0.260 C 
ATOM     21  O   UNL     1       1.408  -6.824   1.240  0.00  0.00    -0.269 OA
ATOM     22  H   UNL     1      -1.534  -5.782   1.985  0.00  0.00    +0.173 HD
BRANCH  20  23
ATOM     23  C   UNL     1      -0.288  -8.118   2.191  0.00  0.00    +0.038 A 
ATOM     24  C   UNL     1      -1.599  -8.161   2.668  0.00  0.00    +0.016 A 
ATOM     25  C   UNL     1      -2.111  -9.339   3.166  0.00  0.00    +0.039 A 
ATOM     26  C   UNL     1      -1.323 -10.480   3.203  0.00  0.00    +0.123 A 
ATOM     27  C   UNL     1      -0.018 -10.442   2.735  0.00  0.00    +0.039 A 
ATOM     28  C   UNL     1       0.502  -9.270   2.230  0.00  0.00    +0.016 A 
ATOM     29  F   UNL     1      -1.828 -11.631   3.697  0.00  0.00    -0.205 F 
ENDBRANCH  20  23
ENDBRANCH   3  19
TORSDOF 4
