REMARK  Name = ZINC39634882
REMARK  16 active torsions:
REMARK  status: ('A' for Active; 'I' for Inactive)
REMARK    1  A    between atoms: C_1  and  C_2
REMARK    2  A    between atoms: C_2  and  C_3
REMARK    3  A    between atoms: C_2  and  C_4
REMARK    4  A    between atoms: C_4  and  C_6
REMARK    5  A    between atoms: C_4  and  O_31
REMARK    6  A    between atoms: C_10  and  C_19
REMARK    7  A    between atoms: N_21  and  C_22
REMARK    8  A    between atoms: C_22  and  C_23
REMARK    9  A    between atoms: C_23  and  N_24
REMARK   10  A    between atoms: N_24  and  C_25
REMARK   11  A    between atoms: N_24  and  C_28
REMARK   12  A    between atoms: C_25  and  C_26
REMARK   13  A    between atoms: C_25  and  C_27
REMARK   14  A    between atoms: C_28  and  C_29
REMARK   15  A    between atoms: C_28  and  C_30
REMARK   16  A    between atoms: O_31  and  C_32
REMARK                            x       y       z     vdW  Elec       q    Type
REMARK                         _______ _______ _______ _____ _____    ______ ____
ROOT
ATOM      1  C   UNL     1       1.030  -2.592  -3.105  0.00  0.00    +0.257 C 
ATOM      2  O   UNL     1       1.941  -3.357  -2.867  0.00  0.00    -0.272 OA
ATOM      3  N   UNL     1      -0.247  -3.007  -2.986  0.00  0.00    -0.297 N 
ATOM      4  C   UNL     1      -1.479  -2.267  -3.347  0.00  0.00    +0.121 C 
ATOM      5  C   UNL     1      -2.408  -3.336  -3.967  0.00  0.00    +0.100 C 
ATOM      6  C   UNL     1      -1.916  -4.670  -3.382  0.00  0.00    -0.004 C 
ATOM      7  C   UNL     1      -0.736  -4.308  -2.470  0.00  0.00    +0.115 C 
ATOM      8  C   UNL     1      -1.446  -5.596  -4.500  0.00  0.00    -0.010 C 
ATOM      9  C   UNL     1      -1.016  -6.937  -3.899  0.00  0.00    -0.082 C 
ATOM     10  N   UNL     1      -2.146  -7.538  -3.180  0.00  0.00    +0.379 N 
ATOM     11  C   UNL     1      -2.532  -6.686  -2.050  0.00  0.00    -0.082 C 
ATOM     12  C   UNL     1      -3.026  -5.334  -2.573  0.00  0.00    -0.010 C 
ATOM     13  H   UNL     1      -2.929  -7.636  -3.809  0.00  0.00    -0.086 HD
ATOM     14  H   UNL     1      -1.878  -8.449  -2.837  0.00  0.00    -0.086 HD
ENDROOT
BRANCH   5  15
ATOM     15  C   UNL     1      -3.839  -3.081  -3.569  0.00  0.00    +0.218 C 
ATOM     16  O   UNL     1      -4.086  -2.493  -2.538  0.00  0.00    -0.275 OA
ATOM     17  N   UNL     1      -4.844  -3.508  -4.360  0.00  0.00    -0.317 N 
ATOM     18  H   UNL     1      -4.646  -3.979  -5.184  0.00  0.00    +0.149 HD
BRANCH  17  19
ATOM     19  C   UNL     1      -6.235  -3.261  -3.973  0.00  0.00    +0.085 C 
BRANCH  19  20
ATOM     20  C   UNL     1      -7.171  -3.843  -5.035  0.00  0.00    -0.059 C 
BRANCH  20  21
ATOM     21  N   UNL     1      -8.558  -3.475  -4.720  0.00  0.00    +0.384 N 
ATOM     22  H   UNL     1      -8.624  -2.475  -4.609  0.00  0.00    -0.081 HD
BRANCH  21  23
ATOM     23  C   UNL     1      -9.439  -3.906  -5.813  0.00  0.00    -0.074 C 
ATOM     24  C   UNL     1     -10.857  -3.392  -5.558  0.00  0.00    -0.014 C 
ATOM     25  C   UNL     1      -8.922  -3.341  -7.138  0.00  0.00    -0.014 C 
ENDBRANCH  21  23
BRANCH  21  26
ATOM     26  C   UNL     1      -8.967  -4.134  -3.472  0.00  0.00    -0.074 C 
ATOM     27  C   UNL     1      -8.281  -5.498  -3.367  0.00  0.00    -0.014 C 
ATOM     28  C   UNL     1      -8.562  -3.266  -2.280  0.00  0.00    -0.014 C 
ENDBRANCH  21  26
ENDBRANCH  20  21
ENDBRANCH  19  20
ENDBRANCH  17  19
ENDBRANCH   5  15
BRANCH   1  29
ATOM     29  C   UNL     1       1.326  -1.179  -3.535  0.00  0.00    +0.261 C 
BRANCH  29  31
ATOM     30  C   UNL     1       1.476   1.195  -2.769  0.00  0.00    +0.011 C 
ATOM     31  C   UNL     1       1.248  -0.250  -2.321  0.00  0.00    +0.033 C 
ATOM     32  C   UNL     1      -0.133  -0.372  -1.674  0.00  0.00    +0.011 C 
ENDBRANCH  29  31
BRANCH  29  33
ATOM     33  O   UNL     1       2.638  -1.117  -4.098  0.00  0.00    -0.479 OA
BRANCH  33  34
ATOM     34  C   UNL     1       2.835  -0.230  -5.108  0.00  0.00    +0.122 A 
ATOM     35  C   UNL     1       4.098  -0.074  -5.661  0.00  0.00    +0.045 A 
ATOM     36  C   UNL     1       4.295   0.828  -6.688  0.00  0.00    +0.004 A 
ATOM     37  C   UNL     1       3.235   1.576  -7.165  0.00  0.00    +0.000 A 
ATOM     38  C   UNL     1       1.975   1.424  -6.616  0.00  0.00    +0.004 A 
ATOM     39  C   UNL     1       1.772   0.518  -5.593  0.00  0.00    +0.045 A 
ENDBRANCH  33  34
ENDBRANCH  29  33
ENDBRANCH   1  29
TORSDOF 10
