REMARK  Name = ZINC20568741
REMARK  11 active torsions:
REMARK  status: ('A' for Active; 'I' for Inactive)
REMARK    1  A    between atoms: C_1  and  C_2
REMARK    2  A    between atoms: C_2  and  C_3
REMARK    3  A    between atoms: C_3  and  C_4
REMARK    4  A    between atoms: C_3  and  C_5
REMARK    5  A    between atoms: C_3  and  C_6
REMARK    6  A    between atoms: C_13  and  N_19
REMARK    7  A    between atoms: C_14  and  C_15
REMARK    8  A    between atoms: C_15  and  O_17
REMARK    9  A    between atoms: O_17  and  C_18
REMARK   10  A    between atoms: C_20  and  C_22
REMARK   11  A    between atoms: C_30  and  C_32
REMARK                            x       y       z     vdW  Elec       q    Type
REMARK                         _______ _______ _______ _____ _____    ______ ____
ROOT
ATOM      1  C   UNL     1      -5.780   3.596   0.277  0.00  0.00    -0.000 C 
ATOM      2  C   UNL     1      -6.094   2.211  -0.295  0.00  0.00    +0.009 C 
ATOM      3  C   UNL     1      -5.149   1.172   0.309  0.00  0.00    +0.037 C 
ATOM      4  C   UNL     1      -3.714   1.652   0.132  0.00  0.00    -0.021 A 
ATOM      5  C   UNL     1      -3.442   2.949  -0.130  0.00  0.00    -0.004 A 
ATOM      6  S   UNL     1      -1.677   3.027  -0.246  0.00  0.00    -0.077 S 
ATOM      7  C   UNL     1      -1.303   1.360   0.040  0.00  0.00    +0.086 A 
ATOM      8  C   UNL     1      -2.553   0.783   0.225  0.00  0.00    +0.091 A 
ATOM      9  C   UNL     1      -4.428   4.066  -0.280  0.00  0.00    +0.046 C 
ENDROOT
BRANCH   7  10
ATOM     10  N   UNL     1      -0.059   0.750   0.080  0.00  0.00    -0.279 N 
ATOM     11  C   UNL     1       1.055   1.479  -0.132  0.00  0.00    +0.224 C 
ATOM     12  O   UNL     1       0.969   2.668  -0.352  0.00  0.00    -0.275 OA
ATOM     13  H   UNL     1       0.019  -0.328   0.284  0.00  0.00    +0.155 HD
BRANCH  11  14
ATOM     14  C   UNL     1       2.408   0.815  -0.095  0.00  0.00    +0.120 C 
ATOM     15  C   UNL     1       3.204   1.256   1.170  0.00  0.00    +0.131 C 
ATOM     16  C   UNL     1       3.013   2.800   1.260  0.00  0.00    +0.035 C 
ATOM     17  C   UNL     1       3.921   3.309   0.087  0.00  0.00    +0.035 C 
ATOM     18  C   UNL     1       4.494   1.988  -0.509  0.00  0.00    +0.133 C 
ATOM     19  C   UNL     1       3.298   1.318  -1.259  0.00  0.00    +0.145 C 
ATOM     20  O   UNL     1       4.585   1.150   0.690  0.00  0.00    -0.372 OA
BRANCH  19  21
ATOM     21  C   UNL     1       2.559   2.328  -2.099  0.00  0.00    +0.362 C 
ATOM     22  O   UNL     1       3.082   3.381  -2.376  0.00  0.00    -0.246 OA
ATOM     23  O   UNL     1       1.320   2.058  -2.538  0.00  0.00    -0.246 OA
ENDBRANCH  19  21
ENDBRANCH  11  14
ENDBRANCH   7  10
BRANCH   1  24
ATOM     24  C   UNL     1      -6.875   4.582  -0.136  0.00  0.00    -0.032 C 
ATOM     25  C   UNL     1      -6.938   4.665  -1.662  0.00  0.00    +0.011 C 
ATOM     26  C   UNL     1      -8.223   4.103   0.406  0.00  0.00    +0.011 C 
BRANCH  24  28
ATOM     27  C   UNL     1      -7.653   6.951   0.025  0.00  0.00    +0.004 C 
ATOM     28  C   UNL     1      -6.558   5.965   0.437  0.00  0.00    +0.003 C 
ENDBRANCH  24  28
ENDBRANCH   1  24
BRANCH   8  29
ATOM     29  C   UNL     1      -2.696  -0.648   0.504  0.00  0.00    +0.342 C 
ATOM     30  O   UNL     1      -2.692  -1.047   1.653  0.00  0.00    -0.245 OA
BRANCH  29  31
ATOM     31  O   UNL     1      -2.831  -1.523  -0.513  0.00  0.00    -0.464 OA
ATOM     32  C   UNL     1      -2.967  -2.925  -0.163  0.00  0.00    +0.280 C 
ENDBRANCH  29  31
ENDBRANCH   8  29
TORSDOF 7
