REMARK  Name = ZINC57448774
REMARK  7 active torsions:
REMARK  status: ('A' for Active; 'I' for Inactive)
REMARK    1  A    between atoms: C_1  and  C_2
REMARK    2  A    between atoms: C_6  and  C_7
REMARK    3  A    between atoms: N_9  and  C_10
REMARK    4  A    between atoms: C_16  and  O_18
REMARK    5  A    between atoms: O_18  and  C_19
REMARK    6  A    between atoms: C_21  and  C_25
REMARK    7  A    between atoms: C_21  and  C_26
REMARK                            x       y       z     vdW  Elec       q    Type
REMARK                         _______ _______ _______ _____ _____    ______ ____
ROOT
ATOM      1  C   UNL     1       0.031  -0.394   2.491  0.00  0.00    +0.280 C 
ATOM      2  O   UNL     1       0.016   0.792   2.760  0.00  0.00    -0.267 OA
ATOM      3  N   UNL     1       0.053  -1.309   3.480  0.00  0.00    -0.306 N 
ATOM      4  H   UNL     1       0.065  -2.255   3.266  0.00  0.00    +0.149 HD
ENDROOT
BRANCH   1  10
ATOM      5  C   UNL     1      -0.018   1.503   0.010  0.00  0.00    +0.048 C 
ATOM      6  C   UNL     1       0.002  -0.004   0.002  0.00  0.00    +0.011 A 
ATOM      7  C   UNL     1       0.009  -0.840  -1.125  0.00  0.00    +0.062 A 
ATOM      8  C   UNL     1       0.027  -2.151  -0.662  0.00  0.00    +0.117 A 
ATOM      9  O   UNL     1       0.036  -2.113   0.663  0.00  0.00    -0.454 OA
ATOM     10  C   UNL     1       0.024  -0.829   1.089  0.00  0.00    +0.193 A 
ATOM     11  C   UNL     1       0.032  -3.344  -1.585  0.00  0.00    +0.082 C 
ATOM     12  C   UNL     1      -0.489  -2.920  -2.961  0.00  0.00    -0.021 C 
ATOM     13  C   UNL     1       0.284  -1.704  -3.482  0.00  0.00    +0.086 C 
ATOM     14  C   UNL     1       0.001  -0.526  -2.562  0.00  0.00    +0.167 C 
ATOM     15  O   UNL     1      -0.215   0.592  -2.982  0.00  0.00    -0.292 OA
ATOM     16  C   UNL     1      -1.973  -2.564  -2.851  0.00  0.00    +0.012 C 
ATOM     17  C   UNL     1      -0.322  -4.082  -3.942  0.00  0.00    +0.012 C 
ENDBRANCH   1  10
BRANCH   3  18
ATOM     18  C   UNL     1       0.060  -0.875   4.879  0.00  0.00    +0.076 C 
ATOM     19  C   UNL     1       1.497  -0.581   5.315  0.00  0.00    +0.041 C 
ATOM     20  C   UNL     1       1.496  -0.094   6.768  0.00  0.00    +0.113 C 
ATOM     21  N   UNL     1       0.805  -1.089   7.600  0.00  0.00    -0.267 N 
ATOM     22  C   UNL     1      -0.550  -1.511   7.217  0.00  0.00    +0.113 C 
ATOM     23  C   UNL     1      -0.526  -1.982   5.759  0.00  0.00    +0.041 C 
ATOM     24  C   UNL     1       1.402  -1.605   8.692  0.00  0.00    +0.403 C 
ATOM     25  O   UNL     1       2.522  -1.248   8.998  0.00  0.00    -0.226 OA
BRANCH  24  26
ATOM     26  O   UNL     1       0.756  -2.515   9.445  0.00  0.00    -0.454 OA
ATOM     27  C   UNL     1       1.449  -3.019  10.589  0.00  0.00    +0.282 C 
ENDBRANCH  24  26
ENDBRANCH   3  18
TORSDOF 3
