REMARK  Name = ZINC20803728
REMARK  5 active torsions:
REMARK  status: ('A' for Active; 'I' for Inactive)
REMARK    1  A    between atoms: C_1  and  C_2
REMARK    2  A    between atoms: C_7  and  N_8
REMARK    3  A    between atoms: C_9  and  C_11
REMARK    4  A    between atoms: C_13  and  C_30
REMARK    5  A    between atoms: C_21  and  C_23
REMARK                            x       y       z     vdW  Elec       q    Type
REMARK                         _______ _______ _______ _____ _____    ______ ____
ROOT
ATOM      1  C   UNL     1       1.383  -0.475  -0.471  0.00  0.00    +0.124 C 
ATOM      2  C   UNL     1       2.487   0.253   0.304  0.00  0.00    +0.084 C 
ATOM      3  N   UNL     1       2.385   1.699   0.024  0.00  0.00    -0.310 N 
ATOM      4  C   UNL     1       1.105   2.237   0.037  0.00  0.00    +0.214 A 
ATOM      5  N   UNL     1       0.726   3.486   0.052  0.00  0.00    -0.202 NA
ATOM      6  C   UNL     1      -0.610   3.548   0.063  0.00  0.00    +0.247 A 
ATOM      7  N   UNL     1      -1.097   2.332   0.049  0.00  0.00    -0.156 NA
ATOM      8  N   UNL     1      -0.006   1.462   0.035  0.00  0.00    -0.225 N 
ATOM      9  C   UNL     1       0.009  -0.001   0.017  0.00  0.00    +0.154 C 
ATOM     10  C   UNL     1       2.310   0.006   1.803  0.00  0.00    +0.028 C 
ATOM     11  H   UNL     1       3.293   2.286  -0.178  0.00  0.00    +0.149 HD
ENDROOT
BRANCH   9  12
ATOM     12  C   UNL     1      -1.060  -0.505  -0.918  0.00  0.00    -0.022 A 
ATOM     13  C   UNL     1      -1.034  -0.150  -2.253  0.00  0.00    +0.008 A 
ATOM     14  C   UNL     1      -2.011  -0.616  -3.112  0.00  0.00    +0.038 A 
ATOM     15  C   UNL     1      -3.023  -1.430  -2.632  0.00  0.00    +0.123 A 
ATOM     16  C   UNL     1      -3.052  -1.780  -1.293  0.00  0.00    +0.038 A 
ATOM     17  C   UNL     1      -2.070  -1.318  -0.437  0.00  0.00    +0.008 A 
ATOM     18  F   UNL     1      -3.982  -1.882  -3.470  0.00  0.00    -0.205 F 
ENDBRANCH   9  12
BRANCH   1  20
ATOM     19  N   UNL     1       2.641  -2.600  -0.604  0.00  0.00    -0.285 N 
ATOM     20  C   UNL     1       1.510  -1.960  -0.248  0.00  0.00    +0.224 C 
ATOM     21  O   UNL     1       0.594  -2.578   0.251  0.00  0.00    -0.275 OA
ATOM     22  H   UNL     1       3.436  -2.059  -1.138  0.00  0.00    +0.155 HD
BRANCH  19  29
ATOM     23  C   UNL     1       4.402  -4.147  -2.217  0.00  0.00    +0.045 C 
ATOM     24  C   UNL     1       3.655  -4.746  -1.054  0.00  0.00    -0.029 A 
ATOM     25  C   UNL     1       3.819  -6.081  -0.740  0.00  0.00    +0.005 A 
ATOM     26  C   UNL     1       3.130  -6.633   0.324  0.00  0.00    +0.000 A 
ATOM     27  C   UNL     1       2.278  -5.849   1.081  0.00  0.00    +0.002 A 
ATOM     28  C   UNL     1       2.114  -4.512   0.776  0.00  0.00    +0.023 A 
ATOM     29  C   UNL     1       2.805  -3.955  -0.292  0.00  0.00    +0.036 A 
ENDBRANCH  19  29
ENDBRANCH   1  20
TORSDOF 3
