REMARK  Name = ZINC50309389
REMARK  4 active torsions:
REMARK  status: ('A' for Active; 'I' for Inactive)
REMARK    1  A    between atoms: C_1  and  O_2
REMARK    2  A    between atoms: O_2  and  C_3
REMARK    3  A    between atoms: C_8  and  N_9
REMARK    4  A    between atoms: C_10  and  C_14
REMARK                            x       y       z     vdW  Elec       q    Type
REMARK                         _______ _______ _______ _____ _____    ______ ____
ROOT
ATOM      1  N   UNL     1       0.106  -2.778   0.076  0.00  0.00    -0.193 N 
ATOM      2  C   UNL     1       0.139  -4.121  -0.057  0.00  0.00    +0.160 A 
ATOM      3  N   UNL     1      -0.545  -4.422  -1.130  0.00  0.00    -0.113 NA
ATOM      4  N   UNL     1      -1.008  -3.360  -1.684  0.00  0.00    -0.023 NA
ATOM      5  N   UNL     1      -0.662  -2.318  -1.008  0.00  0.00    -0.039 NA
ENDROOT
BRANCH   1  11
ATOM      6  C   UNL     1      -0.032  -1.024   1.742  0.00  0.00    +0.146 A 
ATOM      7  C   UNL     1       0.562  -0.269   2.741  0.00  0.00    +0.049 A 
ATOM      8  C   UNL     1       1.885  -0.488   3.079  0.00  0.00    +0.019 A 
ATOM      9  C   UNL     1       2.618  -1.460   2.422  0.00  0.00    +0.020 A 
ATOM     10  C   UNL     1       2.033  -2.217   1.424  0.00  0.00    +0.047 A 
ATOM     11  C   UNL     1       0.704  -2.007   1.084  0.00  0.00    +0.112 A 
ATOM     12 BR   UNL     1       4.427  -1.754   2.890  0.00  0.00    -0.050 Br
BRANCH   6  14
ATOM     13  C   UNL     1      -2.025   0.214   2.124  0.00  0.00    +0.277 C 
ATOM     14  O   UNL     1      -1.332  -0.810   1.408  0.00  0.00    -0.493 OA
ENDBRANCH   6  14
ENDBRANCH   1  11
BRANCH   2  15
ATOM     15  C   UNL     1       0.835  -5.093   0.860  0.00  0.00    +0.059 C 
ATOM     16  C   UNL     1       1.944  -5.842   0.093  0.00  0.00    +0.011 C 
ATOM     17  C   UNL     1       1.898  -7.280   0.666  0.00  0.00    +0.001 C 
ATOM     18  C   UNL     1       0.381  -7.522   0.861  0.00  0.00    +0.001 C 
ATOM     19  C   UNL     1      -0.159  -6.162   1.349  0.00  0.00    +0.011 C 
ENDBRANCH   2  15
TORSDOF 3
