REMARK  Name = ZINC24255860
REMARK  7 active torsions:
REMARK  status: ('A' for Active; 'I' for Inactive)
REMARK    1  A    between atoms: C_1  and  C_2
REMARK    2  A    between atoms: C_2  and  C_3
REMARK    3  A    between atoms: C_3  and  C_5
REMARK    4  A    between atoms: C_3  and  N_12
REMARK    5  A    between atoms: N_12  and  C_13
REMARK    6  A    between atoms: C_13  and  C_14
REMARK    7  A    between atoms: C_27  and  C_29
REMARK                            x       y       z     vdW  Elec       q    Type
REMARK                         _______ _______ _______ _____ _____    ______ ____
ROOT
ATOM      1  C   UNL     1       3.909   1.380  -1.313  0.00  0.00    +0.234 C 
ATOM      2  O   UNL     1       4.638   0.546  -0.819  0.00  0.00    -0.274 OA
ATOM      3  N   UNL     1       4.399   2.588  -1.654  0.00  0.00    -0.256 N 
ATOM      4  C   UNL     1       3.566   3.563  -2.220  0.00  0.00    +0.058 A 
ATOM      5  C   UNL     1       3.107   3.430  -3.521  0.00  0.00    +0.025 A 
ATOM      6  C   UNL     1       2.305   4.413  -4.070  0.00  0.00    +0.002 A 
ATOM      7  C   UNL     1       1.961   5.529  -3.328  0.00  0.00    +0.002 A 
ATOM      8  C   UNL     1       2.409   5.665  -2.027  0.00  0.00    +0.025 A 
ATOM      9  C   UNL     1       3.203   4.678  -1.465  0.00  0.00    +0.055 A 
ATOM     10  N   UNL     1       3.622   4.766  -0.132  0.00  0.00    -0.284 N 
ATOM     11  C   UNL     1       4.915   4.555   0.195  0.00  0.00    +0.219 C 
ATOM     12  O   UNL     1       5.249   4.551   1.361  0.00  0.00    -0.275 OA
ATOM     13  C   UNL     1       5.946   4.323  -0.878  0.00  0.00    +0.128 C 
ATOM     14  C   UNL     1       5.811   2.909  -1.433  0.00  0.00    +0.194 C 
ATOM     15  H   UNL     1       2.978   4.981   0.561  0.00  0.00    +0.155 HD
ENDROOT
BRANCH  14  16
ATOM     16  C   UNL     1       6.567   2.814  -2.759  0.00  0.00    +0.409 C 
ATOM     17  F   UNL     1       6.020   3.720  -3.674  0.00  0.00    -0.169 F 
ATOM     18  F   UNL     1       7.916   3.120  -2.550  0.00  0.00    -0.169 F 
ATOM     19  F   UNL     1       6.457   1.515  -3.267  0.00  0.00    -0.169 F 
ENDBRANCH  14  16
BRANCH   1  20
ATOM     20  C   UNL     1       2.454   1.065  -1.547  0.00  0.00    +0.178 C 
BRANCH  20  21
ATOM     21  N   UNL     1       2.171  -0.304  -1.095  0.00  0.00    -0.301 NA
ATOM     22  H   UNL     1       2.350  -0.403  -0.107  0.00  0.00    +0.123 HD
BRANCH  21  23
ATOM     23  C   UNL     1       0.792  -0.692  -1.421  0.00  0.00    +0.084 C 
BRANCH  23  24
ATOM     24  C   UNL     1       0.712  -2.190  -1.564  0.00  0.00    -0.030 A 
ATOM     25  C   UNL     1       1.407  -3.006  -0.691  0.00  0.00    +0.006 A 
ATOM     26  C   UNL     1       1.334  -4.380  -0.822  0.00  0.00    +0.020 A 
ATOM     27  C   UNL     1       0.565  -4.939  -1.827  0.00  0.00    +0.041 A 
ATOM     28  C   UNL     1      -0.131  -4.122  -2.701  0.00  0.00    +0.020 A 
ATOM     29  C   UNL     1      -0.061  -2.748  -2.565  0.00  0.00    +0.006 A 
ATOM     30 CL   UNL     1       0.473  -6.664  -1.992  0.00  0.00    -0.084 Cl
ENDBRANCH  23  24
BRANCH  23  32
ATOM     31  C   UNL     1      -1.594  -0.520  -0.700  0.00  0.00    +0.006 C 
ATOM     32  C   UNL     1      -0.144  -0.236  -0.300  0.00  0.00    +0.020 C 
ENDBRANCH  23  32
ENDBRANCH  21  23
ENDBRANCH  20  21
ENDBRANCH   1  20
TORSDOF 6
