REMARK  Name = ZINC39779637
REMARK  6 active torsions:
REMARK  status: ('A' for Active; 'I' for Inactive)
REMARK    1  A    between atoms: C_1  and  C_2
REMARK    2  A    between atoms: C_2  and  C_4
REMARK    3  A    between atoms: C_2  and  S_18
REMARK    4  A    between atoms: C_9  and  C_12
REMARK    5  A    between atoms: S_18  and  C_19
REMARK    6  A    between atoms: C_23  and  C_25
REMARK                            x       y       z     vdW  Elec       q    Type
REMARK                         _______ _______ _______ _____ _____    ______ ____
ROOT
ATOM      1  C   UNL     1      -0.019   1.526   0.010  0.00  0.00    +0.029 C 
ATOM      2  C   UNL     1       0.002  -0.004   0.002  0.00  0.00    +0.134 C 
ENDROOT
BRANCH   2   3
ATOM      3  C   UNL     1      -1.412  -0.526   0.013  0.00  0.00    +0.231 C 
ATOM      4  O   UNL     1      -1.927  -0.901  -1.019  0.00  0.00    -0.274 OA
ATOM      5  N   UNL     1      -2.103  -0.575   1.169  0.00  0.00    -0.264 N 
ATOM      6  C   UNL     1      -3.407  -1.056   1.178  0.00  0.00    +0.165 A 
ATOM      7  N   UNL     1      -4.244  -1.179   2.191  0.00  0.00    -0.225 NA
ATOM      8  C   UNL     1      -5.465  -1.662   2.020  0.00  0.00    +0.080 A 
ATOM      9  C   UNL     1      -5.867  -2.041   0.769  0.00  0.00    +0.076 A 
ATOM     10  S   UNL     1      -4.398  -1.665  -0.179  0.00  0.00    -0.060 S 
ATOM     11  H   UNL     1      -1.691  -0.275   1.994  0.00  0.00    +0.157 HD
BRANCH   8  12
ATOM     12  C   UNL     1      -6.388  -1.791   3.173  0.00  0.00    +0.001 A 
ATOM     13  C   UNL     1      -7.670  -2.306   2.989  0.00  0.00    +0.010 A 
ATOM     14  C   UNL     1      -8.525  -2.424   4.067  0.00  0.00    +0.001 A 
ATOM     15  C   UNL     1      -8.111  -2.032   5.327  0.00  0.00    +0.000 A 
ATOM     16  C   UNL     1      -6.840  -1.520   5.516  0.00  0.00    +0.001 A 
ATOM     17  C   UNL     1      -5.975  -1.404   4.447  0.00  0.00    +0.010 A 
ENDBRANCH   8  12
ENDBRANCH   2   3
BRANCH   2  18
ATOM     18  S   UNL     1       0.851  -0.589  -1.490  0.00  0.00    -0.084 S 
BRANCH  18  19
ATOM     19  C   UNL     1       2.558  -0.012  -1.279  0.00  0.00    +0.340 C 
ATOM     20  N   UNL     1       3.133  -0.553  -0.036  0.00  0.00    -0.219 N 
ATOM     21  N   UNL     1       3.444   0.565   0.752  0.00  0.00    -0.145 NA
ATOM     22  C   UNL     1       3.122   1.663   0.121  0.00  0.00    +0.238 C 
ATOM     23  O   UNL     1       2.587   1.411  -1.102  0.00  0.00    -0.443 OA
ATOM     24  H   UNL     1       3.268  -1.486   0.191  0.00  0.00    +0.173 HD
BRANCH  22  25
ATOM     25  C   UNL     1       3.309   2.951   0.643  0.00  0.00    +0.043 C 
ATOM     26  C   UNL     1       3.857   3.288   1.881  0.00  0.00    +0.008 A 
ATOM     27  C   UNL     1       4.367   2.509   2.942  0.00  0.00    +0.010 A 
ATOM     28  C   UNL     1       4.848   3.119   4.055  0.00  0.00    +0.001 A 
ATOM     29  C   UNL     1       4.853   4.510   4.183  0.00  0.00    +0.002 A 
ATOM     30  C   UNL     1       4.378   5.319   3.204  0.00  0.00    +0.026 A 
ATOM     31  C   UNL     1       3.860   4.754   2.011  0.00  0.00    +0.043 A 
ATOM     32  N   UNL     1       3.349   5.313   0.931  0.00  0.00    -0.380 N 
ATOM     33  C   UNL     1       2.965   4.266  -0.021  0.00  0.00    +0.154 C 
ATOM     34  H   UNL     1       3.248   6.267   0.787  0.00  0.00    +0.160 HD
ENDBRANCH  22  25
ENDBRANCH  18  19
ENDBRANCH   2  18
TORSDOF 5
