REMARK  Name = ZINC60241383
REMARK  8 active torsions:
REMARK  status: ('A' for Active; 'I' for Inactive)
REMARK    1  A    between atoms: C_1  and  C_2
REMARK    2  A    between atoms: C_4  and  C_28
REMARK    3  A    between atoms: N_5  and  C_7
REMARK    4  A    between atoms: C_10  and  C_13
REMARK    5  A    between atoms: N_15  and  C_16
REMARK    6  A    between atoms: C_16  and  C_17
REMARK    7  A    between atoms: C_16  and  C_18
REMARK    8  A    between atoms: C_16  and  C_19
REMARK                            x       y       z     vdW  Elec       q    Type
REMARK                         _______ _______ _______ _____ _____    ______ ____
ROOT
ATOM      1  C   UNL     1      -0.065  -6.774   3.792  0.00  0.00    +0.245 C 
ATOM      2  O   UNL     1      -0.524  -7.809   3.350  0.00  0.00    -0.270 OA
ATOM      3  N   UNL     1       0.426  -6.736   5.046  0.00  0.00    -0.302 N 
ATOM      4  H   UNL     1       0.792  -5.910   5.399  0.00  0.00    +0.150 HD
ENDROOT
BRANCH   1   8
ATOM      5  C   UNL     1      -0.007  -3.276   1.382  0.00  0.00    +0.066 A 
ATOM      6  C   UNL     1      -0.532  -4.460   0.874  0.00  0.00    +0.028 A 
ATOM      7  C   UNL     1      -0.553  -5.596   1.653  0.00  0.00    +0.015 A 
ATOM      8  C   UNL     1      -0.044  -5.558   2.954  0.00  0.00    +0.037 A 
ATOM      9  C   UNL     1       0.483  -4.367   3.460  0.00  0.00    +0.015 A 
ATOM     10  C   UNL     1       0.504  -3.237   2.674  0.00  0.00    +0.028 A 
BRANCH   5  15
ATOM     11  C   UNL     1       1.556   0.916  -0.751  0.00  0.00    +0.067 C 
ATOM     12  C   UNL     1       0.715  -0.269  -0.350  0.00  0.00    +0.061 A 
ATOM     13  C   UNL     1      -0.578  -0.547  -0.808  0.00  0.00    +0.047 A 
ATOM     14  C   UNL     1      -0.992  -1.693  -0.219  0.00  0.00    +0.042 A 
ATOM     15  N   UNL     1       0.012  -2.125   0.588  0.00  0.00    -0.237 N 
ATOM     16  N   UNL     1       1.071  -1.214   0.480  0.00  0.00    -0.171 NA
ATOM     17  C   UNL     1      -2.324  -2.366  -0.421  0.00  0.00    +0.066 C 
ENDBRANCH   5  15
ENDBRANCH   1   8
BRANCH   3  18
ATOM     18  C   UNL     1       0.405  -7.942   5.878  0.00  0.00    +0.055 C 
ATOM     19  C   UNL     1      -1.037  -8.426   6.039  0.00  0.00    +0.036 C 
ATOM     20  C   UNL     1       1.239  -9.037   5.209  0.00  0.00    +0.036 C 
BRANCH  18  21
ATOM     21  C   UNL     1       0.984  -7.628   7.233  0.00  0.00    -0.021 A 
ATOM     22  C   UNL     1       1.543  -8.636   7.995  0.00  0.00    +0.009 A 
ATOM     23  C   UNL     1       2.076  -8.353   9.239  0.00  0.00    +0.050 A 
ATOM     24  C   UNL     1       2.050  -7.056   9.725  0.00  0.00    +0.166 A 
ATOM     25  C   UNL     1       1.487  -6.040   8.957  0.00  0.00    +0.167 A 
ATOM     26  C   UNL     1       0.960  -6.330   7.709  0.00  0.00    +0.055 A 
ATOM     27  O   UNL     1       1.583  -4.867   9.649  0.00  0.00    -0.453 OA
ATOM     28  C   UNL     1       1.840  -5.245  11.014  0.00  0.00    +0.466 C 
ATOM     29  O   UNL     1       2.499  -6.520  10.897  0.00  0.00    -0.453 OA
ENDBRANCH  18  21
ENDBRANCH   3  18
TORSDOF 4
