REMARK  Name = ZINC35493941
REMARK  7 active torsions:
REMARK  status: ('A' for Active; 'I' for Inactive)
REMARK    1  A    between atoms: C_1  and  C_2
REMARK    2  A    between atoms: C_9  and  O_20
REMARK    3  A    between atoms: C_12  and  C_14
REMARK    4  A    between atoms: C_23  and  O_39
REMARK    5  A    between atoms: C_24  and  C_31
REMARK    6  A    between atoms: C_27  and  O_30
REMARK    7  A    between atoms: N_32  and  C_33
REMARK                            x       y       z     vdW  Elec       q    Type
REMARK                         _______ _______ _______ _____ _____    ______ ____
ROOT
ATOM      1  C   UNL     1       0.179   1.222  -0.732  0.00  0.00    +0.014 C 
ATOM      2  C   UNL     1       0.115  -0.314  -0.761  0.00  0.00    +0.004 C 
ATOM      3  C   UNL     1       1.071  -0.861  -1.784  0.00  0.00    +0.010 C 
ATOM      4  C   UNL     1       2.527  -0.796  -1.296  0.00  0.00    +0.005 C 
ATOM      5  C   UNL     1       2.689  -0.079   0.026  0.00  0.00    +0.009 C 
ATOM      6  C   UNL     1       1.784  -0.632   1.119  0.00  0.00    +0.025 C 
ATOM      7  C   UNL     1       0.402  -0.936   0.621  0.00  0.00    +0.075 C 
ATOM      8  C   UNL     1      -0.777  -0.407   1.451  0.00  0.00    +0.036 C 
ATOM      9  C   UNL     1      -1.975  -0.569   0.475  0.00  0.00    +0.011 C 
ATOM     10  C   UNL     1      -1.377  -0.634  -0.953  0.00  0.00    +0.027 C 
ATOM     11  C   UNL     1       1.819   0.307   2.324  0.00  0.00    +0.009 C 
ATOM     12  C   UNL     1       3.261   0.355   2.849  0.00  0.00    +0.036 C 
ATOM     13  C   UNL     1       4.199   0.849   1.749  0.00  0.00    +0.079 C 
ATOM     14  C   UNL     1       4.142  -0.067   0.522  0.00  0.00    +0.036 C 
ATOM     15  C   UNL     1       5.040   0.520  -0.570  0.00  0.00    +0.018 C 
ATOM     16  C   UNL     1       6.479   0.634  -0.075  0.00  0.00    +0.032 C 
ATOM     17  C   UNL     1       6.561   1.485   1.188  0.00  0.00    +0.117 C 
ATOM     18  C   UNL     1       5.629   0.947   2.272  0.00  0.00    +0.067 C 
ENDROOT
BRANCH  10  19
ATOM     19  C   UNL     1      -1.622  -1.980  -1.586  0.00  0.00    -0.022 C 
ATOM     20  C   UNL     1      -2.024  -3.087  -0.966  0.00  0.00    +0.094 C 
ATOM     21  C   UNL     1      -2.139  -4.170  -1.948  0.00  0.00    +0.332 C 
ATOM     22  O   UNL     1      -2.484  -5.308  -1.696  0.00  0.00    -0.246 OA
ATOM     23  O   UNL     1      -1.804  -3.715  -3.169  0.00  0.00    -0.457 OA
ATOM     24  C   UNL     1      -1.465  -2.329  -3.047  0.00  0.00    +0.264 C 
ENDBRANCH  10  19
BRANCH  14  25
ATOM     25  C   UNL     1       4.601  -1.456   0.855  0.00  0.00    +0.060 C 
ATOM     26  N   UNL     1       5.484  -2.030   0.127  0.00  0.00    -0.390 N 
ATOM     27  H   UNL     1       5.809  -1.592  -0.675  0.00  0.00    +0.159 HD
BRANCH  26  28
ATOM     28  C   UNL     1       6.002  -3.347   0.505  0.00  0.00    +0.078 C 
ATOM     29  C   UNL     1       7.514  -3.257   0.721  0.00  0.00    +0.024 C 
ATOM     30  C   UNL     1       8.055  -4.633   1.115  0.00  0.00    +0.002 C 
ATOM     31  C   UNL     1       7.758  -5.637   0.000  0.00  0.00    +0.000 C 
ATOM     32  C   UNL     1       6.246  -5.726  -0.216  0.00  0.00    +0.002 C 
ATOM     33  C   UNL     1       5.705  -4.351  -0.611  0.00  0.00    +0.024 C 
ENDBRANCH  26  28
ENDBRANCH  14  25
BRANCH   7  34
ATOM     34  O   UNL     1       0.277  -2.375   0.544  0.00  0.00    -0.388 OA
ATOM     35  H   UNL     1       0.445  -2.829   1.381  0.00  0.00    +0.210 HD
ENDBRANCH   7  34
BRANCH  17  36
ATOM     36  O   UNL     1       6.235   2.842   0.884  0.00  0.00    -0.392 OA
ATOM     37  H   UNL     1       6.820   3.250   0.231  0.00  0.00    +0.210 HD
ENDBRANCH  17  36
BRANCH  13  38
ATOM     38  O   UNL     1       3.763   2.163   1.359  0.00  0.00    -0.388 OA
ATOM     39  H   UNL     1       3.774   2.810   2.077  0.00  0.00    +0.210 HD
ENDBRANCH  13  38
TORSDOF 6
