REMARK  Name = ZINC64719756
REMARK  6 active torsions:
REMARK  status: ('A' for Active; 'I' for Inactive)
REMARK    1  A    between atoms: C_1  and  C_2
REMARK    2  A    between atoms: C_9  and  C_11
REMARK    3  A    between atoms: C_11  and  C_13
REMARK    4  A    between atoms: C_11  and  N_23
REMARK    5  A    between atoms: C_13  and  C_14
REMARK    6  A    between atoms: C_24  and  C_26
REMARK                            x       y       z     vdW  Elec       q    Type
REMARK                         _______ _______ _______ _____ _____    ______ ____
ROOT
ATOM      1  C   UNL     1      -2.849  -4.978   2.140  0.00  0.00    +0.164 C 
ENDROOT
BRANCH   1   9
ATOM      2  C   UNL     1      -0.019   1.526   0.010  0.00  0.00    +0.055 C 
ATOM      3  C   UNL     1       0.002  -0.004   0.002  0.00  0.00    +0.208 C 
ATOM      4  C   UNL     1      -1.432  -0.578   0.091  0.00  0.00    +0.122 C 
ATOM      5  C   UNL     1      -1.246  -1.792   0.982  0.00  0.00    +0.144 C 
ATOM      6  N   UNL     1      -0.102  -1.694   1.565  0.00  0.00    -0.073 NA
ATOM      7  O   UNL     1       0.600  -0.519   1.209  0.00  0.00    -0.389 OA
ATOM      8  N   UNL     1      -2.151  -2.826   1.141  0.00  0.00    -0.270 N 
ATOM      9  C   UNL     1      -1.863  -3.852   1.966  0.00  0.00    +0.239 C 
ATOM     10  O   UNL     1      -0.811  -3.868   2.570  0.00  0.00    -0.273 OA
ATOM     11  H   UNL     1      -2.992  -2.813   0.658  0.00  0.00    +0.156 HD
ENDBRANCH   1   9
BRANCH   1  12
ATOM     12  N   UNL     1      -2.307  -5.961   3.081  0.00  0.00    -0.300 N 
ATOM     13  C   UNL     1      -2.718  -7.243   3.029  0.00  0.00    +0.245 C 
ATOM     14  O   UNL     1      -3.540  -7.584   2.200  0.00  0.00    -0.270 OA
ATOM     15  H   UNL     1      -1.651  -5.689   3.742  0.00  0.00    +0.150 HD
BRANCH  13  16
ATOM     16  C   UNL     1      -2.172  -8.234   3.978  0.00  0.00    +0.037 A 
ATOM     17  C   UNL     1      -1.232  -7.844   4.935  0.00  0.00    +0.016 A 
ATOM     18  C   UNL     1      -0.725  -8.772   5.818  0.00  0.00    +0.039 A 
ATOM     19  C   UNL     1      -1.146 -10.092   5.758  0.00  0.00    +0.123 A 
ATOM     20  C   UNL     1      -2.079 -10.485   4.810  0.00  0.00    +0.039 A 
ATOM     21  C   UNL     1      -2.597  -9.563   3.926  0.00  0.00    +0.016 A 
ATOM     22  F   UNL     1      -0.645 -10.999   6.626  0.00  0.00    -0.205 F 
ENDBRANCH  13  16
ENDBRANCH   1  12
BRANCH   1  23
ATOM     23  C   UNL     1      -4.167  -4.424   2.684  0.00  0.00    +0.065 C 
BRANCH  23  24
ATOM     24  C   UNL     1      -5.191  -5.528   2.741  0.00  0.00    -0.039 C 
ATOM     25  C   UNL     1      -5.497  -6.298   3.810  0.00  0.00    -0.001 A 
ATOM     26  C   UNL     1      -4.987  -6.337   5.186  0.00  0.00    +0.010 A 
ATOM     27  C   UNL     1      -5.501  -7.242   6.051  0.00  0.00    +0.001 A 
ATOM     28  C   UNL     1      -6.506  -8.140   5.666  0.00  0.00    +0.002 A 
ATOM     29  C   UNL     1      -7.024  -8.165   4.420  0.00  0.00    +0.026 A 
ATOM     30  C   UNL     1      -6.558  -7.257   3.430  0.00  0.00    +0.043 A 
ATOM     31  N   UNL     1      -6.895  -7.087   2.174  0.00  0.00    -0.380 N 
ATOM     32  C   UNL     1      -6.089  -5.995   1.617  0.00  0.00    +0.144 C 
ATOM     33  H   UNL     1      -7.567  -7.595   1.694  0.00  0.00    +0.160 HD
ENDBRANCH  23  24
ENDBRANCH   1  23
TORSDOF 5
