REMARK  Name = ZINC39520696
REMARK  7 active torsions:
REMARK  status: ('A' for Active; 'I' for Inactive)
REMARK    1  A    between atoms: C_1  and  C_2
REMARK    2  A    between atoms: C_2  and  O_3
REMARK    3  A    between atoms: O_3  and  C_4
REMARK    4  A    between atoms: C_14  and  C_24
REMARK    5  A    between atoms: N_16  and  C_17
REMARK    6  A    between atoms: C_17  and  C_18
REMARK    7  A    between atoms: C_29  and  O_30
REMARK                            x       y       z     vdW  Elec       q    Type
REMARK                         _______ _______ _______ _____ _____    ______ ____
ROOT
ATOM      1  C   UNL     1       0.080  -0.892  -3.766  0.00  0.00    +0.117 C 
ATOM      2  C   UNL     1      -1.079  -1.812  -3.377  0.00  0.00    +0.031 C 
ATOM      3  C   UNL     1      -0.606  -2.808  -2.317  0.00  0.00    +0.001 C 
ATOM      4  C   UNL     1       0.543  -3.646  -2.881  0.00  0.00    -0.012 C 
ATOM      5  C   UNL     1       1.702  -2.726  -3.268  0.00  0.00    -0.062 C 
ATOM      6  C   UNL     1       1.229  -1.731  -4.330  0.00  0.00    +0.020 C 
ATOM      7  C   UNL     1       2.180  -1.960  -2.032  0.00  0.00    -0.012 C 
ATOM      8  C   UNL     1       2.654  -2.958  -0.972  0.00  0.00    -0.003 C 
ATOM      9  C   UNL     1       3.755  -3.839  -1.569  0.00  0.00    -0.011 C 
ATOM     10  C   UNL     1       3.219  -4.535  -2.822  0.00  0.00    -0.033 C 
ATOM     11  N   UNL     1       2.807  -3.529  -3.808  0.00  0.00    +0.391 N 
ATOM     12  H   UNL     1       3.588  -2.926  -4.018  0.00  0.00    -0.080 HD
ENDROOT
BRANCH  10  13
ATOM     13  C   UNL     1       4.299  -5.404  -3.414  0.00  0.00    -0.019 A 
ATOM     14  C   UNL     1       5.408  -4.824  -4.000  0.00  0.00    +0.005 A 
ATOM     15  C   UNL     1       6.399  -5.620  -4.544  0.00  0.00    +0.000 A 
ATOM     16  C   UNL     1       6.283  -6.998  -4.503  0.00  0.00    +0.004 A 
ATOM     17  C   UNL     1       5.176  -7.582  -3.918  0.00  0.00    +0.045 A 
ATOM     18  C   UNL     1       4.183  -6.785  -3.367  0.00  0.00    +0.118 A 
BRANCH  18  19
ATOM     19  O   UNL     1       3.096  -7.357  -2.786  0.00  0.00    -0.507 OA
ATOM     20  H   UNL     1       2.361  -7.514  -3.395  0.00  0.00    +0.292 HD
ENDBRANCH  18  19
ENDBRANCH  10  13
BRANCH   1  21
ATOM     21  O   UNL     1      -0.362   0.038  -4.757  0.00  0.00    -0.377 OA
BRANCH  21  23
ATOM     22  C   UNL     1      -1.329   2.168  -5.364  0.00  0.00    +0.034 C 
ATOM     23  C   UNL     1      -0.889   1.252  -4.220  0.00  0.00    +0.157 C 
ENDBRANCH  21  23
ENDBRANCH   1  21
BRANCH  11  24
ATOM     24  C   UNL     1       2.367  -4.201  -5.037  0.00  0.00    -0.041 C 
BRANCH  24  25
ATOM     25  C   UNL     1       3.566  -4.517  -5.894  0.00  0.00    -0.064 A 
ATOM     26  C   UNL     1       4.459  -3.517  -6.229  0.00  0.00    +0.002 A 
ATOM     27  C   UNL     1       5.559  -3.807  -7.014  0.00  0.00    +0.000 A 
ATOM     28  C   UNL     1       5.766  -5.098  -7.464  0.00  0.00    +0.000 A 
ATOM     29  C   UNL     1       4.873  -6.098  -7.128  0.00  0.00    +0.000 A 
ATOM     30  C   UNL     1       3.775  -5.809  -6.339  0.00  0.00    +0.002 A 
ENDBRANCH  24  25
ENDBRANCH  11  24
TORSDOF 6
