REMARK  Name = ZINC63855965
REMARK  2 active torsions:
REMARK  status: ('A' for Active; 'I' for Inactive)
REMARK    1  A    between atoms: C_5  and  C_6
REMARK    2  A    between atoms: N_15  and  C_16
REMARK                            x       y       z     vdW  Elec       q    Type
REMARK                         _______ _______ _______ _____ _____    ______ ____
ROOT
ATOM      1  C   UNL     1      -1.196  -0.918   0.009  0.00  0.00    +0.208 C 
ATOM      2  N   UNL     1      -0.875  -2.185   0.725  0.00  0.00    -0.267 NA
ATOM      3  C   UNL     1      -1.217  -1.820   2.107  0.00  0.00    +0.212 C 
ATOM      4  C   UNL     1      -2.371  -0.831   1.946  0.00  0.00    +0.094 C 
ATOM      5  N   UNL     1      -2.299  -0.309   0.769  0.00  0.00    -0.260 NA
ATOM      6  C   UNL     1      -3.122  -1.034   3.186  0.00  0.00    +0.156 C 
ATOM      7  N   UNL     1      -2.863  -2.232   3.633  0.00  0.00    -0.189 NA
ATOM      8  N   UNL     1      -1.845  -2.889   2.887  0.00  0.00    -0.229 N 
ATOM      9  H   UNL     1      -1.455  -2.943   0.398  0.00  0.00    +0.126 HD
ENDROOT
BRANCH   8  10
ATOM     10  C   UNL     1      -1.502  -4.313   2.883  0.00  0.00    +0.095 C 
ATOM     11  C   UNL     1      -2.719  -5.130   2.443  0.00  0.00    +0.024 C 
ATOM     12  C   UNL     1      -2.361  -6.617   2.439  0.00  0.00    +0.002 C 
ATOM     13  C   UNL     1      -1.942  -7.045   3.847  0.00  0.00    +0.000 C 
ATOM     14  C   UNL     1      -0.725  -6.229   4.287  0.00  0.00    +0.002 C 
ATOM     15  C   UNL     1      -1.083  -4.741   4.291  0.00  0.00    +0.024 C 
ENDBRANCH   8  10
BRANCH   1  20
ATOM     16  C   UNL     1      -0.017   1.410   0.010  0.00  0.00    +0.048 A 
ATOM     17  C   UNL     1       1.265   1.817  -0.000  0.00  0.00    +0.195 A 
ATOM     18  O   UNL     1       2.055   0.731  -0.014  0.00  0.00    -0.471 OA
ATOM     19  C   UNL     1       1.295  -0.376  -0.012  0.00  0.00    +0.201 A 
ATOM     20  C   UNL     1       0.002  -0.004   0.002  0.00  0.00    +0.029 A 
ENDBRANCH   1  20
TORSDOF 2
