REMARK  Name = ZINC50362074
REMARK  9 active torsions:
REMARK  status: ('A' for Active; 'I' for Inactive)
REMARK    1  A    between atoms: C_1  and  N_2
REMARK    2  A    between atoms: N_2  and  C_3
REMARK    3  A    between atoms: N_2  and  C_12
REMARK    4  A    between atoms: C_3  and  C_4
REMARK    5  A    between atoms: C_8  and  O_10
REMARK    6  A    between atoms: O_10  and  C_11
REMARK    7  A    between atoms: C_12  and  C_14
REMARK    8  A    between atoms: C_12  and  C_16
REMARK    9  A    between atoms: C_14  and  N_15
REMARK                            x       y       z     vdW  Elec       q    Type
REMARK                         _______ _______ _______ _____ _____    ______ ____
ROOT
ATOM      1  C   UNL     1       0.666  -0.610  -1.152  0.00  0.00    -0.019 C 
ENDROOT
BRANCH   1   2
ATOM      2  C   UNL     1      -0.151  -0.353  -2.392  0.00  0.00    +0.092 A 
ATOM      3  C   UNL     1       0.327  -0.273  -3.646  0.00  0.00    +0.059 A 
ATOM      4  C   UNL     1      -0.779  -0.023  -4.492  0.00  0.00    +0.070 A 
ATOM      5  C   UNL     1      -1.868   0.034  -3.702  0.00  0.00    +0.184 A 
ATOM      6  O   UNL     1      -1.482  -0.171  -2.432  0.00  0.00    -0.454 OA
ATOM      7 BR   UNL     1      -3.640   0.345  -4.283  0.00  0.00    -0.007 Br
ATOM      8 BR   UNL     1      -0.736   0.190  -6.370  0.00  0.00    -0.046 Br
ENDBRANCH   1   2
BRANCH   1  10
ATOM      9  C   UNL     1       0.507   1.730  -0.648  0.00  0.00    -0.095 C 
ATOM     10  N   UNL     1       0.312   0.373  -0.120  0.00  0.00    +0.386 N 
ATOM     11  H   UNL     1       0.900   0.239   0.689  0.00  0.00    -0.081 HD
BRANCH  10  12
ATOM     12  C   UNL     1      -1.095   0.195   0.264  0.00  0.00    -0.042 C 
BRANCH  12  13
ATOM     13  C   UNL     1      -1.416   1.097   1.428  0.00  0.00    -0.060 A 
ATOM     14  C   UNL     1      -1.241   0.643   2.722  0.00  0.00    +0.002 A 
ATOM     15  C   UNL     1      -1.535   1.468   3.792  0.00  0.00    +0.004 A 
ATOM     16  C   UNL     1      -2.005   2.748   3.570  0.00  0.00    +0.045 A 
ATOM     17  C   UNL     1      -2.182   3.206   2.273  0.00  0.00    +0.120 A 
ATOM     18  C   UNL     1      -1.881   2.378   1.201  0.00  0.00    +0.047 A 
BRANCH  17  19
ATOM     19  O   UNL     1      -2.644   4.464   2.052  0.00  0.00    -0.495 OA
ATOM     20  C   UNL     1      -2.928   5.262   3.203  0.00  0.00    +0.277 C 
ENDBRANCH  17  19
ENDBRANCH  12  13
ENDBRANCH  10  12
ENDBRANCH   1  10
BRANCH   1  21
ATOM     21  C   UNL     1       0.377  -2.020  -0.634  0.00  0.00    -0.094 C 
BRANCH  21  22
ATOM     22  N   UNL     1       1.060  -2.220   0.651  0.00  0.00    +0.377 N 
ATOM     23  H   UNL     1       0.659  -1.606   1.344  0.00  0.00    -0.090 HD
ATOM     24  H   UNL     1       0.950  -3.178   0.946  0.00  0.00    -0.090 HD
ATOM     25  H   UNL     1       2.042  -2.011   0.546  0.00  0.00    -0.090 HD
ENDBRANCH  21  22
ENDBRANCH   1  21
TORSDOF 7
