REMARK  Name = ZINC15968164
REMARK  7 active torsions:
REMARK  status: ('A' for Active; 'I' for Inactive)
REMARK    1  A    between atoms: C_1  and  C_2
REMARK    2  A    between atoms: C_2  and  C_3
REMARK    3  A    between atoms: C_17  and  C_20
REMARK    4  A    between atoms: C_20  and  C_22
REMARK    5  A    between atoms: C_20  and  O_23
REMARK    6  A    between atoms: N_26  and  C_29
REMARK    7  A    between atoms: C_29  and  C_30
REMARK                            x       y       z     vdW  Elec       q    Type
REMARK                         _______ _______ _______ _____ _____    ______ ____
ROOT
ATOM      1  C   UNL     1       0.731  -0.503   1.223  0.00  0.00    -0.026 A 
ATOM      2  C   UNL     1       2.075  -0.807   1.145  0.00  0.00    +0.005 A 
ATOM      3  C   UNL     1       2.752  -1.266   2.260  0.00  0.00    +0.001 A 
ATOM      4  C   UNL     1       2.079  -1.420   3.460  0.00  0.00    +0.008 A 
ATOM      5  C   UNL     1       0.739  -1.118   3.542  0.00  0.00    +0.004 A 
ATOM      6  C   UNL     1       0.048  -0.651   2.427  0.00  0.00    +0.042 A 
ATOM      7  N   UNL     1      -1.289  -0.411   2.753  0.00  0.00    -0.283 N 
ATOM      8  C   UNL     1      -1.554  -0.683   4.045  0.00  0.00    +0.243 C 
ATOM      9  O   UNL     1      -2.624  -0.570   4.605  0.00  0.00    -0.273 OA
ATOM     10  C   UNL     1      -0.267  -1.168   4.657  0.00  0.00    +0.136 C 
ATOM     11  C   UNL     1      -0.404  -2.583   5.232  0.00  0.00    +0.123 C 
ATOM     12  C   UNL     1      -0.655  -2.364   6.750  0.00  0.00    +0.109 C 
ATOM     13  C   UNL     1      -0.669  -0.832   6.933  0.00  0.00    +0.096 C 
ATOM     14  N   UNL     1       0.133  -0.309   5.787  0.00  0.00    -0.293 NA
ATOM     15  C   UNL     1       0.581  -2.948   7.396  0.00  0.00    +0.228 C 
ATOM     16  O   UNL     1       0.800  -2.978   8.588  0.00  0.00    -0.275 OA
ATOM     17  N   UNL     1       1.394  -3.426   6.448  0.00  0.00    -0.237 N 
ATOM     18  C   UNL     1       0.936  -3.283   5.183  0.00  0.00    +0.229 C 
ATOM     19  O   UNL     1       1.499  -3.648   4.173  0.00  0.00    -0.275 OA
ATOM     20  H   UNL     1      -1.950  -0.085   2.122  0.00  0.00    +0.155 HD
ATOM     21  H   UNL     1       1.123  -0.382   5.964  0.00  0.00    +0.124 HD
ENDROOT
BRANCH   1  23
ATOM     22  C   UNL     1      -0.019   1.526   0.010  0.00  0.00    +0.009 C 
ATOM     23  C   UNL     1       0.002  -0.004   0.002  0.00  0.00    +0.033 C 
ENDBRANCH   1  23
BRANCH  13  24
ATOM     24  C   UNL     1       0.001  -0.448   8.254  0.00  0.00    +0.129 C 
ATOM     25  C   UNL     1      -0.024   1.073   8.415  0.00  0.00    +0.039 C 
BRANCH  24  26
ATOM     26  O   UNL     1      -0.704  -1.054   9.340  0.00  0.00    -0.390 OA
ATOM     27  H   UNL     1      -0.333  -0.853  10.210  0.00  0.00    +0.210 HD
ENDBRANCH  24  26
ENDBRANCH  13  24
BRANCH  17  28
ATOM     28  C   UNL     1       2.678  -4.062   6.753  0.00  0.00    +0.151 C 
BRANCH  28  29
ATOM     29  C   UNL     1       2.474  -5.543   6.941  0.00  0.00    -0.026 A 
ATOM     30  C   UNL     1       2.183  -6.046   8.196  0.00  0.00    +0.009 A 
ATOM     31  C   UNL     1       1.994  -7.404   8.373  0.00  0.00    +0.050 A 
ATOM     32  C   UNL     1       2.096  -8.265   7.293  0.00  0.00    +0.166 A 
ATOM     33  C   UNL     1       2.389  -7.759   6.029  0.00  0.00    +0.167 A 
ATOM     34  C   UNL     1       2.571  -6.396   5.857  0.00  0.00    +0.054 A 
ATOM     35  O   UNL     1       2.434  -8.796   5.143  0.00  0.00    -0.453 OA
ATOM     36  C   UNL     1       2.571  -9.983   5.948  0.00  0.00    +0.466 C 
ATOM     37  O   UNL     1       1.958  -9.620   7.199  0.00  0.00    -0.453 OA
ENDBRANCH  28  29
ENDBRANCH  17  28
TORSDOF 5
