REMARK  Name = ZINC67286390
REMARK  8 active torsions:
REMARK  status: ('A' for Active; 'I' for Inactive)
REMARK    1  A    between atoms: C_1  and  C_2
REMARK    2  A    between atoms: C_2  and  O_3
REMARK    3  A    between atoms: O_3  and  C_4
REMARK    4  A    between atoms: C_4  and  C_6
REMARK    5  A    between atoms: C_7  and  C_23
REMARK    6  A    between atoms: C_12  and  C_14
REMARK    7  A    between atoms: C_17  and  N_20
REMARK    8  A    between atoms: C_23  and  N_24
REMARK                            x       y       z     vdW  Elec       q    Type
REMARK                         _______ _______ _______ _____ _____    ______ ____
ROOT
ATOM      1  C   UNL     1       1.466  -2.376   2.362  0.00  0.00    +0.079 C 
ATOM      2  C   UNL     1       1.466  -3.699   2.634  0.00  0.00    +0.038 C 
ATOM      3  N   UNL     1       2.062  -4.187   3.761  0.00  0.00    -0.271 N 
ATOM      4  C   UNL     1       2.679  -3.418   4.668  0.00  0.00    +0.304 C 
ATOM      5  O   UNL     1       3.181  -3.944   5.641  0.00  0.00    -0.252 OA
ATOM      6  N   UNL     1       2.761  -2.079   4.535  0.00  0.00    -0.288 N 
ATOM      7  C   UNL     1       2.155  -1.454   3.347  0.00  0.00    +0.144 C 
ATOM      8  H   UNL     1       2.037  -5.144   3.915  0.00  0.00    +0.156 HD
ATOM      9  H   UNL     1       3.213  -1.541   5.203  0.00  0.00    +0.151 HD
ENDROOT
BRANCH   7  10
ATOM     10  C   UNL     1       1.142  -0.445   3.825  0.00  0.00    -0.022 A 
ATOM     11  C   UNL     1       0.237  -0.790   4.812  0.00  0.00    +0.008 A 
ATOM     12  C   UNL     1      -0.692   0.135   5.250  0.00  0.00    +0.033 A 
ATOM     13  C   UNL     1      -0.716   1.404   4.703  0.00  0.00    +0.126 A 
ATOM     14  C   UNL     1       0.190   1.749   3.717  0.00  0.00    +0.033 A 
ATOM     15  C   UNL     1       1.122   0.825   3.282  0.00  0.00    +0.008 A 
BRANCH  13  16
ATOM     16  N   UNL     1      -1.711   2.394   5.172  0.00  0.00    +0.056 N 
ATOM     17  O   UNL     1      -2.504   2.093   6.034  0.00  0.00    -0.126 OA
ATOM     18  O   UNL     1      -1.732   3.504   4.693  0.00  0.00    -0.126 OA
ENDBRANCH  13  16
ENDBRANCH   7  10
BRANCH   1  19
ATOM     19  C   UNL     1       0.850  -1.869   1.194  0.00  0.00    +0.339 C 
ATOM     20  O   UNL     1       1.532  -1.529   0.245  0.00  0.00    -0.245 OA
BRANCH  19  21
ATOM     21  O   UNL     1      -0.494  -1.764   1.131  0.00  0.00    -0.462 OA
BRANCH  21  23
ATOM     22  C   UNL     1      -2.573  -1.199   0.037  0.00  0.00    +0.048 C 
ATOM     23  C   UNL     1      -1.048  -1.244  -0.079  0.00  0.00    +0.229 C 
ENDBRANCH  21  23
ENDBRANCH  19  21
ENDBRANCH   1  19
BRANCH   2  24
ATOM     24  C   UNL     1       0.797  -4.652   1.677  0.00  0.00    +0.136 C 
BRANCH  24  25
ATOM     25  N   UNL     1       1.804  -5.553   1.100  0.00  0.00    -0.294 NA
ATOM     26  C   UNL     1       2.753  -4.812   0.259  0.00  0.00    +0.103 C 
ATOM     27  C   UNL     1       3.885  -5.750  -0.175  0.00  0.00    +0.122 C 
ATOM     28  N   UNL     1       3.292  -6.938  -0.806  0.00  0.00    -0.314 N 
ATOM     29  C   UNL     1       2.232  -7.656  -0.081  0.00  0.00    +0.122 C 
ATOM     30  C   UNL     1       1.166  -6.643   0.350  0.00  0.00    +0.103 C 
ATOM     31  C   UNL     1       3.721  -7.372  -2.055  0.00  0.00    +0.099 A 
ATOM     32  C   UNL     1       4.817  -6.763  -2.657  0.00  0.00    +0.042 A 
ATOM     33  C   UNL     1       5.233  -7.205  -3.900  0.00  0.00    +0.005 A 
ATOM     34  C   UNL     1       4.537  -8.245  -4.501  0.00  0.00    +0.018 A 
ATOM     35  C   UNL     1       3.457  -8.803  -3.847  0.00  0.00    +0.084 A 
ATOM     36  N   UNL     1       3.086  -8.365  -2.659  0.00  0.00    -0.350 N 
ATOM     37  H   UNL     1       2.326  -8.777  -2.218  0.00  0.00    +0.166 HD
ENDBRANCH  24  25
ENDBRANCH   2  24
TORSDOF 7
