REMARK  Name = ZINC00883444
REMARK  8 active torsions:
REMARK  status: ('A' for Active; 'I' for Inactive)
REMARK    1  A    between atoms: C_3  and  C_6
REMARK    2  A    between atoms: C_6  and  C_8
REMARK    3  A    between atoms: C_6  and  N_17
REMARK    4  A    between atoms: N_10  and  C_11
REMARK    5  A    between atoms: N_17  and  C_18
REMARK    6  A    between atoms: C_21  and  S_24
REMARK    7  A    between atoms: S_24  and  N_27
REMARK    8  A    between atoms: C_34  and  C_36
REMARK                            x       y       z     vdW  Elec       q    Type
REMARK                         _______ _______ _______ _____ _____    ______ ____
ROOT
ATOM      1  N   UNL     1       3.782   1.821  -0.142  0.00  0.00    -0.250 N 
ATOM      2  C   UNL     1       2.799   0.982   0.239  0.00  0.00    +0.272 C 
ATOM      3  O   UNL     1       3.025  -0.207   0.354  0.00  0.00    -0.268 OA
ENDROOT
BRANCH   1   4
ATOM      4  C   UNL     1       5.056   1.322  -0.428  0.00  0.00    +0.038 A 
ATOM      5  C   UNL     1       6.123   2.194  -0.601  0.00  0.00    +0.025 A 
ATOM      6  C   UNL     1       7.382   1.697  -0.877  0.00  0.00    +0.030 A 
ATOM      7  C   UNL     1       7.578   0.333  -0.994  0.00  0.00    +0.106 A 
ATOM      8  C   UNL     1       6.516  -0.538  -0.829  0.00  0.00    +0.030 A 
ATOM      9  C   UNL     1       5.256  -0.048  -0.546  0.00  0.00    +0.025 A 
BRANCH   7  10
ATOM     10  S   UNL     1       9.183  -0.296  -1.355  0.00  0.00    +0.061 S 
ATOM     11  O   UNL     1      10.112   0.689  -0.924  0.00  0.00    -0.153 OA
ATOM     12  O   UNL     1       9.213  -1.633  -0.875  0.00  0.00    -0.153 OA
BRANCH  10  13
ATOM     13  N   UNL     1       9.316  -0.383  -3.004  0.00  0.00    -0.177 NA
ATOM     14  C   UNL     1       8.919  -1.605  -3.668  0.00  0.00    +0.109 C 
ATOM     15  C   UNL     1      10.120  -2.570  -3.754  0.00  0.00    +0.017 C 
ATOM     16  C   UNL     1      11.105  -2.073  -4.727  0.00  0.00    +0.001 C 
ATOM     17  C   UNL     1      11.725  -0.728  -4.362  0.00  0.00    +0.001 C 
ATOM     18  C   UNL     1      10.827   0.384  -4.845  0.00  0.00    +0.017 C 
ATOM     19  C   UNL     1       9.841   0.788  -3.734  0.00  0.00    +0.109 C 
ENDBRANCH  10  13
ENDBRANCH   7  10
ENDBRANCH   1   4
BRANCH   2  20
ATOM     20  C   UNL     1       1.442   1.507   0.517  0.00  0.00    +0.144 A 
ATOM     21  C   UNL     1       0.341   0.652   0.488  0.00  0.00    +0.143 A 
ATOM     22  N   UNL     1      -0.867   1.127   0.732  0.00  0.00    -0.259 NA
ATOM     23  C   UNL     1      -1.031   2.408   1.012  0.00  0.00    +0.130 A 
ATOM     24  C   UNL     1       0.062   3.261   1.042  0.00  0.00    +0.131 A 
ATOM     25  N   UNL     1       1.271   2.797   0.795  0.00  0.00    -0.247 NA
ENDBRANCH   2  20
BRANCH   1  26
ATOM     26  C   UNL     1       3.515   3.257  -0.257  0.00  0.00    +0.204 C 
BRANCH  26  29
ATOM     27  C   UNL     1       4.397   5.524   2.675  0.00  0.00    +0.008 A 
ATOM     28  C   UNL     1       3.646   5.018   1.631  0.00  0.00    +0.013 A 
ATOM     29  C   UNL     1       4.135   3.978   0.912  0.00  0.00    +0.019 A 
ATOM     30  S   UNL     1       5.701   3.679   1.716  0.00  0.00    -0.099 S 
ATOM     31  C   UNL     1       5.601   4.966   2.949  0.00  0.00    +0.045 A 
ENDBRANCH  26  29
BRANCH  26  32
ATOM     32  C   UNL     1       4.110   3.778  -1.540  0.00  0.00    +0.239 C 
ATOM     33  O   UNL     1       4.698   3.023  -2.286  0.00  0.00    -0.273 OA
ATOM     34  N   UNL     1       3.988   5.081  -1.859  0.00  0.00    -0.311 N 
ATOM     35  H   UNL     1       3.517   5.685  -1.263  0.00  0.00    +0.149 HD
BRANCH  34  36
ATOM     36  C   UNL     1       4.566   5.587  -3.107  0.00  0.00    +0.073 C 
ATOM     37  C   UNL     1       6.040   5.931  -2.883  0.00  0.00    +0.022 C 
ATOM     38  C   UNL     1       6.643   6.460  -4.186  0.00  0.00    +0.002 C 
ATOM     39  C   UNL     1       5.888   7.715  -4.626  0.00  0.00    +0.000 C 
ATOM     40  C   UNL     1       4.414   7.371  -4.849  0.00  0.00    +0.002 C 
ATOM     41  C   UNL     1       3.810   6.843  -3.546  0.00  0.00    +0.022 C 
ENDBRANCH  34  36
ENDBRANCH  26  32
ENDBRANCH   1  26
TORSDOF 8
