REMARK  Name = ZINC39637451
REMARK  8 active torsions:
REMARK  status: ('A' for Active; 'I' for Inactive)
REMARK    1  A    between atoms: C_1  and  C_2
REMARK    2  A    between atoms: C_7  and  N_12
REMARK    3  A    between atoms: C_9  and  C_11
REMARK    4  A    between atoms: C_13  and  C_15
REMARK    5  A    between atoms: C_26  and  C_28
REMARK    6  A    between atoms: C_34  and  O_36
REMARK    7  A    between atoms: O_36  and  C_37
REMARK    8  A    between atoms: C_37  and  C_38
REMARK                            x       y       z     vdW  Elec       q    Type
REMARK                         _______ _______ _______ _____ _____    ______ ____
ROOT
ATOM      1  C   UNL     1       1.363  -0.333   6.074  0.00  0.00    +0.100 C 
ATOM      2  C   UNL     1       0.754  -1.669   6.555  0.00  0.00    +0.121 C 
ATOM      3  N   UNL     1       0.806  -1.593   8.034  0.00  0.00    -0.300 N 
ATOM      4  C   UNL     1       0.456  -0.186   8.344  0.00  0.00    +0.115 C 
ATOM      5  C   UNL     1       1.164   0.638   7.250  0.00  0.00    -0.004 C 
ATOM      6  C   UNL     1       0.288   1.812   6.824  0.00  0.00    -0.010 C 
ATOM      7  C   UNL     1       0.153   2.793   7.993  0.00  0.00    -0.082 C 
ATOM      8  N   UNL     1       1.484   3.268   8.391  0.00  0.00    +0.379 N 
ATOM      9  C   UNL     1       2.289   2.145   8.887  0.00  0.00    -0.082 C 
ATOM     10  C   UNL     1       2.514   1.137   7.756  0.00  0.00    -0.010 C 
ATOM     11  C   UNL     1       1.105  -2.580   8.902  0.00  0.00    +0.219 C 
ATOM     12  O   UNL     1       1.105  -2.360  10.094  0.00  0.00    -0.275 OA
ATOM     13  H   UNL     1       1.943   3.684   7.595  0.00  0.00    -0.086 HD
ATOM     14  H   UNL     1       1.388   3.959   9.120  0.00  0.00    -0.086 HD
ENDROOT
BRANCH  11  15
ATOM     15  C   UNL     1       1.439  -3.958   8.390  0.00  0.00    +0.078 C 
ATOM     16  C   UNL     1       0.252  -4.508   7.596  0.00  0.00    +0.032 C 
ATOM     17  C   UNL     1       0.608  -5.894   7.048  0.00  0.00    +0.112 C 
ATOM     18  N   UNL     1       1.035  -6.748   8.165  0.00  0.00    -0.267 N 
ATOM     19  C   UNL     1       2.109  -6.273   9.047  0.00  0.00    +0.112 C 
ATOM     20  C   UNL     1       1.737  -4.883   9.572  0.00  0.00    +0.032 C 
ATOM     21  C   UNL     1       0.453  -7.945   8.376  0.00  0.00    +0.403 C 
ATOM     22  O   UNL     1      -0.435  -8.327   7.639  0.00  0.00    -0.226 OA
BRANCH  21  23
ATOM     23  O   UNL     1       0.855  -8.718   9.403  0.00  0.00    -0.445 OA
BRANCH  23  24
ATOM     24  C   UNL     1       0.194  -9.974   9.567  0.00  0.00    +0.269 C 
BRANCH  24  25
ATOM     25  C   UNL     1       0.772 -10.694  10.758  0.00  0.00    -0.010 A 
ATOM     26  C   UNL     1       1.853 -11.540  10.596  0.00  0.00    +0.007 A 
ATOM     27  C   UNL     1       2.383 -12.201  11.688  0.00  0.00    +0.000 A 
ATOM     28  C   UNL     1       1.833 -12.015  12.942  0.00  0.00    +0.000 A 
ATOM     29  C   UNL     1       0.752 -11.168  13.104  0.00  0.00    +0.000 A 
ATOM     30  C   UNL     1       0.225 -10.504  12.013  0.00  0.00    +0.007 A 
ENDBRANCH  24  25
ENDBRANCH  23  24
ENDBRANCH  21  23
ENDBRANCH  11  15
BRANCH   1  32
ATOM     31  N   UNL     1       1.282   0.918   3.942  0.00  0.00    -0.312 N 
ATOM     32  C   UNL     1       0.634   0.166   4.853  0.00  0.00    +0.218 C 
ATOM     33  O   UNL     1      -0.536  -0.109   4.690  0.00  0.00    -0.275 OA
ATOM     34  H   UNL     1       2.218   1.138   4.071  0.00  0.00    +0.149 HD
BRANCH  31  40
ATOM     35  C   UNL     1      -0.933   3.495   1.362  0.00  0.00    +0.008 C 
ATOM     36  C   UNL     1       0.517   3.176   0.995  0.00  0.00    -0.009 C 
ATOM     37  C   UNL     1       0.544   2.099  -0.091  0.00  0.00    +0.003 C 
ATOM     38  C   UNL     1      -0.140   0.833   0.429  0.00  0.00    +0.002 C 
ATOM     39  C   UNL     1       0.600   0.326   1.669  0.00  0.00    +0.022 C 
ATOM     40  C   UNL     1       0.573   1.404   2.755  0.00  0.00    +0.076 C 
ATOM     41  C   UNL     1       1.258   2.669   2.234  0.00  0.00    +0.009 C 
ATOM     42  C   UNL     1       1.231   3.747   3.320  0.00  0.00    +0.009 C 
ENDBRANCH  31  40
ENDBRANCH   1  32
TORSDOF 6
