REMARK  Name = ZINC39673198
REMARK  11 active torsions:
REMARK  status: ('A' for Active; 'I' for Inactive)
REMARK    1  A    between atoms: C_1  and  C_2
REMARK    2  A    between atoms: C_5  and  C_9
REMARK    3  A    between atoms: C_7  and  C_8
REMARK    4  A    between atoms: C_9  and  N_10
REMARK    5  A    between atoms: C_11  and  C_13
REMARK    6  A    between atoms: C_24  and  C_26
REMARK    7  A    between atoms: C_26  and  C_28
REMARK    8  A    between atoms: C_26  and  O_31
REMARK    9  A    between atoms: C_28  and  C_29
REMARK   10  A    between atoms: C_28  and  C_30
REMARK   11  A    between atoms: O_31  and  C_32
REMARK                            x       y       z     vdW  Elec       q    Type
REMARK                         _______ _______ _______ _____ _____    ______ ____
ROOT
ATOM      1  C   UNL     1       2.938  -7.350   0.092  0.00  0.00    +0.100 C 
ATOM      2  C   UNL     1       3.613  -6.727  -1.150  0.00  0.00    +0.121 C 
ATOM      3  N   UNL     1       4.568  -7.760  -1.615  0.00  0.00    -0.297 N 
ATOM      4  C   UNL     1       3.844  -9.041  -1.429  0.00  0.00    +0.115 C 
ATOM      5  C   UNL     1       3.091  -8.869  -0.095  0.00  0.00    -0.004 C 
ATOM      6  C   UNL     1       1.719  -9.532  -0.175  0.00  0.00    -0.010 C 
ATOM      7  C   UNL     1       1.897 -11.048  -0.303  0.00  0.00    -0.082 C 
ATOM      8  N   UNL     1       2.641 -11.554   0.857  0.00  0.00    +0.379 N 
ATOM      9  C   UNL     1       3.993 -10.982   0.874  0.00  0.00    -0.082 C 
ATOM     10  C   UNL     1       3.904  -9.463   1.051  0.00  0.00    -0.010 C 
ATOM     11  C   UNL     1       5.813  -7.577  -2.098  0.00  0.00    +0.257 C 
ATOM     12  O   UNL     1       6.302  -6.468  -2.108  0.00  0.00    -0.272 OA
ATOM     13  H   UNL     1       2.158 -11.296   1.704  0.00  0.00    -0.086 HD
ATOM     14  H   UNL     1       2.704 -12.560   0.801  0.00  0.00    -0.086 HD
ENDROOT
BRANCH   1  16
ATOM     15  N   UNL     1       0.819  -6.987   1.317  0.00  0.00    -0.311 N 
ATOM     16  C   UNL     1       1.480  -6.972   0.142  0.00  0.00    +0.218 C 
ATOM     17  O   UNL     1       0.901  -6.653  -0.875  0.00  0.00    -0.275 OA
ATOM     18  H   UNL     1       1.282  -7.242   2.130  0.00  0.00    +0.149 HD
BRANCH  15  19
ATOM     19  C   UNL     1      -0.598  -6.620   1.365  0.00  0.00    +0.139 C 
BRANCH  19  24
ATOM     20  C   UNL     1      -2.504  -6.998   6.807  0.00  0.00    +0.044 C 
ATOM     21  C   UNL     1      -2.007  -6.900   5.388  0.00  0.00    -0.048 A 
ATOM     22  C   UNL     1      -1.475  -5.711   4.923  0.00  0.00    +0.004 A 
ATOM     23  C   UNL     1      -1.019  -5.621   3.621  0.00  0.00    +0.005 A 
ATOM     24  C   UNL     1      -1.094  -6.719   2.785  0.00  0.00    -0.030 A 
ATOM     25  C   UNL     1      -1.625  -7.907   3.250  0.00  0.00    +0.008 A 
ATOM     26  C   UNL     1      -2.077  -7.999   4.553  0.00  0.00    -0.047 A 
ATOM     27  C   UNL     1      -2.651  -9.296   5.062  0.00  0.00    +0.044 C 
ENDBRANCH  19  24
ENDBRANCH  15  19
ENDBRANCH   1  16
BRANCH  11  28
ATOM     28  C   UNL     1       6.596  -8.751  -2.626  0.00  0.00    +0.261 C 
BRANCH  28  29
ATOM     29  C   UNL     1       5.899  -9.314  -3.866  0.00  0.00    +0.033 C 
ATOM     30  C   UNL     1       5.922  -8.267  -4.982  0.00  0.00    +0.011 C 
ATOM     31  C   UNL     1       6.629 -10.574  -4.334  0.00  0.00    +0.011 C 
ENDBRANCH  28  29
BRANCH  28  32
ATOM     32  O   UNL     1       7.916  -8.326  -2.973  0.00  0.00    -0.479 OA
BRANCH  32  33
ATOM     33  C   UNL     1       8.928  -9.203  -2.740  0.00  0.00    +0.122 A 
ATOM     34  C   UNL     1      10.236  -8.850  -3.038  0.00  0.00    +0.045 A 
ATOM     35  C   UNL     1      11.262  -9.743  -2.801  0.00  0.00    +0.004 A 
ATOM     36  C   UNL     1      10.987 -10.989  -2.267  0.00  0.00    +0.000 A 
ATOM     37  C   UNL     1       9.684 -11.343  -1.969  0.00  0.00    +0.004 A 
ATOM     38  C   UNL     1       8.655 -10.451  -2.199  0.00  0.00    +0.045 A 
ENDBRANCH  32  33
ENDBRANCH  28  32
ENDBRANCH  11  28
TORSDOF 7
