REMARK  Name = ZINC39596126
REMARK  8 active torsions:
REMARK  status: ('A' for Active; 'I' for Inactive)
REMARK    1  A    between atoms: C_1  and  C_2
REMARK    2  A    between atoms: C_2  and  C_4
REMARK    3  A    between atoms: C_2  and  O_27
REMARK    4  A    between atoms: C_4  and  N_5
REMARK    5  A    between atoms: C_6  and  C_8
REMARK    6  A    between atoms: C_19  and  C_21
REMARK    7  A    between atoms: N_25  and  C_26
REMARK    8  A    between atoms: O_27  and  C_28
REMARK                            x       y       z     vdW  Elec       q    Type
REMARK                         _______ _______ _______ _____ _____    ______ ____
ROOT
ATOM      1  C   UNL     1       1.046  -4.846  -2.151  0.00  0.00    +0.100 C 
ATOM      2  C   UNL     1       1.535  -5.188  -0.726  0.00  0.00    +0.121 C 
ATOM      3  N   UNL     1       2.424  -6.360  -0.907  0.00  0.00    -0.295 N 
ATOM      4  C   UNL     1       3.167  -6.070  -2.157  0.00  0.00    +0.115 C 
ATOM      5  C   UNL     1       2.120  -5.425  -3.087  0.00  0.00    -0.004 C 
ATOM      6  C   UNL     1       2.760  -4.311  -3.910  0.00  0.00    -0.010 C 
ATOM      7  C   UNL     1       3.783  -4.919  -4.874  0.00  0.00    -0.082 C 
ATOM      8  N   UNL     1       3.114  -5.883  -5.756  0.00  0.00    +0.379 N 
ATOM      9  C   UNL     1       2.581  -6.999  -4.965  0.00  0.00    -0.082 C 
ATOM     10  C   UNL     1       1.508  -6.479  -4.004  0.00  0.00    -0.010 C 
ATOM     11  C   UNL     1       2.533  -7.445  -0.114  0.00  0.00    +0.263 C 
ATOM     12  O   UNL     1       3.326  -8.325  -0.393  0.00  0.00    -0.268 OA
ATOM     13  H   UNL     1       2.357  -5.425  -6.241  0.00  0.00    -0.086 HD
ATOM     14  H   UNL     1       3.777  -6.236  -6.430  0.00  0.00    -0.086 HD
ENDROOT
BRANCH  11  15
ATOM     15  C   UNL     1       1.696  -7.564   1.084  0.00  0.00    +0.104 A 
ATOM     16  C   UNL     1       0.956  -6.557   1.665  0.00  0.00    +0.032 A 
ATOM     17  C   UNL     1       0.314  -7.108   2.779  0.00  0.00    +0.020 A 
ATOM     18  C   UNL     1       0.665  -8.414   2.857  0.00  0.00    +0.086 A 
ATOM     19  N   UNL     1       1.500  -8.705   1.829  0.00  0.00    -0.346 N 
ATOM     20  C   UNL     1       2.097 -10.015   1.559  0.00  0.00    +0.149 C 
ENDBRANCH  11  15
BRANCH   1  22
ATOM     21  N   UNL     1       0.033  -2.832  -3.170  0.00  0.00    -0.312 N 
ATOM     22  C   UNL     1       0.947  -3.352  -2.327  0.00  0.00    +0.218 C 
ATOM     23  O   UNL     1       1.689  -2.619  -1.710  0.00  0.00    -0.275 OA
ATOM     24  H   UNL     1      -0.561  -3.419  -3.664  0.00  0.00    +0.149 HD
BRANCH  21  25
ATOM     25  C   UNL     1      -0.063  -1.381  -3.341  0.00  0.00    +0.148 C 
BRANCH  25  27
ATOM     26  C   UNL     1      -1.189   0.448  -4.619  0.00  0.00    +0.053 C 
ATOM     27  C   UNL     1      -1.171  -1.058  -4.346  0.00  0.00    +0.187 C 
BRANCH  27  28
ATOM     28  O   UNL     1      -2.433  -1.460  -3.809  0.00  0.00    -0.488 OA
BRANCH  28  29
ATOM     29  C   UNL     1      -3.437  -1.689  -4.696  0.00  0.00    +0.121 A 
ATOM     30  C   UNL     1      -3.191  -1.607  -6.059  0.00  0.00    +0.048 A 
ATOM     31  C   UNL     1      -4.212  -1.840  -6.960  0.00  0.00    +0.042 A 
ATOM     32  C   UNL     1      -5.480  -2.156  -6.503  0.00  0.00    +0.124 A 
ATOM     33  C   UNL     1      -5.727  -2.237  -5.144  0.00  0.00    +0.042 A 
ATOM     34  C   UNL     1      -4.707  -2.011  -4.240  0.00  0.00    +0.048 A 
ATOM     35  F   UNL     1      -6.478  -2.383  -7.386  0.00  0.00    -0.205 F 
ENDBRANCH  28  29
ENDBRANCH  27  28
ENDBRANCH  25  27
ENDBRANCH  21  25
ENDBRANCH   1  22
TORSDOF 6
