REMARK  Name = ZINC01072534
REMARK  7 active torsions:
REMARK  status: ('A' for Active; 'I' for Inactive)
REMARK    1  A    between atoms: C_1  and  O_2
REMARK    2  A    between atoms: O_2  and  C_3
REMARK    3  A    between atoms: C_6  and  C_9
REMARK    4  A    between atoms: C_9  and  C_22
REMARK    5  A    between atoms: C_11  and  C_17
REMARK    6  A    between atoms: C_25  and  O_29
REMARK    7  A    between atoms: C_27  and  O_28
REMARK                            x       y       z     vdW  Elec       q    Type
REMARK                         _______ _______ _______ _____ _____    ______ ____
ROOT
ATOM      1  C   UNL     1       0.408  -2.046   1.364  0.00  0.00    +0.089 C 
ATOM      2  C   UNL     1       0.240  -0.524   1.427  0.00  0.00    +0.065 C 
ATOM      3  C   UNL     1      -0.033  -0.005   0.011  0.00  0.00    +0.141 C 
ATOM      4  N   UNL     1       1.043  -0.445  -0.879  0.00  0.00    -0.317 N 
ATOM      5  C   UNL     1       1.716  -1.582  -0.650  0.00  0.00    +0.132 C 
ATOM      6  S   UNL     1       2.951  -2.040  -1.744  0.00  0.00    -0.019 S 
ATOM      7  N   UNL     1       1.460  -2.376   0.400  0.00  0.00    -0.313 N 
ATOM      8  H   UNL     1       1.273   0.097  -1.649  0.00  0.00    +0.148 HD
ATOM      9  H   UNL     1       1.981  -3.184   0.524  0.00  0.00    +0.149 HD
ENDROOT
BRANCH   1  13
ATOM     10  C   UNL     1      -3.272  -3.834   0.130  0.00  0.00    +0.120 A 
ATOM     11  C   UNL     1      -2.064  -4.439  -0.188  0.00  0.00    +0.046 A 
ATOM     12  C   UNL     1      -0.876  -3.859   0.212  0.00  0.00    +0.009 A 
ATOM     13  C   UNL     1      -0.889  -2.677   0.929  0.00  0.00    -0.019 A 
ATOM     14  C   UNL     1      -2.091  -2.075   1.251  0.00  0.00    +0.009 A 
ATOM     15  C   UNL     1      -3.282  -2.648   0.849  0.00  0.00    +0.046 A 
BRANCH  10  17
ATOM     16  C   UNL     1      -5.646  -3.724   0.099  0.00  0.00    +0.277 C 
ATOM     17  O   UNL     1      -4.442  -4.402  -0.264  0.00  0.00    -0.495 OA
ENDBRANCH  10  17
ENDBRANCH   1  13
BRANCH   1  18
ATOM     18  C   UNL     1       0.792  -2.568   2.725  0.00  0.00    +0.022 A 
ATOM     19  C   UNL     1      -0.035  -3.462   3.380  0.00  0.00    +0.013 A 
ATOM     20  C   UNL     1       0.314  -3.942   4.627  0.00  0.00    +0.046 A 
ATOM     21  C   UNL     1       1.496  -3.528   5.226  0.00  0.00    +0.120 A 
ATOM     22  C   UNL     1       2.326  -2.632   4.572  0.00  0.00    +0.091 A 
ATOM     23  C   UNL     1       1.976  -2.155   3.317  0.00  0.00    +0.126 A 
BRANCH  23  24
ATOM     24  O   UNL     1       2.791  -1.281   2.671  0.00  0.00    -0.506 OA
ATOM     25  H   UNL     1       2.602  -0.352   2.862  0.00  0.00    +0.292 HD
ENDBRANCH  23  24
BRANCH  21  26
ATOM     26  O   UNL     1       1.838  -4.000   6.454  0.00  0.00    -0.507 OA
ATOM     27  H   UNL     1       2.365  -4.811   6.430  0.00  0.00    +0.292 HD
ENDBRANCH  21  26
ENDBRANCH   1  18
BRANCH   3  28
ATOM     28  C   UNL     1      -0.088   1.501   0.029  0.00  0.00    +0.125 A 
ATOM     29  C   UNL     1      -1.207   2.247   0.033  0.00  0.00    +0.046 A 
ATOM     30  C   UNL     1      -0.797   3.600   0.054  0.00  0.00    +0.041 A 
ATOM     31  C   UNL     1       0.548   3.600   0.053  0.00  0.00    +0.195 A 
ATOM     32  O   UNL     1       0.972   2.326   0.038  0.00  0.00    -0.466 OA
ENDBRANCH   3  28
TORSDOF 6
