REMARK  Name = ZINC39354619
REMARK  8 active torsions:
REMARK  status: ('A' for Active; 'I' for Inactive)
REMARK    1  A    between atoms: C_1  and  C_2
REMARK    2  A    between atoms: C_6  and  C_8
REMARK    3  A    between atoms: C_8  and  N_9
REMARK    4  A    between atoms: N_16  and  C_17
REMARK    5  A    between atoms: C_17  and  C_18
REMARK    6  A    between atoms: C_18  and  C_19
REMARK    7  A    between atoms: N_28  and  C_35
REMARK    8  A    between atoms: N_31  and  C_34
REMARK                            x       y       z     vdW  Elec       q    Type
REMARK                         _______ _______ _______ _____ _____    ______ ____
ROOT
ATOM      1  N   UNL     1       1.440  -3.073   2.903  0.00  0.00    -0.286 N 
ATOM      2  C   UNL     1       2.314  -4.199   2.579  0.00  0.00    +0.203 C 
ATOM      3  C   UNL     1       2.969  -4.354   3.988  0.00  0.00    +0.203 C 
ATOM      4  N   UNL     1       3.179  -2.969   4.338  0.00  0.00    -0.341 N 
ATOM      5  C   UNL     1       2.255  -2.265   3.701  0.00  0.00    +0.159 C 
ATOM      6  N   UNL     1       2.112  -0.902   3.812  0.00  0.00    -0.318 N 
ATOM      7  N   UNL     1       4.044  -5.299   3.844  0.00  0.00    -0.266 N 
ATOM      8  C   UNL     1       3.742  -6.429   3.141  0.00  0.00    +0.312 C 
ATOM      9  O   UNL     1       4.579  -7.304   3.036  0.00  0.00    -0.252 OA
ATOM     10  N   UNL     1       2.536  -6.598   2.562  0.00  0.00    -0.227 N 
ATOM     11  C   UNL     1       1.716  -5.529   2.263  0.00  0.00    +0.247 C 
ATOM     12  O   UNL     1       0.609  -5.648   1.782  0.00  0.00    -0.273 OA
ATOM     13  C   UNL     1       2.082  -7.953   2.236  0.00  0.00    +0.143 C 
ATOM     14  C   UNL     1       5.374  -5.063   4.412  0.00  0.00    +0.136 C 
ATOM     15  H   UNL     1       1.412  -0.446   3.318  0.00  0.00    +0.149 HD
ATOM     16  H   UNL     1       3.867  -2.620   4.925  0.00  0.00    +0.164 HD
ENDROOT
BRANCH   1  17
ATOM     17  C   UNL     1       0.054  -2.845   2.489  0.00  0.00    +0.143 C 
BRANCH  17  23
ATOM     18  C   UNL     1      -0.018   1.503   0.010  0.00  0.00    +0.044 C 
ATOM     19  C   UNL     1       0.002  -0.004   0.002  0.00  0.00    -0.050 A 
ATOM     20  C   UNL     1       0.006  -0.689  -1.199  0.00  0.00    +0.003 A 
ATOM     21  C   UNL     1       0.025  -2.071  -1.207  0.00  0.00    +0.001 A 
ATOM     22  C   UNL     1       0.040  -2.768  -0.013  0.00  0.00    +0.005 A 
ATOM     23  C   UNL     1       0.037  -2.084   1.188  0.00  0.00    -0.030 A 
ATOM     24  C   UNL     1       0.023  -0.702   1.195  0.00  0.00    +0.008 A 
ENDBRANCH  17  23
ENDBRANCH   1  17
BRANCH   6  25
ATOM     25  C   UNL     1       3.016  -0.139   4.675  0.00  0.00    +0.109 C 
BRANCH  25  26
ATOM     26  C   UNL     1       2.644   1.344   4.619  0.00  0.00    +0.056 C 
BRANCH  26  27
ATOM     27  C   UNL     1       3.574   2.130   5.507  0.00  0.00    -0.021 A 
ATOM     28  C   UNL     1       4.895   2.648   5.143  0.00  0.00    +0.003 A 
ATOM     29  C   UNL     1       5.669   2.603   3.982  0.00  0.00    +0.010 A 
ATOM     30  C   UNL     1       6.897   3.203   3.962  0.00  0.00    +0.001 A 
ATOM     31  C   UNL     1       7.382   3.855   5.088  0.00  0.00    +0.002 A 
ATOM     32  C   UNL     1       6.635   3.911   6.244  0.00  0.00    +0.026 A 
ATOM     33  C   UNL     1       5.382   3.308   6.287  0.00  0.00    +0.047 A 
ATOM     34  N   UNL     1       4.418   3.192   7.264  0.00  0.00    -0.360 N 
ATOM     35  C   UNL     1       3.347   2.492   6.779  0.00  0.00    +0.087 A 
ATOM     36  H   UNL     1       4.487   3.556   8.160  0.00  0.00    +0.165 HD
ENDBRANCH  26  27
ENDBRANCH  25  26
ENDBRANCH   6  25
TORSDOF 5
