REMARK  Name = ZINC66445115
REMARK  4 active torsions:
REMARK  status: ('A' for Active; 'I' for Inactive)
REMARK    1  A    between atoms: C_6  and  C_7
REMARK    2  A    between atoms: C_7  and  C_8
REMARK    3  A    between atoms: N_10  and  C_11
REMARK    4  A    between atoms: C_18  and  C_21
REMARK                            x       y       z     vdW  Elec       q    Type
REMARK                         _______ _______ _______ _____ _____    ______ ____
ROOT
ATOM      1  C   UNL     1      -2.163  -0.596  -1.351  0.00  0.00    +0.222 C 
ATOM      2  O   UNL     1      -1.883   0.200  -2.223  0.00  0.00    -0.275 OA
ATOM      3  N   UNL     1      -2.878  -1.698  -1.650  0.00  0.00    -0.285 N 
ATOM      4  H   UNL     1      -3.045  -2.368  -0.968  0.00  0.00    +0.155 HD
ENDROOT
BRANCH   3   5
ATOM      5  C   UNL     1      -3.380  -1.878  -2.946  0.00  0.00    +0.036 A 
ATOM      6  C   UNL     1      -2.639  -1.441  -4.043  0.00  0.00    +0.025 A 
ATOM      7  C   UNL     1      -3.121  -1.611  -5.322  0.00  0.00    +0.029 A 
ATOM      8  C   UNL     1      -4.352  -2.223  -5.522  0.00  0.00    +0.066 A 
ATOM      9  C   UNL     1      -5.104  -2.667  -4.423  0.00  0.00    +0.091 A 
ATOM     10  C   UNL     1      -4.604  -2.493  -3.130  0.00  0.00    +0.053 A 
ATOM     11  N   UNL     1      -6.244  -3.215  -4.918  0.00  0.00    -0.230 NA
ATOM     12  C   UNL     1      -6.239  -3.137  -6.217  0.00  0.00    +0.137 A 
ATOM     13  N   UNL     1      -5.096  -2.535  -6.644  0.00  0.00    -0.340 N 
ATOM     14  H   UNL     1      -4.851  -2.357  -7.566  0.00  0.00    +0.167 HD
BRANCH  12  15
ATOM     15  C   UNL     1      -7.337  -3.642  -7.116  0.00  0.00    +0.184 C 
ATOM     16  C   UNL     1      -7.608  -5.133  -6.826  0.00  0.00    +0.042 C 
ATOM     17  C   UNL     1      -7.852  -5.707  -8.248  0.00  0.00    +0.031 C 
ATOM     18  C   UNL     1      -6.882  -4.838  -9.087  0.00  0.00    +0.161 C 
ATOM     19  O   UNL     1      -6.933  -3.532  -8.486  0.00  0.00    -0.369 OA
ENDBRANCH  12  15
ENDBRANCH   3   5
BRANCH   1  20
ATOM     20  C   UNL     1      -1.712  -0.351   0.066  0.00  0.00    +0.131 C 
BRANCH  20  26
ATOM     21  C   UNL     1      -1.596   2.128   0.380  0.00  0.00    +0.008 A 
ATOM     22  C   UNL     1      -0.889   3.314   0.439  0.00  0.00    +0.050 A 
ATOM     23  C   UNL     1       0.484   3.314   0.248  0.00  0.00    +0.162 A 
ATOM     24  C   UNL     1       1.148   2.118  -0.000  0.00  0.00    +0.162 A 
ATOM     25  C   UNL     1       0.432   0.932  -0.059  0.00  0.00    +0.053 A 
ATOM     26  C   UNL     1      -0.937   0.939   0.131  0.00  0.00    -0.035 A 
ATOM     27  O   UNL     1       2.497   2.095  -0.183  0.00  0.00    -0.485 OA
ATOM     28  C   UNL     1       3.127   3.344  -0.486  0.00  0.00    +0.270 C 
ATOM     29  C   UNL     1       2.585   4.404   0.482  0.00  0.00    +0.270 C 
ATOM     30  O   UNL     1       1.167   4.491   0.305  0.00  0.00    -0.485 OA
ENDBRANCH  20  26
ENDBRANCH   1  20
TORSDOF 4
