REMARK  Name = ZINC36650216
REMARK  7 active torsions:
REMARK  status: ('A' for Active; 'I' for Inactive)
REMARK    1  A    between atoms: C_1  and  C_2
REMARK    2  A    between atoms: C_5  and  C_8
REMARK    3  A    between atoms: C_8  and  C_26
REMARK    4  A    between atoms: N_11  and  C_15
REMARK    5  A    between atoms: C_15  and  C_16
REMARK    6  A    between atoms: N_18  and  C_19
REMARK    7  A    between atoms: C_22  and  C_25
REMARK                            x       y       z     vdW  Elec       q    Type
REMARK                         _______ _______ _______ _____ _____    ______ ____
ROOT
ATOM      1  C   UNL     1       0.059  -4.275  -0.021  0.00  0.00    +0.135 C 
ATOM      2  C   UNL     1       0.874  -4.805   1.142  0.00  0.00    +0.251 C 
ATOM      3  O   UNL     1       0.656  -4.640   2.324  0.00  0.00    -0.272 OA
ATOM      4  N   UNL     1       1.890  -5.497   0.591  0.00  0.00    -0.215 N 
ATOM      5  C   UNL     1       1.832  -5.479  -0.746  0.00  0.00    +0.310 C 
ATOM      6  O   UNL     1       2.639  -6.033  -1.465  0.00  0.00    -0.252 OA
ATOM      7  N   UNL     1       0.779  -4.778  -1.205  0.00  0.00    -0.281 N 
ATOM      8  C   UNL     1      -1.366  -4.831   0.018  0.00  0.00    +0.047 C 
ATOM      9  H   UNL     1       0.540  -4.632  -2.133  0.00  0.00    +0.152 HD
ENDROOT
BRANCH   1  14
ATOM     10  C   UNL     1      -0.018   1.503   0.010  0.00  0.00    +0.044 C 
ATOM     11  C   UNL     1       0.002  -0.004   0.002  0.00  0.00    -0.050 A 
ATOM     12  C   UNL     1       0.006  -0.689  -1.199  0.00  0.00    +0.004 A 
ATOM     13  C   UNL     1       0.025  -2.071  -1.206  0.00  0.00    +0.006 A 
ATOM     14  C   UNL     1       0.040  -2.768  -0.013  0.00  0.00    -0.015 A 
ATOM     15  C   UNL     1       0.037  -2.084   1.188  0.00  0.00    +0.006 A 
ATOM     16  C   UNL     1       0.023  -0.702   1.195  0.00  0.00    +0.004 A 
ENDBRANCH   1  14
BRANCH   4  17
ATOM     17  C   UNL     1       2.931  -6.184   1.360  0.00  0.00    +0.213 C 
BRANCH  17  18
ATOM     18  C   UNL     1       2.495  -7.598   1.643  0.00  0.00    +0.231 C 
ATOM     19  O   UNL     1       1.421  -7.994   1.242  0.00  0.00    -0.274 OA
ATOM     20  N   UNL     1       3.299  -8.424   2.342  0.00  0.00    -0.311 N 
ATOM     21  H   UNL     1       4.158  -8.107   2.663  0.00  0.00    +0.149 HD
BRANCH  20  22
ATOM     22  C   UNL     1       2.876  -9.799   2.617  0.00  0.00    +0.073 C 
ATOM     23  C   UNL     1       2.004  -9.822   3.874  0.00  0.00    +0.022 C 
ATOM     24  C   UNL     1       1.562 -11.258   4.162  0.00  0.00    +0.005 C 
ATOM     25  C   UNL     1       2.795 -12.138   4.380  0.00  0.00    -0.014 C 
ATOM     26  C   UNL     1       3.667 -12.114   3.122  0.00  0.00    +0.005 C 
ATOM     27  C   UNL     1       4.109 -10.678   2.835  0.00  0.00    +0.022 C 
ATOM     28  C   UNL     1       2.353 -13.574   4.667  0.00  0.00    +0.007 C 
ENDBRANCH  20  22
ENDBRANCH  17  18
ENDBRANCH   4  17
TORSDOF 4
