REMARK  Name = ZINC63295211
REMARK  7 active torsions:
REMARK  status: ('A' for Active; 'I' for Inactive)
REMARK    1  A    between atoms: C_1  and  O_2
REMARK    2  A    between atoms: O_2  and  C_3
REMARK    3  A    between atoms: C_5  and  N_11
REMARK    4  A    between atoms: C_7  and  O_9
REMARK    5  A    between atoms: O_9  and  C_10
REMARK    6  A    between atoms: C_12  and  C_14
REMARK    7  A    between atoms: C_21  and  C_23
REMARK                            x       y       z     vdW  Elec       q    Type
REMARK                         _______ _______ _______ _____ _____    ______ ____
ROOT
ATOM      1  C   UNL     1       2.249  -6.132   3.176  0.00  0.00    +0.093 C 
ATOM      2  C   UNL     1       2.955  -6.565   1.889  0.00  0.00    +0.016 C 
ATOM      3  C   UNL     1       3.088  -8.089   1.866  0.00  0.00    +0.020 C 
ATOM      4  C   UNL     1       3.937  -8.542   3.058  0.00  0.00    +0.108 C 
ATOM      5  N   UNL     1       3.344  -8.007   4.291  0.00  0.00    -0.299 N 
ATOM      6  C   UNL     1       3.088  -6.563   4.384  0.00  0.00    +0.120 C 
ATOM      7  C   UNL     1       3.040  -8.825   5.318  0.00  0.00    +0.242 C 
ATOM      8  O   UNL     1       2.551  -8.370   6.331  0.00  0.00    -0.273 OA
ENDROOT
BRANCH   7   9
ATOM      9  C   UNL     1       3.308 -10.303   5.209  0.00  0.00    +0.190 C 
ATOM     10  C   UNL     1       4.790 -10.554   5.043  0.00  0.00    +0.016 C 
ATOM     11  C   UNL     1       5.165 -11.301   6.106  0.00  0.00    -0.004 A 
ATOM     12  C   UNL     1       6.456 -11.865   6.519  0.00  0.00    +0.010 A 
ATOM     13  C   UNL     1       6.521 -12.588   7.661  0.00  0.00    +0.001 A 
ATOM     14  C   UNL     1       5.389 -12.811   8.457  0.00  0.00    +0.002 A 
ATOM     15  C   UNL     1       4.169 -12.326   8.143  0.00  0.00    +0.026 A 
ATOM     16  C   UNL     1       3.985 -11.552   6.964  0.00  0.00    +0.043 A 
ATOM     17  N   UNL     1       2.920 -10.981   6.451  0.00  0.00    -0.370 N 
ATOM     18  H   UNL     1       2.027 -11.003   6.828  0.00  0.00    +0.161 HD
ENDBRANCH   7   9
BRANCH   1  20
ATOM     19  N   UNL     1       1.385  -4.027   2.208  0.00  0.00    -0.285 N 
ATOM     20  C   UNL     1       2.090  -4.634   3.183  0.00  0.00    +0.222 C 
ATOM     21  O   UNL     1       2.595  -3.974   4.067  0.00  0.00    -0.275 OA
ATOM     22  H   UNL     1       0.917  -4.558   1.545  0.00  0.00    +0.155 HD
BRANCH  19  25
ATOM     23  C   UNL     1       2.365  -0.490   2.498  0.00  0.00    +0.125 A 
ATOM     24  C   UNL     1       2.421  -1.874   2.554  0.00  0.00    +0.069 A 
ATOM     25  C   UNL     1       1.329  -2.630   2.151  0.00  0.00    +0.040 A 
ATOM     26  C   UNL     1       0.181  -1.999   1.692  0.00  0.00    +0.069 A 
ATOM     27  C   UNL     1       0.126  -0.615   1.635  0.00  0.00    +0.125 A 
ATOM     28  C   UNL     1       1.216   0.140   2.043  0.00  0.00    +0.091 A 
BRANCH  23  30
ATOM     29  C   UNL     1       3.304   1.671   2.813  0.00  0.00    +0.277 C 
ATOM     30  O   UNL     1       3.434   0.250   2.893  0.00  0.00    -0.495 OA
ENDBRANCH  23  30
BRANCH  27  31
ATOM     31  O   UNL     1      -0.998   0.003   1.185  0.00  0.00    -0.495 OA
ATOM     32  C   UNL     1      -0.985   1.431   1.154  0.00  0.00    +0.277 C 
ENDBRANCH  27  31
ENDBRANCH  19  25
ENDBRANCH   1  20
TORSDOF 5
