REMARK  Name = ZINC37214787
REMARK  8 active torsions:
REMARK  status: ('A' for Active; 'I' for Inactive)
REMARK    1  A    between atoms: C_1  and  C_2
REMARK    2  A    between atoms: C_7  and  N_12
REMARK    3  A    between atoms: C_9  and  C_11
REMARK    4  A    between atoms: N_12  and  C_13
REMARK    5  A    between atoms: C_13  and  C_15
REMARK    6  A    between atoms: C_13  and  C_16
REMARK    7  A    between atoms: C_19  and  S_22
REMARK    8  A    between atoms: S_22  and  N_25
REMARK                            x       y       z     vdW  Elec       q    Type
REMARK                         _______ _______ _______ _____ _____    ______ ____
ROOT
ATOM      1  C   UNL     1       0.199   0.158   4.886  0.00  0.00    -0.044 C 
ATOM      2  C   UNL     1       0.939  -0.349   6.126  0.00  0.00    -0.009 C 
ENDROOT
BRANCH   1   3
ATOM      3  C   UNL     1       0.231   1.665   4.863  0.00  0.00    -0.062 A 
ATOM      4  C   UNL     1       1.359   2.325   4.411  0.00  0.00    +0.004 A 
ATOM      5  C   UNL     1       1.388   3.707   4.390  0.00  0.00    +0.029 A 
ATOM      6  C   UNL     1       0.291   4.428   4.820  0.00  0.00    +0.105 A 
ATOM      7  C   UNL     1      -0.837   3.768   5.271  0.00  0.00    +0.029 A 
ATOM      8  C   UNL     1      -0.868   2.386   5.288  0.00  0.00    +0.004 A 
BRANCH   6   9
ATOM      9  S   UNL     1       0.329   6.190   4.794  0.00  0.00    +0.056 S 
ATOM     10  O   UNL     1      -0.617   6.631   5.758  0.00  0.00    -0.153 OA
ATOM     11  O   UNL     1       1.698   6.567   4.841  0.00  0.00    -0.153 OA
BRANCH   9  12
ATOM     12  N   UNL     1      -0.243   6.670   3.316  0.00  0.00    -0.204 NA
ATOM     13  H   UNL     1      -0.519   6.007   2.664  0.00  0.00    +0.144 HD
ATOM     14  H   UNL     1      -0.301   7.614   3.102  0.00  0.00    +0.144 HD
ENDBRANCH   9  12
ENDBRANCH   6   9
ENDBRANCH   1   3
BRANCH   1  15
ATOM     15  N   UNL     1       0.852  -0.364   3.679  0.00  0.00    +0.385 N 
ATOM     16  H   UNL     1       0.913  -1.370   3.738  0.00  0.00    -0.085 HD
ATOM     17  H   UNL     1       1.780   0.025   3.603  0.00  0.00    -0.085 HD
BRANCH  15  23
ATOM     18  C   UNL     1      -0.219   1.498  -0.011  0.00  0.00    +0.008 C 
ATOM     19  C   UNL     1      -0.002  -0.016  -0.002  0.00  0.00    -0.013 C 
ATOM     20  C   UNL     1      -1.357  -0.725   0.042  0.00  0.00    +0.003 C 
ATOM     21  C   UNL     1      -2.110  -0.309   1.308  0.00  0.00    -0.001 C 
ATOM     22  C   UNL     1      -1.290  -0.699   2.540  0.00  0.00    -0.015 C 
ATOM     23  C   UNL     1       0.065   0.010   2.496  0.00  0.00    -0.068 C 
ATOM     24  C   UNL     1       0.817  -0.406   1.230  0.00  0.00    -0.025 C 
ATOM     25  C   UNL     1       2.173   0.303   1.187  0.00  0.00    +0.006 C 
ENDBRANCH  15  23
ENDBRANCH   1  15
TORSDOF 5
