REMARK  Name = ZINC63563021
REMARK  8 active torsions:
REMARK  status: ('A' for Active; 'I' for Inactive)
REMARK    1  A    between atoms: C_1  and  C_2
REMARK    2  A    between atoms: C_2  and  C_3
REMARK    3  A    between atoms: C_3  and  N_4
REMARK    4  A    between atoms: N_14  and  C_19
REMARK    5  A    between atoms: C_19  and  C_20
REMARK    6  A    between atoms: N_22  and  C_23
REMARK    7  A    between atoms: C_23  and  C_24
REMARK    8  A    between atoms: C_24  and  C_25
REMARK                            x       y       z     vdW  Elec       q    Type
REMARK                         _______ _______ _______ _____ _____    ______ ____
ROOT
ATOM      1  N   UNL     1      -1.411  -1.994   0.125  0.00  0.00    -0.314 N 
ATOM      2  C   UNL     1      -1.335  -2.894  -0.946  0.00  0.00    +0.038 A 
ATOM      3  C   UNL     1      -1.421  -2.663  -2.313  0.00  0.00    +0.024 A 
ATOM      4  C   UNL     1      -1.337  -3.712  -3.207  0.00  0.00    +0.002 A 
ATOM      5  C   UNL     1      -1.166  -5.008  -2.752  0.00  0.00    +0.001 A 
ATOM      6  C   UNL     1      -1.069  -5.259  -1.399  0.00  0.00    +0.010 A 
ATOM      7  C   UNL     1      -1.145  -4.208  -0.483  0.00  0.00    +0.003 A 
ATOM      8  C   UNL     1      -1.041  -4.160   0.974  0.00  0.00    +0.006 C 
ATOM      9  C   UNL     1      -0.644  -5.053   1.887  0.00  0.00    +0.094 C 
ATOM     10  N   UNL     1      -0.605  -4.529   3.194  0.00  0.00    -0.268 N 
ATOM     11  N   UNL     1      -0.086  -3.219   3.326  0.00  0.00    -0.212 N 
ATOM     12  C   UNL     1      -0.470  -2.285   2.406  0.00  0.00    +0.257 C 
ATOM     13  O   UNL     1      -0.040  -1.151   2.422  0.00  0.00    -0.272 OA
ATOM     14  C   UNL     1      -1.456  -2.751   1.369  0.00  0.00    +0.194 C 
ATOM     15  H   UNL     1      -0.915  -5.037   3.960  0.00  0.00    +0.170 HD
ENDROOT
BRANCH   1  16
ATOM     16  C   UNL     1      -1.433  -0.534   0.013  0.00  0.00    +0.106 C 
BRANCH  16  18
ATOM     17  C   UNL     1      -2.903   1.487   0.038  0.00  0.00    +0.005 C 
ATOM     18  C   UNL     1      -2.882  -0.043   0.034  0.00  0.00    +0.015 C 
ENDBRANCH  16  18
ENDBRANCH   1  16
BRANCH  11  19
ATOM     19  C   UNL     1       0.833  -2.876   4.414  0.00  0.00    +0.226 C 
BRANCH  19  20
ATOM     20  C   UNL     1       0.044  -2.404   5.608  0.00  0.00    +0.232 C 
ATOM     21  O   UNL     1      -1.167  -2.358   5.555  0.00  0.00    -0.274 OA
ATOM     22  N   UNL     1       0.684  -2.032   6.734  0.00  0.00    -0.314 N 
ATOM     23  H   UNL     1       1.652  -2.068   6.777  0.00  0.00    +0.149 HD
BRANCH  22  24
ATOM     24  C   UNL     1      -0.083  -1.572   7.895  0.00  0.00    +0.108 C 
BRANCH  24  25
ATOM     25  C   UNL     1       0.877  -1.214   9.031  0.00  0.00    +0.052 C 
BRANCH  25  26
ATOM     26  C   UNL     1       0.088  -0.742  10.225  0.00  0.00    -0.040 C 
ATOM     27  C   UNL     1      -0.307  -1.484  11.284  0.00  0.00    -0.001 A 
ATOM     28  C   UNL     1      -0.129  -2.900  11.628  0.00  0.00    +0.010 A 
ATOM     29  C   UNL     1      -0.652  -3.365  12.786  0.00  0.00    +0.001 A 
ATOM     30  C   UNL     1      -1.359  -2.530  13.662  0.00  0.00    +0.002 A 
ATOM     31  C   UNL     1      -1.565  -1.220  13.415  0.00  0.00    +0.026 A 
ATOM     32  C   UNL     1      -1.058  -0.624  12.227  0.00  0.00    +0.043 A 
ATOM     33  N   UNL     1      -1.124   0.602  11.768  0.00  0.00    -0.380 N 
ATOM     34  C   UNL     1      -0.417   0.660  10.484  0.00  0.00    +0.144 C 
ATOM     35  H   UNL     1      -1.564   1.348  12.207  0.00  0.00    +0.160 HD
ENDBRANCH  25  26
ENDBRANCH  24  25
ENDBRANCH  22  24
ENDBRANCH  19  20
ENDBRANCH  11  19
TORSDOF 7
