REMARK  Name = ZINC30781966
REMARK  3 active torsions:
REMARK  status: ('A' for Active; 'I' for Inactive)
REMARK    1  A    between atoms: C_3  and  O_23
REMARK    2  A    between atoms: C_6  and  C_7
REMARK    3  A    between atoms: C_13  and  C_16
REMARK                            x       y       z     vdW  Elec       q    Type
REMARK                         _______ _______ _______ _____ _____    ______ ____
ROOT
ATOM      1  C   UNL     1       2.055   0.600  -0.006  0.00  0.00    +0.186 A 
ATOM      2  N   UNL     1       1.223  -0.423  -0.006  0.00  0.00    -0.126 NA
ATOM      3  N   UNL     1       0.002  -0.004   0.002  0.00  0.00    -0.120 NA
ATOM      4  C   UNL     1      -0.015   1.294   0.009  0.00  0.00    +0.213 A 
ATOM      5  N   UNL     1       1.291   1.732  -0.001  0.00  0.00    -0.186 N 
ATOM      6  N   UNL     1       1.641   3.080  -0.010  0.00  0.00    -0.166 NA
ATOM      7  C   UNL     1       0.829   4.007   0.361  0.00  0.00    +0.079 C 
ATOM      8  C   UNL     1      -0.559   3.798   0.884  0.00  0.00    +0.135 C 
ATOM      9  S   UNL     1      -1.372   2.419   0.035  0.00  0.00    -0.078 S 
ENDROOT
BRANCH   7  10
ATOM     10  C   UNL     1       1.307   5.398   0.261  0.00  0.00    -0.001 A 
ATOM     11  C   UNL     1       0.476   6.454   0.642  0.00  0.00    +0.012 A 
ATOM     12  C   UNL     1       0.931   7.753   0.553  0.00  0.00    +0.039 A 
ATOM     13  C   UNL     1       2.206   8.012   0.075  0.00  0.00    +0.123 A 
ATOM     14  C   UNL     1       3.034   6.968  -0.310  0.00  0.00    +0.039 A 
ATOM     15  C   UNL     1       2.592   5.665  -0.219  0.00  0.00    +0.012 A 
ATOM     16  F   UNL     1       2.645   9.286  -0.016  0.00  0.00    -0.205 F 
ENDBRANCH   7  10
BRANCH   1  22
ATOM     17  C   UNL     1       4.283   1.670   0.296  0.00  0.00    +0.015 A 
ATOM     18  C   UNL     1       5.660   1.602   0.296  0.00  0.00    +0.046 A 
ATOM     19  C   UNL     1       6.299   0.411  -0.020  0.00  0.00    +0.117 A 
ATOM     20  C   UNL     1       5.554  -0.720  -0.331  0.00  0.00    +0.046 A 
ATOM     21  C   UNL     1       4.177  -0.662  -0.328  0.00  0.00    +0.015 A 
ATOM     22  C   UNL     1       3.531   0.534  -0.011  0.00  0.00    +0.021 A 
BRANCH  19  23
ATOM     23  O   UNL     1       7.657   0.350  -0.025  0.00  0.00    -0.507 OA
ATOM     24  H   UNL     1       8.164  -0.593  -0.275  0.00  0.00    +0.292 HD
ENDBRANCH  19  23
ENDBRANCH   1  22
TORSDOF 3
