REMARK  Name = ZINC39363206
REMARK  9 active torsions:
REMARK  status: ('A' for Active; 'I' for Inactive)
REMARK    1  A    between atoms: C_1  and  C_2
REMARK    2  A    between atoms: C_2  and  C_4
REMARK    3  A    between atoms: C_2  and  S_8
REMARK    4  A    between atoms: C_4  and  O_6
REMARK    5  A    between atoms: O_6  and  C_7
REMARK    6  A    between atoms: S_8  and  C_9
REMARK    7  A    between atoms: C_13  and  C_23
REMARK    8  A    between atoms: N_15  and  C_16
REMARK    9  A    between atoms: C_23  and  C_24
REMARK                            x       y       z     vdW  Elec       q    Type
REMARK                         _______ _______ _______ _____ _____    ______ ____
ROOT
ATOM      1  C   UNL     1      -0.043   0.090   2.696  0.00  0.00    +0.276 C 
ATOM      2  N   UNL     1      -1.353  -0.563   2.692  0.00  0.00    -0.156 NA
ATOM      3  N   UNL     1      -2.265   0.244   2.530  0.00  0.00    -0.166 NA
ATOM      4  C   UNL     1      -1.763   1.612   2.390  0.00  0.00    +0.222 C 
ATOM      5  N   UNL     1      -0.295   1.528   2.498  0.00  0.00    -0.274 N 
ENDROOT
BRANCH   5   6
ATOM      6  C   UNL     1       0.637   2.567   2.429  0.00  0.00    +0.034 A 
ATOM      7  C   UNL     1       0.209   3.875   2.242  0.00  0.00    +0.024 A 
ATOM      8  C   UNL     1       1.133   4.899   2.175  0.00  0.00    +0.022 A 
ATOM      9  C   UNL     1       2.484   4.624   2.292  0.00  0.00    +0.041 A 
ATOM     10  C   UNL     1       2.913   3.321   2.478  0.00  0.00    +0.022 A 
ATOM     11  C   UNL     1       1.994   2.294   2.552  0.00  0.00    +0.024 A 
ATOM     12 CL   UNL     1       3.642   5.914   2.205  0.00  0.00    -0.084 Cl
ENDBRANCH   5   6
BRANCH   1  13
ATOM     13  S   UNL     1       0.979  -0.555   1.342  0.00  0.00    -0.099 S 
BRANCH  13  15
ATOM     14  C   UNL     1       0.406  -3.117   2.112  0.00  0.00    +0.031 C 
ATOM     15  C   UNL     1       1.581  -2.147   1.968  0.00  0.00    +0.155 C 
BRANCH  15  16
ATOM     16  C   UNL     1       2.588  -2.718   1.002  0.00  0.00    +0.320 C 
ATOM     17  O   UNL     1       2.614  -2.331  -0.142  0.00  0.00    -0.250 OA
BRANCH  16  18
ATOM     18  O   UNL     1       3.455  -3.656   1.413  0.00  0.00    -0.467 OA
ATOM     19  C   UNL     1       4.381  -4.153   0.445  0.00  0.00    +0.280 C 
ENDBRANCH  16  18
ENDBRANCH  15  16
ENDBRANCH  13  15
ENDBRANCH   1  13
BRANCH   4  20
ATOM     20  C   UNL     1      -2.160   2.180   1.026  0.00  0.00    +0.102 C 
BRANCH  20  21
ATOM     21  C   UNL     1      -3.662   2.264   0.934  0.00  0.00    +0.029 A 
ATOM     22  N   UNL     1      -4.389   1.171   0.549  0.00  0.00    -0.311 N 
ATOM     23  C   UNL     1      -5.731   1.236   0.464  0.00  0.00    +0.327 A 
ATOM     24  O   UNL     1      -6.357   0.253   0.120  0.00  0.00    -0.247 OA
ATOM     25  N   UNL     1      -6.388   2.373   0.757  0.00  0.00    -0.275 N 
ATOM     26  C   UNL     1      -5.708   3.472   1.141  0.00  0.00    +0.254 A 
ATOM     27  O   UNL     1      -6.302   4.502   1.405  0.00  0.00    -0.268 OA
ATOM     28  C   UNL     1      -4.297   3.417   1.238  0.00  0.00    +0.091 A 
ATOM     29  H   UNL     1      -7.356   2.402   0.691  0.00  0.00    +0.173 HD
ATOM     30  H   UNL     1      -3.934   0.342   0.334  0.00  0.00    +0.170 HD
ENDBRANCH  20  21
ENDBRANCH   4  20
TORSDOF 7
