REMARK  Name = ZINC03373493
REMARK  8 active torsions:
REMARK  status: ('A' for Active; 'I' for Inactive)
REMARK    1  A    between atoms: C_1  and  C_2
REMARK    2  A    between atoms: C_2  and  C_3
REMARK    3  A    between atoms: C_2  and  C_4
REMARK    4  A    between atoms: C_2  and  N_5
REMARK    5  A    between atoms: C_9  and  C_11
REMARK    6  A    between atoms: C_11  and  S_12
REMARK    7  A    between atoms: S_12  and  C_13
REMARK    8  A    between atoms: N_25  and  C_26
REMARK                            x       y       z     vdW  Elec       q    Type
REMARK                         _______ _______ _______ _____ _____    ______ ____
ROOT
ATOM      1  S   UNL     1       4.881  -2.618  -0.051  0.00  0.00    -0.078 S 
ENDROOT
BRANCH   1   2
ATOM      2  C   UNL     1       3.861  -1.181  -0.036  0.00  0.00    +0.173 A 
ATOM      3  N   UNL     1       2.550  -1.316  -0.026  0.00  0.00    -0.216 NA
ATOM      4  C   UNL     1       1.758  -0.249  -0.014  0.00  0.00    +0.117 A 
ATOM      5  C   UNL     1       2.268   1.057  -0.011  0.00  0.00    +0.076 A 
ATOM      6  C   UNL     1       1.270   2.139   0.001  0.00  0.00    -0.023 A 
ATOM      7  C   UNL     1      -0.022   1.774   0.012  0.00  0.00    -0.004 A 
ATOM      8  S   UNL     1       0.002  -0.004   0.002  0.00  0.00    -0.073 S 
ATOM      9  C   UNL     1      -0.948   2.960   0.032  0.00  0.00    +0.043 C 
ATOM     10  C   UNL     1      -0.055   4.143   0.463  0.00  0.00    +0.010 C 
ATOM     11  C   UNL     1       1.337   3.669   0.002  0.00  0.00    +0.037 C 
ATOM     12  C   UNL     1       3.693   1.175  -0.022  0.00  0.00    +0.263 A 
ATOM     13  O   UNL     1       4.224   2.273  -0.020  0.00  0.00    -0.267 OA
ATOM     14  N   UNL     1       4.440   0.055  -0.034  0.00  0.00    -0.290 N 
ATOM     15  C   UNL     1       5.901   0.165  -0.044  0.00  0.00    +0.154 C 
ENDBRANCH   1   2
BRANCH   1  16
ATOM     16  C   UNL     1       3.610  -3.906  -0.048  0.00  0.00    +0.173 C 
BRANCH  16  21
ATOM     17  N   UNL     1       3.348  -8.706  -0.072  0.00  0.00    -0.294 N 
ATOM     18  C   UNL     1       4.103  -7.590  -0.072  0.00  0.00    +0.306 C 
ATOM     19  O   UNL     1       5.315  -7.676  -0.082  0.00  0.00    -0.252 OA
ATOM     20  N   UNL     1       3.514  -6.378  -0.061  0.00  0.00    -0.239 N 
ATOM     21  C   UNL     1       4.269  -5.261  -0.061  0.00  0.00    +0.231 C 
ATOM     22  O   UNL     1       5.478  -5.348  -0.071  0.00  0.00    -0.274 OA
ATOM     23  H   UNL     1       2.380  -8.637  -0.064  0.00  0.00    +0.151 HD
ATOM     24  H   UNL     1       2.546  -6.309  -0.052  0.00  0.00    +0.159 HD
BRANCH  17  26
ATOM     25  C   UNL     1       4.870 -10.174   1.157  0.00  0.00    +0.031 C 
ATOM     26  C   UNL     1       3.988 -10.024  -0.084  0.00  0.00    +0.028 C 
ATOM     27  C   UNL     1       2.913 -11.113  -0.081  0.00  0.00    +0.031 C 
ATOM     28  C   UNL     1       4.849 -10.161  -1.341  0.00  0.00    +0.031 C 
ENDBRANCH  17  26
ENDBRANCH  16  21
ENDBRANCH   1  16
TORSDOF 4
