REMARK  Name = ZINC42306092
REMARK  3 active torsions:
REMARK  status: ('A' for Active; 'I' for Inactive)
REMARK    1  A    between atoms: C_1  and  C_2
REMARK    2  A    between atoms: C_7  and  S_8
REMARK    3  A    between atoms: S_8  and  N_11
REMARK                            x       y       z     vdW  Elec       q    Type
REMARK                         _______ _______ _______ _____ _____    ______ ____
ROOT
ATOM      1  S   UNL     1       0.025   0.172   2.726  0.00  0.00    +0.101 S 
ATOM      2  O   UNL     1      -1.014   1.137   2.644  0.00  0.00    -0.146 OA
ATOM      3  O   UNL     1       0.076  -0.809   3.753  0.00  0.00    -0.146 OA
ENDROOT
BRANCH   1   4
ATOM      4  N   UNL     1       1.449   1.015   2.806  0.00  0.00    -0.103 NA
ATOM      5  C   UNL     1       1.712   1.758   3.853  0.00  0.00    +0.192 A 
ATOM      6  N   UNL     1       0.960   1.971   4.979  0.00  0.00    -0.336 N 
ATOM      7  C   UNL     1       1.438   2.809   5.978  0.00  0.00    +0.028 A 
ATOM      8  C   UNL     1       2.628   3.377   5.785  0.00  0.00    +0.012 A 
ATOM      9  S   UNL     1       3.149   2.759   4.199  0.00  0.00    -0.053 S 
ATOM     10  C   UNL     1       3.038   4.265   6.925  0.00  0.00    +0.044 C 
ATOM     11  C   UNL     1       1.729   4.520   7.705  0.00  0.00    +0.011 C 
ATOM     12  C   UNL     1       0.904   3.271   7.338  0.00  0.00    +0.054 C 
ATOM     13  H   UNL     1       0.098   1.539   5.078  0.00  0.00    +0.168 HD
ENDBRANCH   1   4
BRANCH   1  20
ATOM     14  C   UNL     1      -0.018   1.503   0.010  0.00  0.00    +0.046 C 
ATOM     15  C   UNL     1       0.002  -0.004   0.002  0.00  0.00    -0.024 A 
ATOM     16  C   UNL     1       0.006  -0.689  -1.199  0.00  0.00    +0.006 A 
ATOM     17  C   UNL     1       0.025  -2.070  -1.207  0.00  0.00    +0.015 A 
ATOM     18  C   UNL     1       0.041  -2.769  -0.013  0.00  0.00    +0.020 A 
ATOM     19  C   UNL     1       0.037  -2.084   1.188  0.00  0.00    +0.044 A 
ATOM     20  C   UNL     1       0.023  -0.701   1.195  0.00  0.00    +0.116 A 
ATOM     21 BR   UNL     1       0.066  -4.660  -0.024  0.00  0.00    -0.050 Br
ENDBRANCH   1  20
TORSDOF 2
