REMARK  Name = ZINC16724573
REMARK  11 active torsions:
REMARK  status: ('A' for Active; 'I' for Inactive)
REMARK    1  A    between atoms: C_1  and  C_2
REMARK    2  A    between atoms: C_2  and  N_3
REMARK    3  A    between atoms: C_12  and  S_13
REMARK    4  A    between atoms: S_13  and  C_14
REMARK    5  A    between atoms: C_14  and  C_16
REMARK    6  A    between atoms: C_14  and  C_17
REMARK    7  A    between atoms: N_22  and  C_23
REMARK    8  A    between atoms: C_23  and  C_24
REMARK    9  A    between atoms: C_23  and  C_25
REMARK   10  A    between atoms: C_23  and  C_26
REMARK   11  A    between atoms: C_28  and  C_32
REMARK                            x       y       z     vdW  Elec       q    Type
REMARK                         _______ _______ _______ _____ _____    ______ ____
ROOT
ATOM      1  N   UNL     1      -0.749   3.044   1.275  0.00  0.00    -0.288 N 
ATOM      2  C   UNL     1      -1.779   3.693   0.702  0.00  0.00    +0.263 A 
ATOM      3  O   UNL     1      -2.688   3.071   0.181  0.00  0.00    -0.267 OA
ATOM      4  C   UNL     1      -1.792   5.124   0.713  0.00  0.00    +0.076 A 
ATOM      5  C   UNL     1      -2.800   6.027   0.154  0.00  0.00    -0.023 A 
ATOM      6  C   UNL     1      -2.582   7.350   0.295  0.00  0.00    -0.004 A 
ATOM      7  S   UNL     1      -1.044   7.473   1.167  0.00  0.00    -0.073 S 
ATOM      8  C   UNL     1      -0.697   5.741   1.340  0.00  0.00    +0.117 A 
ATOM      9  N   UNL     1       0.290   5.042   1.888  0.00  0.00    -0.216 NA
ATOM     10  C   UNL     1       0.275   3.724   1.868  0.00  0.00    +0.173 A 
ATOM     11  C   UNL     1      -3.455   8.470  -0.185  0.00  0.00    +0.046 C 
ATOM     12  C   UNL     1      -4.462   7.901  -1.194  0.00  0.00    -0.009 C 
ATOM     13  C   UNL     1      -5.088   6.635  -0.603  0.00  0.00    +0.008 C 
ATOM     14  C   UNL     1      -4.049   5.514  -0.558  0.00  0.00    +0.037 C 
ATOM     15  C   UNL     1      -5.553   8.937  -1.469  0.00  0.00    +0.008 C 
ENDROOT
BRANCH   1  17
ATOM     16  C   UNL     1      -0.013   1.086   0.008  0.00  0.00    +0.027 C 
ATOM     17  C   UNL     1      -0.729   1.579   1.267  0.00  0.00    +0.124 C 
ENDBRANCH   1  17
BRANCH  10  18
ATOM     18  S   UNL     1       1.598   2.828   2.612  0.00  0.00    -0.075 S 
BRANCH  18  19
ATOM     19  C   UNL     1       2.612   4.204   3.209  0.00  0.00    +0.137 C 
ATOM     20  C   UNL     1       1.845   4.972   4.287  0.00  0.00    +0.029 C 
BRANCH  19  21
ATOM     21  C   UNL     1       3.894   3.666   3.791  0.00  0.00    +0.233 C 
ATOM     22  O   UNL     1       3.964   2.506   4.137  0.00  0.00    -0.274 OA
ATOM     23  N   UNL     1       4.963   4.476   3.927  0.00  0.00    -0.239 N 
ATOM     24  C   UNL     1       6.110   3.995   4.448  0.00  0.00    +0.306 C 
ATOM     25  O   UNL     1       6.180   2.832   4.794  0.00  0.00    -0.252 OA
ATOM     26  N   UNL     1       7.179   4.804   4.584  0.00  0.00    -0.294 N 
ATOM     27  H   UNL     1       4.908   5.404   3.650  0.00  0.00    +0.159 HD
ATOM     28  H   UNL     1       7.124   5.732   4.307  0.00  0.00    +0.151 HD
BRANCH  26  29
ATOM     29  C   UNL     1       8.426   4.282   5.150  0.00  0.00    +0.028 C 
ATOM     30  C   UNL     1       8.939   3.134   4.279  0.00  0.00    +0.031 C 
ATOM     31  C   UNL     1       9.472   5.397   5.193  0.00  0.00    +0.031 C 
ATOM     32  C   UNL     1       8.167   3.770   6.568  0.00  0.00    +0.031 C 
ENDBRANCH  26  29
ENDBRANCH  19  21
ENDBRANCH  18  19
ENDBRANCH  10  18
TORSDOF 5
