REMARK  Name = ZINC03599317
REMARK  9 active torsions:
REMARK  status: ('A' for Active; 'I' for Inactive)
REMARK    1  A    between atoms: C_1  and  C_2
REMARK    2  A    between atoms: C_2  and  C_3
REMARK    3  A    between atoms: C_2  and  C_4
REMARK    4  A    between atoms: C_2  and  N_5
REMARK    5  A    between atoms: C_9  and  C_11
REMARK    6  A    between atoms: C_11  and  N_12
REMARK    7  A    between atoms: C_15  and  C_19
REMARK    8  A    between atoms: C_15  and  C_26
REMARK    9  A    between atoms: C_19  and  C_20
REMARK                            x       y       z     vdW  Elec       q    Type
REMARK                         _______ _______ _______ _____ _____    ______ ____
ROOT
ATOM      1  N   UNL     1       5.966  -0.202  -4.010  0.00  0.00    -0.215 N 
ATOM      2  C   UNL     1       6.338   0.967  -4.569  0.00  0.00    +0.252 C 
ATOM      3  O   UNL     1       5.625   1.766  -5.137  0.00  0.00    -0.272 OA
ATOM      4  C   UNL     1       7.832   1.075  -4.339  0.00  0.00    +0.142 C 
ATOM      5  N   UNL     1       8.161  -0.166  -3.615  0.00  0.00    -0.281 N 
ATOM      6  C   UNL     1       7.008  -0.844  -3.470  0.00  0.00    +0.310 C 
ATOM      7  O   UNL     1       6.923  -1.920  -2.912  0.00  0.00    -0.252 OA
ATOM      8  H   UNL     1       9.037  -0.439  -3.303  0.00  0.00    +0.152 HD
ENDROOT
BRANCH   4   9
ATOM      9  C   UNL     1       8.161   2.282  -3.499  0.00  0.00    -0.015 A 
ATOM     10  C   UNL     1       8.522   3.469  -4.108  0.00  0.00    +0.006 A 
ATOM     11  C   UNL     1       8.820   4.578  -3.338  0.00  0.00    +0.000 A 
ATOM     12  C   UNL     1       8.765   4.497  -1.959  0.00  0.00    +0.000 A 
ATOM     13  C   UNL     1       8.408   3.308  -1.350  0.00  0.00    +0.000 A 
ATOM     14  C   UNL     1       8.106   2.200  -2.120  0.00  0.00    +0.006 A 
ENDBRANCH   4   9
BRANCH   1  15
ATOM     15  C   UNL     1       4.591  -0.709  -3.999  0.00  0.00    +0.214 C 
BRANCH  15  20
ATOM     16  N   UNL     1       0.688  -0.476  -1.203  0.00  0.00    -0.294 N 
ATOM     17  C   UNL     1       1.972  -0.132  -1.427  0.00  0.00    +0.306 C 
ATOM     18  O   UNL     1       2.560   0.570  -0.629  0.00  0.00    -0.252 OA
ATOM     19  N   UNL     1       2.602  -0.567  -2.536  0.00  0.00    -0.239 N 
ATOM     20  C   UNL     1       3.886  -0.223  -2.760  0.00  0.00    +0.238 C 
ATOM     21  O   UNL     1       4.473   0.478  -1.963  0.00  0.00    -0.274 OA
ATOM     22  H   UNL     1       0.218  -1.037  -1.840  0.00  0.00    +0.151 HD
ATOM     23  H   UNL     1       2.132  -1.127  -3.173  0.00  0.00    +0.159 HD
BRANCH  16  25
ATOM     24  C   UNL     1      -0.019   1.526   0.010  0.00  0.00    +0.031 C 
ATOM     25  C   UNL     1       0.002  -0.004   0.002  0.00  0.00    +0.028 C 
ATOM     26  C   UNL     1       0.742  -0.511   1.242  0.00  0.00    +0.031 C 
ATOM     27  C   UNL     1      -1.433  -0.534   0.013  0.00  0.00    +0.031 C 
ENDBRANCH  16  25
ENDBRANCH  15  20
ENDBRANCH   1  15
BRANCH   4  28
ATOM     28  C   UNL     1       8.575   1.131  -5.675  0.00  0.00    +0.075 C 
BRANCH  28  29
ATOM     29  C   UNL     1       8.190  -0.059  -6.515  0.00  0.00    -0.045 A 
ATOM     30  C   UNL     1       8.918  -1.231  -6.430  0.00  0.00    +0.004 A 
ATOM     31  C   UNL     1       8.561  -2.324  -7.197  0.00  0.00    +0.000 A 
ATOM     32  C   UNL     1       7.482  -2.241  -8.058  0.00  0.00    +0.000 A 
ATOM     33  C   UNL     1       6.758  -1.068  -8.147  0.00  0.00    +0.000 A 
ATOM     34  C   UNL     1       7.111   0.024  -7.376  0.00  0.00    +0.004 A 
ENDBRANCH  28  29
ENDBRANCH   4  28
TORSDOF 6
