REMARK  Name = ZINC36502843
REMARK  13 active torsions:
REMARK  status: ('A' for Active; 'I' for Inactive)
REMARK    1  A    between atoms: C_1  and  C_2
REMARK    2  A    between atoms: C_5  and  S_8
REMARK    3  A    between atoms: S_8  and  C_11
REMARK    4  A    between atoms: C_11  and  N_12
REMARK    5  A    between atoms: C_13  and  C_15
REMARK    6  A    between atoms: C_15  and  C_17
REMARK    7  A    between atoms: C_15  and  N_26
REMARK    8  A    between atoms: C_20  and  N_23
REMARK    9  A    between atoms: N_26  and  C_27
REMARK   10  A    between atoms: C_27  and  C_28
REMARK   11  A    between atoms: C_33  and  C_35
REMARK   12  A    between atoms: C_36  and  C_37
REMARK   13  A    between atoms: C_36  and  C_38
REMARK                            x       y       z     vdW  Elec       q    Type
REMARK                         _______ _______ _______ _____ _____    ______ ____
ROOT
ATOM      1  C   UNL     1       3.335  -4.847   3.564  0.00  0.00    +0.193 C 
ENDROOT
BRANCH   1   2
ATOM      2  C   UNL     1       4.713  -4.275   3.350  0.00  0.00    -0.018 A 
ATOM      3  C   UNL     1       5.787  -5.120   3.145  0.00  0.00    +0.008 A 
ATOM      4  C   UNL     1       7.051  -4.596   2.949  0.00  0.00    +0.033 A 
ATOM      5  C   UNL     1       7.240  -3.227   2.957  0.00  0.00    +0.126 A 
ATOM      6  C   UNL     1       6.166  -2.382   3.161  0.00  0.00    +0.033 A 
ATOM      7  C   UNL     1       4.901  -2.906   3.353  0.00  0.00    +0.008 A 
BRANCH   5   8
ATOM      8  N   UNL     1       8.594  -2.666   2.747  0.00  0.00    +0.056 N 
ATOM      9  O   UNL     1       9.534  -3.405   2.569  0.00  0.00    -0.126 OA
ATOM     10  O   UNL     1       8.760  -1.468   2.754  0.00  0.00    -0.126 OA
ENDBRANCH   5   8
ENDBRANCH   1   2
BRANCH   1  12
ATOM     11  N   UNL     1       1.758  -4.601   1.674  0.00  0.00    -0.294 N 
ATOM     12  C   UNL     1       2.765  -5.294   2.242  0.00  0.00    +0.239 C 
ATOM     13  O   UNL     1       3.213  -6.276   1.690  0.00  0.00    -0.273 OA
ATOM     14  H   UNL     1       1.400  -3.816   2.116  0.00  0.00    +0.150 HD
BRANCH  11  15
ATOM     15  C   UNL     1       1.205  -5.036   0.389  0.00  0.00    +0.278 C 
BRANCH  15  16
ATOM     16  S   UNL     1      -0.252  -6.077   0.679  0.00  0.00    +0.013 S 
ATOM     17  O   UNL     1       0.033  -7.052   1.673  0.00  0.00    -0.168 OA
ATOM     18  O   UNL     1      -0.838  -6.455  -0.559  0.00  0.00    -0.168 OA
BRANCH  16  23
ATOM     19  C   UNL     1      -4.299  -2.407   3.241  0.00  0.00    +0.044 C 
ATOM     20  C   UNL     1      -3.288  -3.324   2.601  0.00  0.00    -0.050 A 
ATOM     21  C   UNL     1      -3.247  -3.454   1.225  0.00  0.00    +0.005 A 
ATOM     22  C   UNL     1      -2.319  -4.295   0.639  0.00  0.00    +0.027 A 
ATOM     23  C   UNL     1      -1.433  -5.005   1.427  0.00  0.00    +0.090 A 
ATOM     24  C   UNL     1      -1.475  -4.874   2.803  0.00  0.00    +0.027 A 
ATOM     25  C   UNL     1      -2.399  -4.030   3.389  0.00  0.00    +0.005 A 
ENDBRANCH  16  23
ENDBRANCH  15  16
ENDBRANCH  11  15
ENDBRANCH   1  12
BRANCH   1  26
ATOM     26  N   UNL     1       3.417  -5.993   4.473  0.00  0.00    -0.275 N 
ATOM     27  C   UNL     1       3.826  -5.816   5.745  0.00  0.00    +0.241 C 
ATOM     28  O   UNL     1       3.983  -6.778   6.472  0.00  0.00    -0.271 OA
BRANCH  27  29
ATOM     29  C   UNL     1       4.082  -4.460   6.254  0.00  0.00    +0.066 C 
ATOM     30  C   UNL     1       4.484  -4.285   7.509  0.00  0.00    -0.071 C 
ATOM     31  C   UNL     1       4.519  -5.455   8.459  0.00  0.00    +0.039 C 
ATOM     32  C   UNL     1       4.904  -2.918   7.983  0.00  0.00    +0.039 C 
ENDBRANCH  27  29
BRANCH  26  33
ATOM     33  C   UNL     1       3.056  -7.331   3.999  0.00  0.00    +0.183 C 
BRANCH  33  34
ATOM     34  C   UNL     1       4.296  -8.053   3.538  0.00  0.00    +0.122 A 
ATOM     35  C   UNL     1       5.083  -8.830   4.303  0.00  0.00    +0.046 A 
ATOM     36  C   UNL     1       6.125  -9.302   3.472  0.00  0.00    +0.041 A 
ATOM     37  C   UNL     1       5.911  -8.786   2.248  0.00  0.00    +0.195 A 
ATOM     38  O   UNL     1       4.798  -8.035   2.293  0.00  0.00    -0.466 OA
ENDBRANCH  33  34
ENDBRANCH  26  33
ENDBRANCH   1  26
TORSDOF 10
