REMARK  Name = ZINC02468543
REMARK  10 active torsions:
REMARK  status: ('A' for Active; 'I' for Inactive)
REMARK    1  A    between atoms: C_1  and  C_2
REMARK    2  A    between atoms: C_10  and  O_13
REMARK    3  A    between atoms: O_13  and  C_14
REMARK    4  A    between atoms: N_18  and  C_19
REMARK    5  A    between atoms: C_21  and  O_29
REMARK    6  A    between atoms: C_22  and  O_27
REMARK    7  A    between atoms: C_23  and  O_25
REMARK    8  A    between atoms: O_25  and  C_26
REMARK    9  A    between atoms: O_27  and  C_28
REMARK   10  A    between atoms: O_29  and  C_30
REMARK                            x       y       z     vdW  Elec       q    Type
REMARK                         _______ _______ _______ _____ _____    ______ ____
ROOT
ATOM      1  C   UNL     1       1.996   1.634   1.639  0.00  0.00    +0.079 C 
ATOM      2  C   UNL     1       1.264   2.243   0.442  0.00  0.00    +0.185 C 
ATOM      3  C   UNL     1       0.788   3.658   0.801  0.00  0.00    +0.096 C 
ATOM      4  C   UNL     1      -0.048   4.166  -0.378  0.00  0.00    +0.114 C 
ATOM      5  C   UNL     1       0.787   4.045  -1.633  0.00  0.00    +0.018 A 
ATOM      6  C   UNL     1       0.489   4.853  -2.716  0.00  0.00    +0.009 A 
ATOM      7  C   UNL     1       1.223   4.753  -3.883  0.00  0.00    +0.004 A 
ATOM      8  C   UNL     1       2.259   3.841  -3.971  0.00  0.00    +0.049 A 
ATOM      9  C   UNL     1       2.564   3.034  -2.890  0.00  0.00    +0.162 A 
ATOM     10  C   UNL     1       1.826   3.137  -1.709  0.00  0.00    +0.170 A 
ATOM     11  O   UNL     1       2.158   2.334  -0.664  0.00  0.00    -0.464 OA
ATOM     12  N   UNL     1      -1.201   3.263  -0.529  0.00  0.00    -0.292 N 
ATOM     13  C   UNL     1      -1.047   1.945  -0.323  0.00  0.00    +0.310 C 
ATOM     14  O   UNL     1      -1.993   1.208  -0.518  0.00  0.00    -0.252 OA
ATOM     15  N   UNL     1       0.108   1.415   0.108  0.00  0.00    -0.216 N 
ATOM     16  H   UNL     1      -2.067   3.619  -0.785  0.00  0.00    +0.151 HD
ENDROOT
BRANCH  15  17
ATOM     17  C   UNL     1       0.209   0.023   0.237  0.00  0.00    +0.049 A 
ATOM     18  C   UNL     1       0.739  -0.733  -0.799  0.00  0.00    +0.073 A 
ATOM     19  C   UNL     1       0.845  -2.109  -0.671  0.00  0.00    +0.167 A 
ATOM     20  C   UNL     1       0.410  -2.733   0.492  0.00  0.00    +0.204 A 
ATOM     21  C   UNL     1      -0.125  -1.976   1.528  0.00  0.00    +0.167 A 
ATOM     22  C   UNL     1      -0.225  -0.599   1.400  0.00  0.00    +0.073 A 
BRANCH  21  23
ATOM     23  O   UNL     1      -0.550  -2.585   2.667  0.00  0.00    -0.491 OA
ATOM     24  C   UNL     1      -1.089  -1.746   3.690  0.00  0.00    +0.277 C 
ENDBRANCH  21  23
BRANCH  20  25
ATOM     25  O   UNL     1       0.508  -4.085   0.617  0.00  0.00    -0.488 OA
ATOM     26  C   UNL     1      -0.607  -4.860   0.172  0.00  0.00    +0.277 C 
ENDBRANCH  20  25
BRANCH  19  27
ATOM     27  O   UNL     1       1.369  -2.848  -1.684  0.00  0.00    -0.491 OA
ATOM     28  C   UNL     1       1.796  -2.141  -2.850  0.00  0.00    +0.277 C 
ENDBRANCH  19  27
ENDBRANCH  15  17
BRANCH   9  29
ATOM     29  O   UNL     1       3.583   2.138  -2.977  0.00  0.00    -0.491 OA
ATOM     30  C   UNL     1       4.296   2.085  -4.215  0.00  0.00    +0.277 C 
ENDBRANCH   9  29
TORSDOF 5
