REMARK  Name = ZINC25575686
REMARK  8 active torsions:
REMARK  status: ('A' for Active; 'I' for Inactive)
REMARK    1  A    between atoms: C_1  and  C_2
REMARK    2  A    between atoms: C_3  and  C_22
REMARK    3  A    between atoms: C_8  and  C_10
REMARK    4  A    between atoms: C_11  and  C_19
REMARK    5  A    between atoms: C_19  and  S_20
REMARK    6  A    between atoms: S_20  and  C_21
REMARK    7  A    between atoms: N_27  and  C_28
REMARK    8  A    between atoms: C_28  and  C_29
REMARK                            x       y       z     vdW  Elec       q    Type
REMARK                         _______ _______ _______ _____ _____    ______ ____
ROOT
ATOM      1  C   UNL     1      -2.100   4.420   0.044  0.00  0.00    +0.067 C 
ATOM      2  C   UNL     1      -0.905   3.500   0.029  0.00  0.00    +0.058 A 
ATOM      3  C   UNL     1       0.372   4.003   0.019  0.00  0.00    +0.081 A 
ATOM      4  S   UNL     1       1.321   2.489   0.003  0.00  0.00    -0.049 S 
ATOM      5  C   UNL     1      -0.017   1.382   0.010  0.00  0.00    +0.166 A 
ATOM      6  N   UNL     1      -1.057   2.196   0.018  0.00  0.00    -0.229 NA
ATOM      7  N   UNL     1       0.002  -0.004   0.002  0.00  0.00    -0.258 N 
ATOM      8  C   UNL     1      -1.156  -0.694   0.009  0.00  0.00    +0.285 C 
ATOM      9  O   UNL     1      -2.218  -0.100   0.023  0.00  0.00    -0.266 OA
ATOM     10  H   UNL     1       0.962  -0.541  -0.010  0.00  0.00    +0.157 HD
ENDROOT
BRANCH   8  11
ATOM     11  C   UNL     1      -1.136  -2.163   0.001  0.00  0.00    +0.195 A 
ATOM     12  C   UNL     1      -2.236  -2.960   0.007  0.00  0.00    +0.020 A 
ATOM     13  C   UNL     1      -1.740  -4.335  -0.005  0.00  0.00    +0.025 A 
ATOM     14  C   UNL     1      -2.352  -5.591  -0.005  0.00  0.00    +0.012 A 
ATOM     15  C   UNL     1      -1.582  -6.720  -0.019  0.00  0.00    +0.001 A 
ATOM     16  C   UNL     1      -0.197  -6.626  -0.032  0.00  0.00    +0.004 A 
ATOM     17  C   UNL     1       0.426  -5.396  -0.031  0.00  0.00    +0.047 A 
ATOM     18  C   UNL     1      -0.336  -4.234  -0.017  0.00  0.00    +0.136 A 
ATOM     19  O   UNL     1      -0.022  -2.924  -0.019  0.00  0.00    -0.450 OA
BRANCH  12  20
ATOM     20  C   UNL     1      -3.676  -2.516   0.024  0.00  0.00    +0.108 C 
BRANCH  20  21
ATOM     21  S   UNL     1      -4.270  -2.328  -1.680  0.00  0.00    -0.159 S 
ATOM     22  C   UNL     1      -5.994  -1.797  -1.488  0.00  0.00    +0.084 C 
ENDBRANCH  20  21
ENDBRANCH  12  20
ENDBRANCH   8  11
BRANCH   3  23
ATOM     23  C   UNL     1       0.832   5.401   0.022  0.00  0.00    +0.174 A 
ATOM     24  N   UNL     1       0.064   6.458   0.029  0.00  0.00    -0.128 NA
ATOM     25  N   UNL     1       0.887   7.592   0.031  0.00  0.00    -0.121 NA
ATOM     26  C   UNL     1       2.167   7.165   0.018  0.00  0.00    +0.203 A 
ATOM     27  S   UNL     1       3.562   8.158   0.010  0.00  0.00    -0.009 SA
ATOM     28  N   UNL     1       2.150   5.818   0.013  0.00  0.00    -0.297 N 
BRANCH  28  29
ATOM     29  C   UNL     1       3.326   4.944  -0.002  0.00  0.00    +0.152 C 
BRANCH  29  30
ATOM     30  C   UNL     1       3.717   4.652  -1.428  0.00  0.00    -0.013 C 
ATOM     31  C   UNL     1       4.935   4.904  -1.838  0.00  0.00    +0.005 C 
ENDBRANCH  29  30
ENDBRANCH  28  29
ENDBRANCH   3  23
TORSDOF 6
