REMARK  Name = ZINC08934359
REMARK  12 active torsions:
REMARK  status: ('A' for Active; 'I' for Inactive)
REMARK    1  A    between atoms: C_1  and  C_2
REMARK    2  A    between atoms: C_2  and  O_3
REMARK    3  A    between atoms: O_3  and  C_4
REMARK    4  A    between atoms: C_4  and  C_6
REMARK    5  A    between atoms: C_7  and  C_23
REMARK    6  A    between atoms: C_9  and  N_22
REMARK    7  A    between atoms: C_10  and  C_20
REMARK    8  A    between atoms: C_11  and  C_13
REMARK    9  A    between atoms: C_18  and  C_19
REMARK   10  A    between atoms: C_23  and  S_24
REMARK   11  A    between atoms: S_24  and  C_25
REMARK   12  A    between atoms: C_26  and  C_34
REMARK                            x       y       z     vdW  Elec       q    Type
REMARK                         _______ _______ _______ _____ _____    ______ ____
ROOT
ATOM      1  C   UNL     1      -2.980   2.561  -0.154  0.00  0.00    +0.088 C 
ATOM      2  C   UNL     1      -1.727   2.517  -0.625  0.00  0.00    +0.128 C 
ATOM      3  O   UNL     1      -0.921   1.463  -0.420  0.00  0.00    -0.444 OA
ATOM      4  C   UNL     1      -1.461   0.279  -0.083  0.00  0.00    +0.198 C 
ATOM      5  C   UNL     1      -2.712   0.184   0.428  0.00  0.00    +0.098 C 
ATOM      6  C   UNL     1      -3.555   1.414   0.632  0.00  0.00    +0.105 C 
ENDROOT
BRANCH   6   7
ATOM      7  C   UNL     1      -3.577   1.770   2.096  0.00  0.00    -0.032 A 
ATOM      8  C   UNL     1      -2.413   2.168   2.728  0.00  0.00    +0.005 A 
ATOM      9  C   UNL     1      -2.434   2.498   4.070  0.00  0.00    +0.000 A 
ATOM     10  C   UNL     1      -3.616   2.423   4.782  0.00  0.00    +0.000 A 
ATOM     11  C   UNL     1      -4.779   2.021   4.152  0.00  0.00    +0.003 A 
ATOM     12  C   UNL     1      -4.759   1.694   2.808  0.00  0.00    -0.046 A 
ATOM     13  C   UNL     1      -6.026   1.255   2.121  0.00  0.00    +0.044 C 
ENDBRANCH   6   7
BRANCH   4  14
ATOM     14  N   UNL     1      -0.723  -0.865  -0.256  0.00  0.00    -0.328 N 
ATOM     15  H   UNL     1      -1.098  -1.726  -0.014  0.00  0.00    +0.145 HD
ATOM     16  H   UNL     1       0.173  -0.813  -0.625  0.00  0.00    +0.145 HD
ENDBRANCH   4  14
BRANCH   1  17
ATOM     17  C   UNL     1      -3.776   3.706  -0.399  0.00  0.00    +0.339 C 
ATOM     18  O   UNL     1      -3.285   4.687  -0.925  0.00  0.00    -0.245 OA
BRANCH  17  19
ATOM     19  O   UNL     1      -5.080   3.708  -0.051  0.00  0.00    -0.462 OA
BRANCH  19  21
ATOM     20  C   UNL     1      -7.270   4.712   0.133  0.00  0.00    +0.048 C 
ATOM     21  C   UNL     1      -5.823   4.896  -0.329  0.00  0.00    +0.229 C 
ENDBRANCH  19  21
ENDBRANCH  17  19
ENDBRANCH   1  17
BRANCH   5  22
ATOM     22  C   UNL     1      -3.238  -1.101   0.779  0.00  0.00    +0.101 C 
ATOM     23  N   UNL     1      -3.656  -2.120   1.057  0.00  0.00    -0.191 NA
ENDBRANCH   5  22
BRANCH   2  24
ATOM     24  C   UNL     1      -1.202   3.694  -1.406  0.00  0.00    +0.150 C 
BRANCH  24  25
ATOM     25  S   UNL     1      -0.594   4.956  -0.261  0.00  0.00    -0.097 S 
BRANCH  25  26
ATOM     26  C   UNL     1      -0.057   6.179  -1.410  0.00  0.00    +0.115 A 
ATOM     27  C   UNL     1       0.507   7.379  -0.942  0.00  0.00    +0.084 A 
ATOM     28  C   UNL     1       0.926   8.331  -1.877  0.00  0.00    +0.027 A 
ATOM     29  C   UNL     1       0.766   8.051  -3.224  0.00  0.00    -0.025 A 
ATOM     30  C   UNL     1       0.203   6.849  -3.612  0.00  0.00    +0.046 A 
ATOM     31  N   UNL     1      -0.181   5.960  -2.708  0.00  0.00    -0.244 NA
ATOM     32  C   UNL     1       0.138   6.784  -5.125  0.00  0.00    +0.056 C 
ATOM     33  C   UNL     1       1.115   7.870  -5.619  0.00  0.00    +0.011 C 
ATOM     34  C   UNL     1       1.119   8.872  -4.445  0.00  0.00    +0.037 C 
BRANCH  27  35
ATOM     35  C   UNL     1       0.651   7.621   0.462  0.00  0.00    +0.102 C 
ATOM     36  N   UNL     1       0.764   7.813   1.576  0.00  0.00    -0.191 NA
ENDBRANCH  27  35
ENDBRANCH  25  26
ENDBRANCH  24  25
ENDBRANCH   2  24
TORSDOF 10
