REMARK  Name = ZINC25795586
REMARK  13 active torsions:
REMARK  status: ('A' for Active; 'I' for Inactive)
REMARK    1  A    between atoms: C_1  and  C_2
REMARK    2  A    between atoms: C_2  and  C_3
REMARK    3  A    between atoms: C_3  and  C_5
REMARK    4  A    between atoms: C_3  and  C_6
REMARK    5  A    between atoms: C_6  and  C_7
REMARK    6  A    between atoms: C_8  and  C_33
REMARK    7  A    between atoms: C_16  and  S_18
REMARK    8  A    between atoms: S_18  and  C_19
REMARK    9  A    between atoms: C_19  and  C_20
REMARK   10  A    between atoms: C_20  and  C_22
REMARK   11  A    between atoms: C_23  and  N_32
REMARK   12  A    between atoms: N_24  and  C_31
REMARK   13  A    between atoms: N_27  and  C_30
REMARK                            x       y       z     vdW  Elec       q    Type
REMARK                         _______ _______ _______ _____ _____    ______ ____
ROOT
ATOM      1  C   UNL     1       1.422   1.604   2.723  0.00  0.00    -0.023 A 
ATOM      2  C   UNL     1       1.620   2.762   3.369  0.00  0.00    -0.007 A 
ATOM      3  S   UNL     1       3.357   3.080   3.127  0.00  0.00    -0.073 S 
ATOM      4  C   UNL     1       3.768   1.648   2.163  0.00  0.00    +0.117 A 
ATOM      5  C   UNL     1       2.544   0.959   2.062  0.00  0.00    +0.075 A 
ATOM      6  C   UNL     1       2.576  -0.260   1.315  0.00  0.00    +0.261 A 
ATOM      7  O   UNL     1       1.563  -0.922   1.171  0.00  0.00    -0.267 OA
ATOM      8  N   UNL     1       3.740  -0.670   0.779  0.00  0.00    -0.301 N 
ATOM      9  H   UNL     1       3.782  -1.608   0.206  0.00  0.00    +0.171 HD
ATOM     10  C   UNL     1       4.885   0.058   0.931  0.00  0.00    +0.170 A 
ATOM     11  N   UNL     1       4.883   1.188   1.609  0.00  0.00    -0.216 NA
ATOM     12  C   UNL     1       0.614   3.596   4.120  0.00  0.00    +0.052 C 
ENDROOT
BRANCH   1  13
ATOM     13  C   UNL     1       0.053   0.975   2.687  0.00  0.00    +0.040 C 
BRANCH  13  14
ATOM     14  C   UNL     1      -0.712   1.488   1.466  0.00  0.00    -0.010 C 
ATOM     15  C   UNL     1      -0.015   1.012   0.190  0.00  0.00    +0.008 C 
BRANCH  14  17
ATOM     16  C   UNL     1      -2.945   1.559   0.345  0.00  0.00    +0.004 C 
ATOM     17  C   UNL     1      -2.144   0.948   1.497  0.00  0.00    +0.000 C 
ENDBRANCH  14  17
ENDBRANCH  13  14
ENDBRANCH   1  13
BRANCH  10  18
ATOM     18  S   UNL     1       6.385  -0.520   0.209  0.00  0.00    -0.080 S 
BRANCH  18  19
ATOM     19  C   UNL     1       7.510   0.802   0.722  0.00  0.00    +0.157 C 
BRANCH  19  20
ATOM     20  C   UNL     1       8.895   0.513   0.203  0.00  0.00    +0.182 C 
ATOM     21  O   UNL     1       9.101  -0.490  -0.451  0.00  0.00    -0.291 OA
BRANCH  20  22
ATOM     22  C   UNL     1       9.952   1.407   0.475  0.00  0.00    +0.120 A 
ATOM     23  C   UNL     1      11.274   1.101   0.108  0.00  0.00    +0.116 A 
ATOM     24  N   UNL     1      12.262   2.001   0.389  0.00  0.00    -0.284 N 
ATOM     25  C   UNL     1      11.995   3.158   1.014  0.00  0.00    +0.333 A 
ATOM     26  O   UNL     1      12.911   3.923   1.246  0.00  0.00    -0.246 OA
ATOM     27  N   UNL     1      10.754   3.502   1.393  0.00  0.00    -0.263 N 
ATOM     28  C   UNL     1       9.707   2.684   1.157  0.00  0.00    +0.269 A 
ATOM     29  O   UNL     1       8.583   2.999   1.502  0.00  0.00    -0.267 OA
ATOM     30  C   UNL     1      10.533   4.782   2.071  0.00  0.00    +0.157 C 
ATOM     31  C   UNL     1      13.643   1.693   0.006  0.00  0.00    +0.155 C 
BRANCH  23  32
ATOM     32  N   UNL     1      11.563  -0.070  -0.521  0.00  0.00    -0.344 N 
ATOM     33  H   UNL     1      12.601  -0.301  -0.804  0.00  0.00    +0.144 HD
ATOM     34  H   UNL     1      10.759  -0.787  -0.746  0.00  0.00    +0.144 HD
ENDBRANCH  23  32
ENDBRANCH  20  22
ENDBRANCH  19  20
ENDBRANCH  18  19
ENDBRANCH  10  18
TORSDOF 8
