REMARK  Name = ZINC39663846
REMARK  13 active torsions:
REMARK  status: ('A' for Active; 'I' for Inactive)
REMARK    1  A    between atoms: C_1  and  N_2
REMARK    2  A    between atoms: N_2  and  C_3
REMARK    3  A    between atoms: N_2  and  C_4
REMARK    4  A    between atoms: C_4  and  C_6
REMARK    5  A    between atoms: C_4  and  C_27
REMARK    6  A    between atoms: C_6  and  N_7
REMARK    7  A    between atoms: C_8  and  C_10
REMARK    8  A    between atoms: C_21  and  C_23
REMARK    9  A    between atoms: C_23  and  C_24
REMARK   10  A    between atoms: C_24  and  S_25
REMARK   11  A    between atoms: S_25  and  C_26
REMARK   12  A    between atoms: C_30  and  O_33
REMARK   13  A    between atoms: O_33  and  C_34
REMARK                            x       y       z     vdW  Elec       q    Type
REMARK                         _______ _______ _______ _____ _____    ______ ____
ROOT
ATOM      1  N   UNL     1       0.355  -4.957  -0.018  0.00  0.00    -0.316 N 
ATOM      2  C   UNL     1      -0.142  -5.624  -1.079  0.00  0.00    +0.218 C 
ATOM      3  O   UNL     1       0.379  -5.506  -2.168  0.00  0.00    -0.275 OA
ATOM      4  H   UNL     1      -0.062  -5.051   0.853  0.00  0.00    +0.149 HD
ENDROOT
BRANCH   2   5
ATOM      5  C   UNL     1      -1.346  -6.515  -0.912  0.00  0.00    +0.100 C 
ATOM      6  C   UNL     1      -2.119  -6.631  -2.245  0.00  0.00    +0.121 C 
ATOM      7  N   UNL     1      -1.600  -7.869  -2.872  0.00  0.00    -0.300 N 
ATOM      8  C   UNL     1      -1.442  -8.816  -1.742  0.00  0.00    +0.115 C 
ATOM      9  C   UNL     1      -0.907  -7.952  -0.583  0.00  0.00    -0.004 C 
ATOM     10  C   UNL     1      -1.520  -8.402   0.739  0.00  0.00    -0.010 C 
ATOM     11  C   UNL     1      -1.022  -9.812   1.073  0.00  0.00    -0.082 C 
ATOM     12  N   UNL     1       0.443  -9.806   1.167  0.00  0.00    +0.379 N 
ATOM     13  C   UNL     1       1.026  -9.462  -0.136  0.00  0.00    -0.082 C 
ATOM     14  C   UNL     1       0.615  -8.038  -0.521  0.00  0.00    -0.010 C 
ATOM     15  C   UNL     1      -1.332  -8.086  -4.175  0.00  0.00    +0.216 C 
ATOM     16  O   UNL     1      -0.908  -9.163  -4.536  0.00  0.00    -0.276 OA
ATOM     17  H   UNL     1       0.732  -9.126   1.853  0.00  0.00    -0.086 HD
ATOM     18  H   UNL     1       0.764 -10.721   1.446  0.00  0.00    -0.086 HD
BRANCH  15  19
ATOM     19  C   UNL     1      -1.559  -6.989  -5.183  0.00  0.00    +0.106 C 
BRANCH  19  20
ATOM     20  C   UNL     1      -1.179  -7.492  -6.577  0.00  0.00    +0.078 C 
BRANCH  20  21
ATOM     21  S   UNL     1      -1.453  -6.172  -7.791  0.00  0.00    -0.164 S 
ATOM     22  C   UNL     1      -0.962  -6.918  -9.370  0.00  0.00    +0.084 C 
ENDBRANCH  20  21
ENDBRANCH  19  20
ENDBRANCH  15  19
ENDBRANCH   2   5
BRANCH   1  23
ATOM     23  C   UNL     1       1.525  -4.090  -0.181  0.00  0.00    +0.093 C 
BRANCH  23  24
ATOM     24  C   UNL     1       1.804  -3.359   1.133  0.00  0.00    -0.021 C 
BRANCH  24  25
ATOM     25  C   UNL     1       0.661  -2.427   1.442  0.00  0.00    -0.059 A 
ATOM     26  C   UNL     1       0.580  -1.200   0.810  0.00  0.00    +0.005 A 
ATOM     27  C   UNL     1      -0.467  -0.344   1.091  0.00  0.00    +0.046 A 
ATOM     28  C   UNL     1      -1.438  -0.716   2.009  0.00  0.00    +0.120 A 
ATOM     29  C   UNL     1      -1.355  -1.948   2.643  0.00  0.00    +0.046 A 
ATOM     30  C   UNL     1      -0.309  -2.803   2.354  0.00  0.00    +0.005 A 
BRANCH  28  31
ATOM     31  O   UNL     1      -2.469   0.124   2.288  0.00  0.00    -0.495 OA
ATOM     32  C   UNL     1      -3.432  -0.325   3.244  0.00  0.00    +0.277 C 
ENDBRANCH  28  31
ENDBRANCH  24  25
BRANCH  24  34
ATOM     33  C   UNL     1       3.284  -1.837   2.251  0.00  0.00    -0.096 C 
ATOM     34  N   UNL     1       3.047  -2.585   1.009  0.00  0.00    +0.382 N 
ATOM     35  C   UNL     1       4.170  -3.498   0.764  0.00  0.00    -0.096 C 
ATOM     36  H   UNL     1       2.965  -1.939   0.238  0.00  0.00    -0.082 HD
ENDBRANCH  24  34
ENDBRANCH  23  24
ENDBRANCH   1  23
TORSDOF 9
