REMARK  Name = ZINC55055342
REMARK  10 active torsions:
REMARK  status: ('A' for Active; 'I' for Inactive)
REMARK    1  A    between atoms: C_1  and  C_2
REMARK    2  A    between atoms: C_7  and  N_8
REMARK    3  A    between atoms: C_9  and  C_29
REMARK    4  A    between atoms: C_10  and  C_14
REMARK    5  A    between atoms: C_11  and  C_13
REMARK    6  A    between atoms: C_14  and  N_15
REMARK    7  A    between atoms: N_15  and  C_16
REMARK    8  A    between atoms: N_15  and  C_17
REMARK    9  A    between atoms: C_17  and  C_18
REMARK   10  A    between atoms: N_23  and  C_24
REMARK                            x       y       z     vdW  Elec       q    Type
REMARK                         _______ _______ _______ _____ _____    ______ ____
ROOT
ATOM      1  N   UNL     1       1.988   0.729   6.250  0.00  0.00    +0.386 N 
ATOM      2  C   UNL     1       2.469   2.062   5.862  0.00  0.00    -0.095 C 
ATOM      3  H   UNL     1       2.506   0.025   5.745  0.00  0.00    -0.081 HD
ENDROOT
BRANCH   1   4
ATOM      4  C   UNL     1       0.559   0.611   5.929  0.00  0.00    -0.039 C 
BRANCH   4   7
ATOM      5  N   UNL     1       0.177   0.118   2.334  0.00  0.00    -0.236 N 
ATOM      6  C   UNL     1       0.378  -0.366   3.581  0.00  0.00    +0.043 A 
ATOM      7  C   UNL     1       0.372   0.683   4.436  0.00  0.00    -0.020 A 
ATOM      8  C   UNL     1       0.162   1.847   3.688  0.00  0.00    +0.062 A 
ATOM      9  N   UNL     1       0.050   1.510   2.428  0.00  0.00    -0.171 NA
ATOM     10  C   UNL     1       0.083   3.248   4.238  0.00  0.00    +0.068 C 
ATOM     11  C   UNL     1       0.572  -1.813   3.952  0.00  0.00    +0.066 C 
BRANCH   5  18
ATOM     12  C   UNL     1      -1.979   0.599   0.540  0.00  0.00    +0.046 C 
ATOM     13  C   UNL     1      -0.921  -0.435   0.254  0.00  0.00    -0.025 A 
ATOM     14  C   UNL     1      -0.978  -1.179  -0.909  0.00  0.00    +0.005 A 
ATOM     15  C   UNL     1      -0.007  -2.128  -1.173  0.00  0.00    +0.000 A 
ATOM     16  C   UNL     1       1.022  -2.336  -0.273  0.00  0.00    +0.002 A 
ATOM     17  C   UNL     1       1.084  -1.597   0.892  0.00  0.00    +0.028 A 
ATOM     18  C   UNL     1       0.114  -0.638   1.156  0.00  0.00    +0.069 A 
ENDBRANCH   5  18
ENDBRANCH   4   7
ENDBRANCH   1   4
BRANCH   1  19
ATOM     19  C   UNL     1       2.184   0.539   7.693  0.00  0.00    +0.019 C 
BRANCH  19  20
ATOM     20  C   UNL     1       3.658   0.538   8.005  0.00  0.00    +0.204 C 
ATOM     21  O   UNL     1       4.466   0.681   7.112  0.00  0.00    -0.277 OA
ATOM     22  N   UNL     1       4.078   0.378   9.275  0.00  0.00    -0.242 N 
ATOM     23  C   UNL     1       5.397   0.377   9.554  0.00  0.00    +0.306 C 
ATOM     24  O   UNL     1       6.207   0.520   8.659  0.00  0.00    -0.252 OA
ATOM     25  N   UNL     1       5.817   0.216  10.824  0.00  0.00    -0.296 N 
ATOM     26  H   UNL     1       3.432   0.263   9.989  0.00  0.00    +0.159 HD
ATOM     27  H   UNL     1       5.171   0.102  11.538  0.00  0.00    +0.151 HD
BRANCH  25  28
ATOM     28  C   UNL     1       7.251   0.215  11.127  0.00  0.00    +0.074 C 
ATOM     29  C   UNL     1       7.819  -1.213  10.989  0.00  0.00    +0.022 C 
ATOM     30  C   UNL     1       8.860  -1.319  12.130  0.00  0.00    +0.002 C 
ATOM     31  C   UNL     1       8.181  -0.543  13.286  0.00  0.00    +0.002 C 
ATOM     32  C   UNL     1       7.481   0.640  12.588  0.00  0.00    +0.022 C 
ENDBRANCH  25  28
ENDBRANCH  19  20
ENDBRANCH   1  19
TORSDOF 6
