REMARK  Name = ZINC12589042
REMARK  13 active torsions:
REMARK  status: ('A' for Active; 'I' for Inactive)
REMARK    1  A    between atoms: C_1  and  C_2
REMARK    2  A    between atoms: C_5  and  C_7
REMARK    3  A    between atoms: C_7  and  N_60
REMARK    4  A    between atoms: C_8  and  C_9
REMARK    5  A    between atoms: C_8  and  N_60
REMARK    6  A    between atoms: C_14  and  O_15
REMARK    7  A    between atoms: O_15  and  C_16
REMARK    8  A    between atoms: C_16  and  C_17
REMARK    9  A    between atoms: C_17  and  C_19
REMARK   10  A    between atoms: C_17  and  O_27
REMARK   11  A    between atoms: C_19  and  N_63
REMARK   12  A    between atoms: C_20  and  N_63
REMARK   13  A    between atoms: C_21  and  N_63
REMARK                            x       y       z     vdW  Elec       q    Type
REMARK                         _______ _______ _______ _____ _____    ______ ____
ROOT
ATOM      1  C   UNL     1       2.518   5.534   2.867  0.00  0.00    -0.023 A 
ATOM      2  C   UNL     1       1.535   6.293   3.473  0.00  0.00    +0.005 A 
ATOM      3  C   UNL     1       1.678   6.686   4.790  0.00  0.00    +0.000 A 
ATOM      4  C   UNL     1       2.809   6.330   5.502  0.00  0.00    +0.004 A 
ATOM      5  C   UNL     1       3.797   5.576   4.899  0.00  0.00    +0.046 A 
ATOM      6  C   UNL     1       3.653   5.176   3.579  0.00  0.00    +0.122 A 
ENDROOT
BRANCH   1   7
ATOM      7  C   UNL     1       2.359   5.101   1.432  0.00  0.00    -0.043 C 
BRANCH   7   8
ATOM      8  N   UNL     1       1.899   3.700   1.398  0.00  0.00    +0.386 N 
ATOM      9  H   UNL     1       2.591   3.104   1.868  0.00  0.00    -0.085 HD
ATOM     10  H   UNL     1       0.998   3.627   1.886  0.00  0.00    -0.085 HD
BRANCH   8  11
ATOM     11  C   UNL     1       1.735   3.249   0.003  0.00  0.00    -0.006 C 
BRANCH  11  16
ATOM     12  C   UNL     1       1.803  -1.795  -0.024  0.00  0.00    +0.086 C 
ATOM     13  C   UNL     1       1.295  -0.376  -0.012  0.00  0.00    +0.102 A 
ATOM     14  C   UNL     1       0.002  -0.004   0.002  0.00  0.00    +0.044 A 
ATOM     15  C   UNL     1      -0.017   1.410   0.010  0.00  0.00    +0.043 A 
ATOM     16  C   UNL     1       1.265   1.817  -0.000  0.00  0.00    +0.088 A 
ATOM     17  O   UNL     1       2.055   0.731  -0.014  0.00  0.00    -0.467 OA
ENDBRANCH  11  16
ENDBRANCH   8  11
ENDBRANCH   7   8
ENDBRANCH   1   7
BRANCH   6  18
ATOM     18  O   UNL     1       4.624   4.434   2.983  0.00  0.00    -0.489 OA
BRANCH  18  19
ATOM     19  C   UNL     1       5.765   4.102   3.776  0.00  0.00    +0.258 C 
BRANCH  19  20
ATOM     20  C   UNL     1       6.742   3.271   2.942  0.00  0.00    +0.135 C 
BRANCH  20  21
ATOM     21  O   UNL     1       6.138   2.020   2.607  0.00  0.00    -0.390 OA
ATOM     22  H   UNL     1       5.890   1.485   3.374  0.00  0.00    +0.210 HD
ENDBRANCH  20  21
BRANCH  20  23
ATOM     23  C   UNL     1       8.018   3.021   3.749  0.00  0.00    -0.044 C 
BRANCH  23  25
ATOM     24  C   UNL     1       9.449   3.186   1.803  0.00  0.00    -0.096 C 
ATOM     25  N   UNL     1       8.989   2.304   2.896  0.00  0.00    +0.381 N 
ATOM     26  H   UNL     1       8.530   1.480   2.489  0.00  0.00    -0.082 HD
BRANCH  25  27
ATOM     27  C   UNL     1      10.142   1.860   3.707  0.00  0.00    -0.069 C 
ATOM     28  C   UNL     1      10.898   3.066   4.270  0.00  0.00    -0.015 C 
ATOM     29  C   UNL     1      12.085   2.579   5.103  0.00  0.00    -0.002 C 
ATOM     30  C   UNL     1      13.025   1.756   4.219  0.00  0.00    -0.000 C 
ATOM     31  C   UNL     1      12.269   0.551   3.656  0.00  0.00    -0.002 C 
ATOM     32  C   UNL     1      11.082   1.037   2.823  0.00  0.00    -0.015 C 
ENDBRANCH  25  27
ENDBRANCH  23  25
ENDBRANCH  20  23
ENDBRANCH  19  20
ENDBRANCH  18  19
ENDBRANCH   6  18
TORSDOF 11
