REMARK  Name = ZINC08747888
REMARK  4 active torsions:
REMARK  status: ('A' for Active; 'I' for Inactive)
REMARK    1  A    between atoms: C_1  and  C_2
REMARK    2  A    between atoms: C_2  and  C_21
REMARK    3  A    between atoms: N_5  and  C_9
REMARK    4  A    between atoms: C_9  and  C_10
REMARK                            x       y       z     vdW  Elec       q    Type
REMARK                         _______ _______ _______ _____ _____    ______ ____
ROOT
ATOM      1  C   UNL     1       2.750   2.882   0.195  0.00  0.00    +0.047 C 
ATOM      2  C   UNL     1       1.528   2.602  -0.681  0.00  0.00    +0.135 C 
ATOM      3  C   UNL     1       0.579   3.784  -0.673  0.00  0.00    +0.251 C 
ATOM      4  O   UNL     1       0.811   4.911  -1.056  0.00  0.00    -0.272 OA
ATOM      5  N   UNL     1      -0.575   3.322  -0.154  0.00  0.00    -0.220 N 
ATOM      6  C   UNL     1      -0.490   2.024   0.160  0.00  0.00    +0.310 C 
ATOM      7  O   UNL     1      -1.405   1.384   0.640  0.00  0.00    -0.252 OA
ATOM      8  N   UNL     1       0.722   1.508  -0.111  0.00  0.00    -0.281 N 
ATOM      9  H   UNL     1       1.008   0.593   0.036  0.00  0.00    +0.152 HD
ENDROOT
BRANCH   2  10
ATOM     10  C   UNL     1       1.951   2.271  -2.089  0.00  0.00    -0.012 A 
ATOM     11  C   UNL     1       2.114   3.283  -3.017  0.00  0.00    +0.010 A 
ATOM     12  C   UNL     1       2.502   2.983  -4.309  0.00  0.00    +0.050 A 
ATOM     13  C   UNL     1       2.727   1.666  -4.679  0.00  0.00    +0.162 A 
ATOM     14  C   UNL     1       2.565   0.648  -3.746  0.00  0.00    +0.162 A 
ATOM     15  C   UNL     1       2.181   0.957  -2.449  0.00  0.00    +0.055 A 
ATOM     16  O   UNL     1       2.785  -0.651  -4.086  0.00  0.00    -0.485 OA
ATOM     17  C   UNL     1       2.806  -0.954  -5.486  0.00  0.00    +0.270 C 
ATOM     18  C   UNL     1       3.676   0.095  -6.191  0.00  0.00    +0.270 C 
ATOM     19  O   UNL     1       3.100   1.385  -5.957  0.00  0.00    -0.485 OA
ENDBRANCH   2  10
BRANCH   5  20
ATOM     20  C   UNL     1      -1.776   4.138   0.038  0.00  0.00    +0.154 C 
BRANCH  20  21
ATOM     21  C   UNL     1      -1.660   4.909   1.328  0.00  0.00    -0.012 A 
ATOM     22  C   UNL     1      -1.156   6.196   1.320  0.00  0.00    +0.055 A 
ATOM     23  C   UNL     1      -1.052   6.909   2.505  0.00  0.00    +0.162 A 
ATOM     24  C   UNL     1      -1.448   6.323   3.702  0.00  0.00    +0.163 A 
ATOM     25  C   UNL     1      -1.947   5.030   3.704  0.00  0.00    +0.065 A 
ATOM     26  C   UNL     1      -2.052   4.325   2.519  0.00  0.00    +0.026 A 
ATOM     27 BR   UNL     1      -2.732   2.560   2.526  0.00  0.00    -0.050 Br
ATOM     28  O   UNL     1      -1.354   7.006   4.875  0.00  0.00    -0.485 OA
ATOM     29  C   UNL     1      -0.505   8.158   4.884  0.00  0.00    +0.270 C 
ATOM     30  C   UNL     1      -0.810   8.989   3.630  0.00  0.00    +0.270 C 
ATOM     31  O   UNL     1      -0.554   8.176   2.480  0.00  0.00    -0.485 OA
ENDBRANCH  20  21
ENDBRANCH   5  20
TORSDOF 3
