REMARK  Name = ZINC13638383
REMARK  2 active torsions:
REMARK  status: ('A' for Active; 'I' for Inactive)
REMARK    1  A    between atoms: C_6  and  C_7
REMARK    2  A    between atoms: C_18  and  O_23
REMARK                            x       y       z     vdW  Elec       q    Type
REMARK                         _______ _______ _______ _____ _____    ______ ____
ROOT
ATOM      1  C   UNL     1       1.673   4.332   0.346  0.00  0.00    +0.105 C 
ATOM      2  C   UNL     1       0.520   3.414   0.712  0.00  0.00    +0.029 C 
ATOM      3  C   UNL     1      -0.842   3.711   0.070  0.00  0.00    +0.033 C 
ATOM      4  C   UNL     1      -1.467   2.316   0.008  0.00  0.00    -0.030 C 
ATOM      5  C   UNL     1      -0.513   1.392  -0.023  0.00  0.00    -0.023 C 
ATOM      6  C   UNL     1       0.807   2.073  -0.029  0.00  0.00    +0.049 C 
ATOM      7  C   UNL     1       2.006   1.461   0.584  0.00  0.00    -0.016 A 
ATOM      8  C   UNL     1       2.152   0.098   0.721  0.00  0.00    +0.051 A 
ATOM      9  C   UNL     1       3.302  -0.428   1.289  0.00  0.00    +0.117 A 
ATOM     10  C   UNL     1       4.310   0.421   1.721  0.00  0.00    +0.047 A 
ATOM     11  C   UNL     1       4.166   1.787   1.592  0.00  0.00    +0.027 A 
ATOM     12  C   UNL     1       3.014   2.323   1.030  0.00  0.00    +0.032 A 
ATOM     13  N   UNL     1       2.878   3.716   0.942  0.00  0.00    -0.336 N 
ATOM     14  H   UNL     1       3.587   4.286   1.279  0.00  0.00    +0.147 HD
ENDROOT
BRANCH   1  20
ATOM     15  C   UNL     1       2.645   3.529  -1.816  0.00  0.00    +0.006 A 
ATOM     16  C   UNL     1       2.773   3.601  -3.191  0.00  0.00    +0.015 A 
ATOM     17  C   UNL     1       2.082   4.567  -3.900  0.00  0.00    +0.018 A 
ATOM     18  C   UNL     1       1.258   5.457  -3.234  0.00  0.00    +0.015 A 
ATOM     19  C   UNL     1       1.126   5.380  -1.860  0.00  0.00    +0.006 A 
ATOM     20  C   UNL     1       1.817   4.415  -1.152  0.00  0.00    -0.027 A 
ATOM     21 BR   UNL     1       2.264   4.671  -5.779  0.00  0.00    -0.050 Br
ENDBRANCH   1  20
BRANCH   9  22
ATOM     22  O   UNL     1       3.442  -1.775   1.423  0.00  0.00    -0.507 OA
ATOM     23  H   UNL     1       3.859  -2.204   0.663  0.00  0.00    +0.292 HD
ENDBRANCH   9  22
TORSDOF 2
