REMARK  Name = ZINC09390615
REMARK  7 active torsions:
REMARK  status: ('A' for Active; 'I' for Inactive)
REMARK    1  A    between atoms: C_1  and  C_2
REMARK    2  A    between atoms: C_2  and  C_3
REMARK    3  A    between atoms: C_2  and  N_4
REMARK    4  A    between atoms: C_10  and  N_15
REMARK    5  A    between atoms: C_11  and  C_12
REMARK    6  A    between atoms: C_16  and  C_18
REMARK    7  A    between atoms: C_22  and  N_27
REMARK                            x       y       z     vdW  Elec       q    Type
REMARK                         _______ _______ _______ _____ _____    ______ ____
ROOT
ATOM      1  N   UNL     1       0.639  -0.222  -1.304  0.00  0.00    +0.384 N 
ATOM      2  C   UNL     1       0.580  -1.649  -1.645  0.00  0.00    -0.073 C 
ATOM      3  C   UNL     1       0.948  -1.856  -3.118  0.00  0.00    +0.018 C 
ATOM      4  C   UNL     1       2.274  -1.153  -3.371  0.00  0.00    -0.027 A 
ATOM      5  C   UNL     1       2.731  -0.228  -2.497  0.00  0.00    -0.021 A 
ATOM      6  S   UNL     1       4.271   0.309  -3.178  0.00  0.00    -0.079 S 
ATOM      7  C   UNL     1       4.319  -0.642  -4.562  0.00  0.00    +0.085 A 
ATOM      8  C   UNL     1       3.146  -1.381  -4.507  0.00  0.00    +0.068 A 
ATOM      9  C   UNL     1       2.046   0.215  -1.242  0.00  0.00    -0.035 C 
ATOM     10  H   UNL     1       0.152   0.312  -2.008  0.00  0.00    -0.081 HD
ENDROOT
BRANCH   8  11
ATOM     11  C   UNL     1       2.802  -2.350  -5.552  0.00  0.00    +0.244 C 
ATOM     12  O   UNL     1       2.158  -1.997  -6.522  0.00  0.00    -0.270 OA
ATOM     13  N   UNL     1       3.200  -3.633  -5.438  0.00  0.00    -0.325 N 
ATOM     14  H   UNL     1       3.714  -3.915  -4.665  0.00  0.00    +0.145 HD
ATOM     15  H   UNL     1       2.974  -4.274  -6.129  0.00  0.00    +0.145 HD
ENDBRANCH   8  11
BRANCH   7  16
ATOM     16  N   UNL     1       5.303  -0.678  -5.536  0.00  0.00    -0.275 N 
ATOM     17  C   UNL     1       6.386   0.116  -5.429  0.00  0.00    +0.255 C 
ATOM     18  O   UNL     1       6.500   0.866  -4.478  0.00  0.00    -0.269 OA
ATOM     19  H   UNL     1       5.213  -1.276  -6.294  0.00  0.00    +0.156 HD
BRANCH  17  20
ATOM     20  C   UNL     1       7.431   0.077  -6.462  0.00  0.00    +0.075 A 
ATOM     21  C   UNL     1       8.586   0.791  -6.526  0.00  0.00    +0.029 A 
ATOM     22  C   UNL     1       9.465   0.608  -7.609  0.00  0.00    -0.008 A 
ATOM     23  C   UNL     1      10.706   1.253  -7.852  0.00  0.00    +0.041 A 
ATOM     24  C   UNL     1      11.436   0.958  -8.957  0.00  0.00    +0.127 A 
ATOM     25  C   UNL     1      11.004   0.021  -9.888  0.00  0.00    +0.034 A 
ATOM     26  C   UNL     1       9.804  -0.630  -9.691  0.00  0.00    +0.018 A 
ATOM     27  C   UNL     1       9.050  -0.341  -8.573  0.00  0.00    +0.020 A 
ATOM     28  S   UNL     1       7.499  -0.924  -7.937  0.00  0.00    -0.084 S 
BRANCH  24  29
ATOM     29  N   UNL     1      12.725   1.652  -9.177  0.00  0.00    +0.056 N 
ATOM     30  O   UNL     1      13.115   2.471  -8.377  0.00  0.00    -0.126 OA
ATOM     31  O   UNL     1      13.388   1.401 -10.156  0.00  0.00    -0.126 OA
ENDBRANCH  24  29
ENDBRANCH  17  20
ENDBRANCH   7  16
BRANCH   1  33
ATOM     32  C   UNL     1       0.156   1.464   0.406  0.00  0.00    -0.014 C 
ATOM     33  C   UNL     1       0.002  -0.004   0.002  0.00  0.00    -0.074 C 
ATOM     34  C   UNL     1      -1.484  -0.355  -0.091  0.00  0.00    -0.014 C 
ENDBRANCH   1  33
TORSDOF 5
