REMARK  Name = ZINC20695717
REMARK  2 active torsions:
REMARK  status: ('A' for Active; 'I' for Inactive)
REMARK    1  A    between atoms: C_9  and  C_18
REMARK    2  A    between atoms: C_23  and  O_24
REMARK                            x       y       z     vdW  Elec       q    Type
REMARK                         _______ _______ _______ _____ _____    ______ ____
ROOT
ATOM      1  C   UNL     1      -3.584   5.194   1.447  0.00  0.00    +0.002 A 
ATOM      2  C   UNL     1      -2.865   4.189   0.827  0.00  0.00    +0.006 A 
ATOM      3  C   UNL     1      -1.502   4.305   0.659  0.00  0.00    -0.018 A 
ATOM      4  C   UNL     1      -0.824   5.436   1.122  0.00  0.00    +0.050 A 
ATOM      5  C   UNL     1      -1.565   6.447   1.738  0.00  0.00    +0.062 A 
ATOM      6  C   UNL     1      -2.928   6.325   1.898  0.00  0.00    +0.022 A 
ATOM      7 CL   UNL     1      -0.758   7.874   2.311  0.00  0.00    -0.082 Cl
ATOM      8  N   UNL     1       0.556   5.612   1.029  0.00  0.00    -0.335 N 
ATOM      9  C   UNL     1       1.316   4.566   0.291  0.00  0.00    +0.108 C 
ATOM     10  C   UNL     1       0.693   3.240   0.674  0.00  0.00    +0.029 C 
ATOM     11  C   UNL     1      -0.709   3.251  -0.012  0.00  0.00    +0.049 C 
ATOM     12  C   UNL     1      -1.111   1.824   0.017  0.00  0.00    -0.023 C 
ATOM     13  C   UNL     1      -0.013   1.076   0.008  0.00  0.00    -0.030 C 
ATOM     14  C   UNL     1       1.229   1.972   0.001  0.00  0.00    +0.033 C 
ATOM     15  H   UNL     1       1.085   6.470   1.468  0.00  0.00    +0.147 HD
ENDROOT
BRANCH   9  16
ATOM     16  C   UNL     1       2.764   4.594   0.709  0.00  0.00    +0.015 A 
ATOM     17  C   UNL     1       3.124   5.160   1.917  0.00  0.00    +0.024 A 
ATOM     18  C   UNL     1       4.452   5.181   2.302  0.00  0.00    +0.018 A 
ATOM     19  C   UNL     1       5.424   4.644   1.476  0.00  0.00    +0.019 A 
ATOM     20  C   UNL     1       5.068   4.082   0.266  0.00  0.00    +0.047 A 
ATOM     21  C   UNL     1       3.736   4.055  -0.121  0.00  0.00    +0.122 A 
ATOM     22 BR   UNL     1       4.942   5.952   3.958  0.00  0.00    -0.050 Br
BRANCH  21  23
ATOM     23  O   UNL     1       3.384   3.502  -1.312  0.00  0.00    -0.506 OA
ATOM     24  H   UNL     1       4.155   3.075  -1.969  0.00  0.00    +0.292 HD
ENDBRANCH  21  23
ENDBRANCH   9  16
TORSDOF 2
