REMARK  Name = ZINC06649797
REMARK  6 active torsions:
REMARK  status: ('A' for Active; 'I' for Inactive)
REMARK    1  A    between atoms: C_1  and  C_2
REMARK    2  A    between atoms: C_2  and  C_4
REMARK    3  A    between atoms: C_2  and  O_14
REMARK    4  A    between atoms: C_7  and  C_9
REMARK    5  A    between atoms: O_14  and  C_15
REMARK    6  A    between atoms: C_15  and  C_17
REMARK                            x       y       z     vdW  Elec       q    Type
REMARK                         _______ _______ _______ _____ _____    ______ ____
ROOT
ATOM      1  O   UNL     1      -1.339  -0.499   0.012  0.00  0.00    -0.447 OA
ENDROOT
BRANCH   1   3
ATOM      2  C   UNL     1      -0.019   1.526   0.010  0.00  0.00    +0.062 C 
ATOM      3  C   UNL     1       0.002  -0.004   0.002  0.00  0.00    +0.261 C 
BRANCH   3   4
ATOM      4  C   UNL     1       0.731  -0.503   1.223  0.00  0.00    +0.258 A 
ATOM      5  N   UNL     1       0.268  -0.521   2.441  0.00  0.00    -0.108 NA
ATOM      6  N   UNL     1       1.155  -1.013   3.232  0.00  0.00    -0.107 NA
ATOM      7  C   UNL     1       2.227  -1.329   2.538  0.00  0.00    +0.255 A 
ATOM      8  O   UNL     1       1.974  -1.016   1.251  0.00  0.00    -0.416 OA
BRANCH   7   9
ATOM      9  C   UNL     1       3.466  -1.919   3.067  0.00  0.00    +0.076 A 
ATOM     10  C   UNL     1       3.780  -2.270   4.367  0.00  0.00    +0.021 A 
ATOM     11  C   UNL     1       5.019  -2.811   4.618  0.00  0.00    +0.008 A 
ATOM     12  C   UNL     1       5.890  -2.983   3.590  0.00  0.00    +0.046 A 
ATOM     13  S   UNL     1       4.957  -2.375   2.195  0.00  0.00    -0.092 S 
ENDBRANCH   7   9
ENDBRANCH   3   4
ENDBRANCH   1   3
BRANCH   1  14
ATOM     14  C   UNL     1      -1.924  -0.704  -1.184  0.00  0.00    +0.361 C 
ATOM     15  O   UNL     1      -1.313  -0.469  -2.208  0.00  0.00    -0.243 OA
BRANCH  14  16
ATOM     16  C   UNL     1      -3.304  -1.213  -1.251  0.00  0.00    +0.177 A 
ATOM     17  C   UNL     1      -4.081  -1.495  -2.466  0.00  0.00    +0.034 A 
ATOM     18  C   UNL     1      -3.852  -1.405  -3.835  0.00  0.00    +0.012 A 
ATOM     19  C   UNL     1      -4.839  -1.765  -4.709  0.00  0.00    +0.001 A 
ATOM     20  C   UNL     1      -6.065  -2.219  -4.239  0.00  0.00    +0.002 A 
ATOM     21  C   UNL     1      -6.311  -2.315  -2.898  0.00  0.00    +0.028 A 
ATOM     22  C   UNL     1      -5.324  -1.955  -1.987  0.00  0.00    +0.067 A 
ATOM     23  N   UNL     1      -5.237  -1.928  -0.620  0.00  0.00    -0.276 N 
ATOM     24  H   UNL     1      -5.951  -2.194  -0.020  0.00  0.00    +0.189 HD
ATOM     25  N   UNL     1      -4.085  -1.510  -0.234  0.00  0.00    -0.166 NA
ENDBRANCH  14  16
ENDBRANCH   1  14
TORSDOF 5
