REMARK  Name = ZINC39948811
REMARK  5 active torsions:
REMARK  status: ('A' for Active; 'I' for Inactive)
REMARK    1  A    between atoms: C_8  and  C_13
REMARK    2  A    between atoms: N_14  and  N_15
REMARK    3  A    between atoms: C_16  and  C_18
REMARK    4  A    between atoms: C_18  and  N_19
REMARK    5  A    between atoms: C_20  and  C_22
REMARK                            x       y       z     vdW  Elec       q    Type
REMARK                         _______ _______ _______ _____ _____    ______ ____
ROOT
ATOM      1  N   UNL     1       3.043  -5.668   2.154  0.00  0.00    -0.206 N 
ATOM      2  C   UNL     1       3.124  -7.005   2.003  0.00  0.00    +0.249 C 
ATOM      3  O   UNL     1       3.102  -7.492   0.892  0.00  0.00    -0.272 OA
ATOM      4  H   UNL     1       3.060  -5.278   3.042  0.00  0.00    +0.177 HD
ENDROOT
BRANCH   1   6
ATOM      5  C   UNL     1       2.858  -3.571   1.172  0.00  0.00    +0.120 C 
ATOM      6  N   UNL     1       2.934  -4.841   1.028  0.00  0.00    -0.192 NA
BRANCH   5  14
ATOM      7  C   UNL     1      -0.016   1.354   0.009  0.00  0.00    +0.001 A 
ATOM      8  C   UNL     1       1.165   2.097   0.002  0.00  0.00    +0.002 A 
ATOM      9  C   UNL     1       2.394   1.518  -0.013  0.00  0.00    +0.024 A 
ATOM     10  C   UNL     1       2.524   0.117  -0.021  0.00  0.00    +0.040 A 
ATOM     11  N   UNL     1       3.736  -0.439  -0.035  0.00  0.00    -0.284 N 
ATOM     12  C   UNL     1       3.929  -1.747  -0.045  0.00  0.00    +0.229 C 
ATOM     13  O   UNL     1       5.060  -2.197  -0.058  0.00  0.00    -0.274 OA
ATOM     14  C   UNL     1       2.741  -2.681  -0.039  0.00  0.00    +0.141 C 
ATOM     15  C   UNL     1       1.361  -2.054  -0.022  0.00  0.00    +0.001 C 
ATOM     16  C   UNL     1       1.294  -0.692  -0.014  0.00  0.00    -0.007 A 
ATOM     17  C   UNL     1       0.002  -0.004   0.002  0.00  0.00    +0.009 A 
ATOM     18  H   UNL     1       4.511   0.143  -0.039  0.00  0.00    +0.155 HD
ENDBRANCH   5  14
ENDBRANCH   1   6
BRANCH   2  19
ATOM     19  C   UNL     1       3.241  -7.894   3.213  0.00  0.00    +0.202 C 
BRANCH  19  20
ATOM     20  N   UNL     1       3.312  -9.293   2.786  0.00  0.00    -0.303 N 
ATOM     21  C   UNL     1       3.421 -10.274   3.705  0.00  0.00    +0.245 C 
ATOM     22  O   UNL     1       3.460  -9.997   4.888  0.00  0.00    -0.270 OA
ATOM     23  H   UNL     1       3.281  -9.515   1.842  0.00  0.00    +0.150 HD
BRANCH  21  24
ATOM     24  C   UNL     1       3.493 -11.686   3.274  0.00  0.00    +0.050 A 
ATOM     25  C   UNL     1       3.454 -12.007   1.916  0.00  0.00    +0.014 A 
ATOM     26  C   UNL     1       3.523 -13.327   1.520  0.00  0.00    +0.001 A 
ATOM     27  C   UNL     1       3.629 -14.332   2.466  0.00  0.00    +0.001 A 
ATOM     28  C   UNL     1       3.667 -14.021   3.813  0.00  0.00    +0.015 A 
ATOM     29  C   UNL     1       3.606 -12.704   4.223  0.00  0.00    +0.025 A 
ATOM     30  I   UNL     1       3.673 -12.235   6.263  0.00  0.00    -0.043 I 
ENDBRANCH  21  24
ENDBRANCH  19  20
ENDBRANCH   2  19
TORSDOF 5
