REMARK  Name = ZINC10990346
REMARK  8 active torsions:
REMARK  status: ('A' for Active; 'I' for Inactive)
REMARK    1  A    between atoms: C_1  and  C_2
REMARK    2  A    between atoms: C_8  and  N_10
REMARK    3  A    between atoms: C_14  and  C_16
REMARK    4  A    between atoms: C_16  and  O_17
REMARK    5  A    between atoms: O_17  and  C_18
REMARK    6  A    between atoms: C_18  and  C_20
REMARK    7  A    between atoms: C_20  and  O_21
REMARK    8  A    between atoms: O_21  and  C_22
REMARK                            x       y       z     vdW  Elec       q    Type
REMARK                         _______ _______ _______ _____ _____    ______ ____
ROOT
ATOM      1  C   UNL     1       0.573   5.450  -5.734  0.00  0.00    +0.328 C 
ENDROOT
BRANCH   1   6
ATOM      2  N   UNL     1       1.424   2.047  -2.446  0.00  0.00    -0.296 N 
ATOM      3  C   UNL     1       1.689   3.276  -2.933  0.00  0.00    +0.306 C 
ATOM      4  O   UNL     1       2.515   3.981  -2.389  0.00  0.00    -0.252 OA
ATOM      5  N   UNL     1       1.037   3.722  -4.025  0.00  0.00    -0.237 N 
ATOM      6  C   UNL     1       1.302   4.950  -4.513  0.00  0.00    +0.258 C 
ATOM      7  O   UNL     1       2.126   5.654  -3.969  0.00  0.00    -0.272 OA
ATOM      8  H   UNL     1       0.765   1.484  -2.881  0.00  0.00    +0.151 HD
ATOM      9  H   UNL     1       0.377   3.159  -4.460  0.00  0.00    +0.159 HD
BRANCH   2  16
ATOM     10  C   UNL     1       2.870  -0.461  -2.526  0.00  0.00    +0.009 C 
ATOM     11  C   UNL     1       2.154   0.032  -1.268  0.00  0.00    +0.006 C 
ATOM     12  C   UNL     1       0.718  -0.497  -1.257  0.00  0.00    +0.005 C 
ATOM     13  C   UNL     1       0.002  -0.004   0.002  0.00  0.00    +0.000 C 
ATOM     14  C   UNL     1      -0.019   1.526   0.010  0.00  0.00    +0.002 C 
ATOM     15  C   UNL     1       1.417   2.055  -0.000  0.00  0.00    +0.022 C 
ATOM     16  C   UNL     1       2.133   1.562  -1.259  0.00  0.00    +0.077 C 
ENDBRANCH   2  16
ENDBRANCH   1   6
BRANCH   1  17
ATOM     17  O   UNL     1       1.031   6.789  -6.057  0.00  0.00    -0.453 OA
BRANCH  17  18
ATOM     18  C   UNL     1       0.476   7.381  -7.127  0.00  0.00    +0.346 C 
ATOM     19  O   UNL     1      -0.364   6.800  -7.771  0.00  0.00    -0.247 OA
BRANCH  18  20
ATOM     20  C   UNL     1       0.902   8.771  -7.523  0.00  0.00    +0.349 C 
BRANCH  20  21
ATOM     21  O   UNL     1       0.174   9.180  -8.683  0.00  0.00    -0.481 OA
BRANCH  21  22
ATOM     22  C   UNL     1       0.441  10.417  -9.174  0.00  0.00    +0.125 A 
ATOM     23  C   UNL     1       1.385  11.223  -8.541  0.00  0.00    +0.046 A 
ATOM     24  C   UNL     1       1.669  12.466  -9.026  0.00  0.00    +0.015 A 
ATOM     25  C   UNL     1       0.998  12.941 -10.159  0.00  0.00    +0.018 A 
ATOM     26  C   UNL     1       1.277  14.273 -10.698  0.00  0.00    +0.018 A 
ATOM     27  C   UNL     1       0.593  14.676 -11.800  0.00  0.00    +0.092 A 
ATOM     28  C   UNL     1      -0.355  13.815 -12.391  0.00  0.00    +0.337 A 
ATOM     29  O   UNL     1      -0.961  14.189 -13.379  0.00  0.00    -0.245 OA
ATOM     30  O   UNL     1      -0.606  12.595 -11.893  0.00  0.00    -0.422 OA
ATOM     31  C   UNL     1       0.039  12.134 -10.799  0.00  0.00    +0.143 A 
ATOM     32  C   UNL     1      -0.233  10.870 -10.297  0.00  0.00    +0.092 A 
ENDBRANCH  21  22
ENDBRANCH  20  21
ENDBRANCH  18  20
ENDBRANCH  17  18
ENDBRANCH   1  17
TORSDOF 7
