REMARK  Name = ZINC38756300
REMARK  3 active torsions:
REMARK  status: ('A' for Active; 'I' for Inactive)
REMARK    1  A    between atoms: C_6  and  N_7
REMARK    2  A    between atoms: C_8  and  C_10
REMARK    3  A    between atoms: C_10  and  C_11
REMARK                            x       y       z     vdW  Elec       q    Type
REMARK                         _______ _______ _______ _____ _____    ______ ____
ROOT
ATOM      1  C   UNL     1      -3.791  -0.997  -0.054  0.00  0.00    +0.122 C 
ENDROOT
BRANCH   1   2
ATOM      2  C   UNL     1      -4.950   0.002  -0.040  0.00  0.00    +0.112 C 
ATOM      3  C   UNL     1      -6.279  -0.775   0.106  0.00  0.00    +0.103 C 
ATOM      4  S   UNL     1      -7.364   0.324  -0.898  0.00  0.00    -0.086 S 
ATOM      5  C   UNL     1      -6.093   1.110  -1.871  0.00  0.00    +0.172 A 
ATOM      6  N   UNL     1      -4.908   0.797  -1.272  0.00  0.00    -0.283 N 
ATOM      7  C   UNL     1      -3.778   1.268  -1.877  0.00  0.00    +0.258 A 
ATOM      8  O   UNL     1      -2.684   1.003  -1.407  0.00  0.00    -0.267 OA
ATOM      9  C   UNL     1      -3.865   2.055  -3.039  0.00  0.00    +0.038 A 
ATOM     10  C   UNL     1      -5.089   2.333  -3.559  0.00  0.00    +0.052 A 
ATOM     11  N   UNL     1      -6.171   1.851  -2.950  0.00  0.00    -0.228 NA
ATOM     12  C   UNL     1      -5.282   3.159  -4.802  0.00  0.00    +0.056 C 
ATOM     13  C   UNL     1      -4.020   3.962  -5.114  0.00  0.00    +0.006 C 
ATOM     14  C   UNL     1      -2.822   3.005  -5.095  0.00  0.00    +0.005 C 
ATOM     15  C   UNL     1      -2.586   2.558  -3.654  0.00  0.00    +0.042 C 
ENDBRANCH   1   2
BRANCH   1  17
ATOM     16  N   UNL     1      -2.771  -2.628   1.501  0.00  0.00    -0.285 N 
ATOM     17  C   UNL     1      -3.766  -1.755   1.248  0.00  0.00    +0.219 C 
ATOM     18  O   UNL     1      -4.642  -1.581   2.068  0.00  0.00    -0.275 OA
ATOM     19  H   UNL     1      -2.033  -2.717   0.877  0.00  0.00    +0.155 HD
BRANCH  16  25
ATOM     20  C   UNL     1      -2.313  -4.706   2.644  0.00  0.00    +0.027 A 
ATOM     21  C   UNL     1      -2.344  -5.475   3.792  0.00  0.00    +0.051 A 
ATOM     22  C   UNL     1      -2.861  -4.952   4.967  0.00  0.00    +0.162 A 
ATOM     23  C   UNL     1      -3.347  -3.650   4.992  0.00  0.00    +0.164 A 
ATOM     24  C   UNL     1      -3.317  -2.879   3.840  0.00  0.00    +0.072 A 
ATOM     25  C   UNL     1      -2.800  -3.406   2.665  0.00  0.00    +0.037 A 
ATOM     26  O   UNL     1      -3.852  -3.116   6.138  0.00  0.00    -0.485 OA
ATOM     27  C   UNL     1      -4.208  -4.038   7.175  0.00  0.00    +0.270 C 
ATOM     28  C   UNL     1      -3.063  -5.047   7.335  0.00  0.00    +0.270 C 
ATOM     29  O   UNL     1      -2.887  -5.726   6.087  0.00  0.00    -0.485 OA
ENDBRANCH  16  25
ENDBRANCH   1  17
TORSDOF 3
