REMARK  Name = ZINC34792066
REMARK  8 active torsions:
REMARK  status: ('A' for Active; 'I' for Inactive)
REMARK    1  A    between atoms: C_1  and  C_2
REMARK    2  A    between atoms: C_2  and  C_3
REMARK    3  A    between atoms: C_2  and  N_4
REMARK    4  A    between atoms: N_4  and  C_5
REMARK    5  A    between atoms: C_6  and  C_8
REMARK    6  A    between atoms: C_8  and  N_9
REMARK    7  A    between atoms: C_15  and  C_22
REMARK    8  A    between atoms: N_20  and  C_21
REMARK                            x       y       z     vdW  Elec       q    Type
REMARK                         _______ _______ _______ _____ _____    ______ ____
ROOT
ATOM      1  N   UNL     1      -3.457  -2.619  -2.186  0.00  0.00    -0.283 N 
ATOM      2  C   UNL     1      -3.949  -2.135  -3.485  0.00  0.00    +0.160 C 
ATOM      3  C   UNL     1      -4.003  -3.365  -4.362  0.00  0.00    +0.042 C 
ATOM      4  C   UNL     1      -3.581  -4.394  -3.600  0.00  0.00    +0.058 C 
ATOM      5  C   UNL     1      -3.252  -3.943  -2.305  0.00  0.00    +0.247 C 
ATOM      6  O   UNL     1      -2.839  -4.659  -1.411  0.00  0.00    -0.270 OA
ATOM      7  C   UNL     1      -3.535  -5.769  -4.235  0.00  0.00    +0.142 C 
ATOM      8  N   UNL     1      -3.957  -5.868  -5.642  0.00  0.00    -0.288 N 
ATOM      9  C   UNL     1      -4.355  -4.746  -6.274  0.00  0.00    +0.307 C 
ATOM     10  O   UNL     1      -4.706  -4.818  -7.435  0.00  0.00    -0.252 OA
ATOM     11  N   UNL     1      -4.376  -3.554  -5.662  0.00  0.00    -0.260 N 
ATOM     12  C   UNL     1      -4.825  -2.390  -6.430  0.00  0.00    +0.139 C 
ATOM     13  H   UNL     1      -3.949  -6.721  -6.104  0.00  0.00    +0.151 HD
ENDROOT
BRANCH   7  14
ATOM     14  C   UNL     1      -4.411  -6.687  -3.422  0.00  0.00    -0.022 A 
ATOM     15  C   UNL     1      -5.782  -6.673  -3.603  0.00  0.00    +0.008 A 
ATOM     16  C   UNL     1      -6.586  -7.514  -2.858  0.00  0.00    +0.038 A 
ATOM     17  C   UNL     1      -6.019  -8.371  -1.930  0.00  0.00    +0.123 A 
ATOM     18  C   UNL     1      -4.647  -8.385  -1.750  0.00  0.00    +0.038 A 
ATOM     19  C   UNL     1      -3.844  -7.546  -2.500  0.00  0.00    +0.008 A 
ATOM     20  F   UNL     1      -6.805  -9.194  -1.201  0.00  0.00    -0.205 F 
ENDBRANCH   7  14
BRANCH   1  21
ATOM     21  C   UNL     1      -3.226  -1.808  -0.988  0.00  0.00    +0.204 C 
BRANCH  21  24
ATOM     22  N   UNL     1      -1.372  -0.511   0.012  0.00  0.00    -0.301 N 
ATOM     23  C   UNL     1      -2.269  -0.175   1.122  0.00  0.00    +0.132 C 
ATOM     24  C   UNL     1      -1.812  -1.286  -0.998  0.00  0.00    +0.233 C 
ATOM     25  O   UNL     1      -1.070  -1.564  -1.917  0.00  0.00    -0.274 OA
BRANCH  22  27
ATOM     26  C   UNL     1      -0.019   1.526   0.010  0.00  0.00    +0.028 C 
ATOM     27  C   UNL     1       0.002  -0.004   0.002  0.00  0.00    +0.070 C 
ATOM     28  C   UNL     1       0.742  -0.511   1.242  0.00  0.00    +0.028 C 
ENDBRANCH  22  27
ENDBRANCH  21  24
ENDBRANCH   1  21
TORSDOF 4
