REMARK  Name = ZINC42477466
REMARK  8 active torsions:
REMARK  status: ('A' for Active; 'I' for Inactive)
REMARK    1  A    between atoms: C_1  and  C_2
REMARK    2  A    between atoms: C_2  and  C_4
REMARK    3  A    between atoms: C_2  and  N_10
REMARK    4  A    between atoms: N_10  and  C_11
REMARK    5  A    between atoms: C_11  and  C_12
REMARK    6  A    between atoms: C_12  and  C_13
REMARK    7  A    between atoms: C_16  and  S_19
REMARK    8  A    between atoms: S_19  and  N_22
REMARK                            x       y       z     vdW  Elec       q    Type
REMARK                         _______ _______ _______ _____ _____    ______ ____
ROOT
ATOM      1  C   UNL     1      -3.485  -0.656  -1.224  0.00  0.00    +0.016 C 
ENDROOT
BRANCH   1   2
ATOM      2  C   UNL     1      -4.177  -0.259  -2.502  0.00  0.00    -0.049 A 
ATOM      3  C   UNL     1      -4.860   0.940  -2.576  0.00  0.00    +0.005 A 
ATOM      4  C   UNL     1      -5.494   1.304  -3.749  0.00  0.00    +0.029 A 
ATOM      5  C   UNL     1      -5.445   0.468  -4.849  0.00  0.00    +0.105 A 
ATOM      6  C   UNL     1      -4.761  -0.731  -4.776  0.00  0.00    +0.029 A 
ATOM      7  C   UNL     1      -4.123  -1.093  -3.604  0.00  0.00    +0.005 A 
BRANCH   5   8
ATOM      8  S   UNL     1      -6.254   0.931  -6.344  0.00  0.00    +0.056 S 
ATOM      9  O   UNL     1      -6.519  -0.272  -7.052  0.00  0.00    -0.153 OA
ATOM     10  O   UNL     1      -7.281   1.844  -5.984  0.00  0.00    -0.153 OA
BRANCH   8  11
ATOM     11  N   UNL     1      -5.160   1.782  -7.250  0.00  0.00    -0.204 NA
ATOM     12  H   UNL     1      -5.209   1.759  -8.218  0.00  0.00    +0.144 HD
ATOM     13  H   UNL     1      -4.470   2.304  -6.812  0.00  0.00    +0.144 HD
ENDBRANCH   8  11
ENDBRANCH   5   8
ENDBRANCH   1   2
BRANCH   1  14
ATOM     14  C   UNL     1      -2.050  -0.126  -1.234  0.00  0.00    -0.078 C 
BRANCH  14  15
ATOM     15  N   UNL     1      -1.376  -0.512   0.012  0.00  0.00    +0.381 N 
ATOM     16  H   UNL     1      -1.363  -1.518   0.090  0.00  0.00    -0.086 HD
ATOM     17  H   UNL     1      -1.873  -0.121   0.799  0.00  0.00    -0.086 HD
BRANCH  15  19
ATOM     18  C   UNL     1      -0.019   1.526   0.010  0.00  0.00    -0.013 C 
ATOM     19  C   UNL     1       0.002  -0.004   0.002  0.00  0.00    -0.072 C 
BRANCH  19  20
ATOM     20  C   UNL     1       0.742  -0.511   1.242  0.00  0.00    -0.025 C 
ATOM     21  C   UNL     1       0.026  -0.018   2.500  0.00  0.00    +0.002 C 
ATOM     22  C   UNL     1       0.766  -0.524   3.740  0.00  0.00    +0.000 C 
ATOM     23  C   UNL     1       2.201   0.005   3.729  0.00  0.00    +0.000 C 
ATOM     24  C   UNL     1       2.917  -0.488   2.470  0.00  0.00    +0.000 C 
ATOM     25  C   UNL     1       2.178   0.019   1.231  0.00  0.00    +0.002 C 
ENDBRANCH  19  20
ENDBRANCH  15  19
ENDBRANCH  14  15
ENDBRANCH   1  14
TORSDOF 7
