REMARK  Name = ZINC09634729
REMARK  7 active torsions:
REMARK  status: ('A' for Active; 'I' for Inactive)
REMARK    1  A    between atoms: C_11  and  C_13
REMARK    2  A    between atoms: C_13  and  C_14
REMARK    3  A    between atoms: C_14  and  C_15
REMARK    4  A    between atoms: C_15  and  O_17
REMARK    5  A    between atoms: O_17  and  C_18
REMARK    6  A    between atoms: C_18  and  C_19
REMARK    7  A    between atoms: N_21  and  C_22
REMARK                            x       y       z     vdW  Elec       q    Type
REMARK                         _______ _______ _______ _____ _____    ______ ____
ROOT
ATOM      1  O   UNL     1       3.445   7.635   0.010  0.00  0.00    -0.455 OA
ENDROOT
BRANCH   1   2
ATOM      2  C   UNL     1       3.440   6.292   0.010  0.00  0.00    +0.308 C 
ATOM      3  O   UNL     1       4.484   5.684   0.005  0.00  0.00    -0.251 OA
BRANCH   2   4
ATOM      4  C   UNL     1       2.132   5.543   0.016  0.00  0.00    +0.128 C 
BRANCH   4   5
ATOM      5  C   UNL     1       2.406   4.038   0.015  0.00  0.00    +0.085 C 
BRANCH   5  16
ATOM      6  C   UNL     1      -3.672   2.063   0.038  0.00  0.00    +0.001 A 
ATOM      7  C   UNL     1      -3.614   3.451   0.039  0.00  0.00    +0.002 A 
ATOM      8  C   UNL     1      -2.404   4.107   0.034  0.00  0.00    +0.028 A 
ATOM      9  C   UNL     1      -1.218   3.370   0.030  0.00  0.00    +0.078 A 
ATOM     10  C   UNL     1      -1.280   1.959   0.023  0.00  0.00    +0.065 A 
ATOM     11  C   UNL     1      -2.515   1.314   0.034  0.00  0.00    +0.015 A 
ATOM     12  C   UNL     1      -0.013   1.212   0.025  0.00  0.00    +0.259 A 
ATOM     13  O   UNL     1       0.004  -0.005   0.024  0.00  0.00    -0.267 OA
ATOM     14  N   UNL     1       1.133   1.931   0.020  0.00  0.00    -0.310 N 
ATOM     15  H   UNL     1       1.988   1.473   0.017  0.00  0.00    +0.170 HD
ATOM     16  C   UNL     1       1.099   3.289   0.020  0.00  0.00    +0.111 A 
ATOM     17  N   UNL     1      -0.004   3.975   0.025  0.00  0.00    -0.234 NA
ENDBRANCH   5  16
ENDBRANCH   4   5
ENDBRANCH   2   4
ENDBRANCH   1   2
BRANCH   1  18
ATOM     18  C   UNL     1       4.741   8.289   0.004  0.00  0.00    +0.328 C 
BRANCH  18  19
ATOM     19  C   UNL     1       4.548   9.784   0.005  0.00  0.00    +0.255 C 
ATOM     20  O   UNL     1       3.429  10.252   0.010  0.00  0.00    -0.272 OA
ATOM     21  N   UNL     1       5.620  10.601  -0.000  0.00  0.00    -0.283 N 
ATOM     22  H   UNL     1       6.514  10.229   0.064  0.00  0.00    +0.155 HD
BRANCH  21  23
ATOM     23  C   UNL     1       5.444  11.988  -0.097  0.00  0.00    +0.037 A 
ATOM     24  C   UNL     1       4.350  12.592   0.509  0.00  0.00    +0.027 A 
ATOM     25  C   UNL     1       4.175  13.959   0.414  0.00  0.00    +0.051 A 
ATOM     26  C   UNL     1       5.089  14.731  -0.285  0.00  0.00    +0.173 A 
ATOM     27  C   UNL     1       6.187  14.127  -0.893  0.00  0.00    +0.174 A 
ATOM     28  C   UNL     1       6.364  12.758  -0.794  0.00  0.00    +0.073 A 
ATOM     29  O   UNL     1       6.929  15.092  -1.511  0.00  0.00    -0.395 OA
ATOM     30  C   UNL     1       6.499  16.338  -0.931  0.00  0.00    +0.589 C 
ATOM     31  O   UNL     1       5.144  16.075  -0.521  0.00  0.00    -0.395 OA
ATOM     32  F   UNL     1       7.292  16.666   0.174  0.00  0.00    -0.125 F 
ATOM     33  F   UNL     1       6.538  17.363  -1.883  0.00  0.00    -0.125 F 
ENDBRANCH  21  23
ENDBRANCH  18  19
ENDBRANCH   1  18
TORSDOF 7
