REMARK  Name = ZINC38848004
REMARK  12 active torsions:
REMARK  status: ('A' for Active; 'I' for Inactive)
REMARK    1  A    between atoms: C_1  and  O_2
REMARK    2  A    between atoms: O_2  and  C_3
REMARK    3  A    between atoms: C_5  and  C_13
REMARK    4  A    between atoms: C_7  and  O_11
REMARK    5  A    between atoms: C_8  and  O_9
REMARK    6  A    between atoms: O_9  and  C_10
REMARK    7  A    between atoms: O_11  and  C_12
REMARK    8  A    between atoms: C_14  and  C_15
REMARK    9  A    between atoms: N_17  and  C_18
REMARK   10  A    between atoms: C_18  and  C_19
REMARK   11  A    between atoms: C_19  and  C_20
REMARK   12  A    between atoms: C_20  and  N_21
REMARK                            x       y       z     vdW  Elec       q    Type
REMARK                         _______ _______ _______ _____ _____    ______ ____
ROOT
ATOM      1  C   UNL     1      -7.284   0.372   0.053  0.00  0.00    +0.245 C 
ATOM      2  O   UNL     1      -6.258  -0.275  -0.048  0.00  0.00    -0.270 OA
ATOM      3  N   UNL     1      -8.470  -0.259   0.165  0.00  0.00    -0.247 N 
ATOM      4  C   UNL     1      -8.513  -1.639   0.267  0.00  0.00    +0.168 A 
ATOM      5  N   UNL     1      -9.559  -2.430   0.285  0.00  0.00    -0.221 NA
ATOM      6  C   UNL     1      -9.452  -3.774   0.391  0.00  0.00    +0.116 A 
ATOM      7  C   UNL     1     -10.492  -4.734   0.422  0.00  0.00    +0.152 A 
ATOM      8  C   UNL     1     -10.208  -6.072   0.535  0.00  0.00    +0.079 A 
ATOM      9  C   UNL     1      -8.899  -6.530   0.622  0.00  0.00    +0.127 A 
ATOM     10  C   UNL     1      -7.859  -5.618   0.594  0.00  0.00    +0.055 A 
ATOM     11  C   UNL     1      -8.135  -4.277   0.481  0.00  0.00    +0.046 A 
ATOM     12  S   UNL     1      -7.157  -2.796   0.400  0.00  0.00    -0.052 S 
ATOM     13  F   UNL     1      -8.646  -7.853   0.733  0.00  0.00    -0.205 F 
ATOM     14  F   UNL     1     -11.778  -4.328   0.341  0.00  0.00    -0.203 F 
ENDROOT
BRANCH   1  16
ATOM     15  C   UNL     1      -6.037   2.465   0.050  0.00  0.00    +0.013 C 
ATOM     16  C   UNL     1      -7.231   1.833   0.054  0.00  0.00    +0.068 C 
BRANCH  15  19
ATOM     17  C   UNL     1      -4.700   5.971   0.047  0.00  0.00    +0.166 A 
ATOM     18  C   UNL     1      -4.747   4.590   0.047  0.00  0.00    +0.057 A 
ATOM     19  C   UNL     1      -5.983   3.933   0.051  0.00  0.00    -0.018 A 
ATOM     20  C   UNL     1      -7.168   4.679   0.054  0.00  0.00    +0.057 A 
ATOM     21  C   UNL     1      -7.113   6.060   0.055  0.00  0.00    +0.166 A 
ATOM     22  C   UNL     1      -5.881   6.710   0.056  0.00  0.00    +0.204 A 
BRANCH  17  24
ATOM     23  C   UNL     1      -2.329   5.791   0.035  0.00  0.00    +0.277 C 
ATOM     24  O   UNL     1      -3.500   6.610   0.044  0.00  0.00    -0.491 OA
ENDBRANCH  17  24
BRANCH  22  25
ATOM     25  O   UNL     1      -5.831   8.068   0.062  0.00  0.00    -0.488 OA
ATOM     26  C   UNL     1      -5.814   8.721  -1.209  0.00  0.00    +0.277 C 
ENDBRANCH  22  25
BRANCH  21  27
ATOM     27  O   UNL     1      -8.264   6.785   0.058  0.00  0.00    -0.491 OA
ATOM     28  C   UNL     1      -9.491   6.054   0.061  0.00  0.00    +0.277 C 
ENDBRANCH  21  27
ENDBRANCH  15  19
ENDBRANCH   1  16
BRANCH   3  29
ATOM     29  C   UNL     1      -9.713   0.516   0.178  0.00  0.00    +0.117 C 
BRANCH  29  30
ATOM     30  C   UNL     1     -10.226   0.682  -1.254  0.00  0.00    +0.041 C 
BRANCH  30  31
ATOM     31  C   UNL     1     -11.525   1.491  -1.240  0.00  0.00    +0.124 C 
BRANCH  31  32
ATOM     32  N   UNL     1     -12.016   1.649  -2.611  0.00  0.00    -0.338 N 
ATOM     33  C   UNL     1     -11.704   2.666  -3.473  0.00  0.00    +0.104 A 
ATOM     34  C   UNL     1     -12.368   2.423  -4.619  0.00  0.00    +0.101 A 
ATOM     35  N   UNL     1     -13.066   1.288  -4.461  0.00  0.00    -0.352 N 
ATOM     36  C   UNL     1     -12.856   0.817  -3.262  0.00  0.00    +0.173 A 
ATOM     37  H   UNL     1     -13.635   0.881  -5.133  0.00  0.00    +0.166 HD
ENDBRANCH  31  32
ENDBRANCH  30  31
ENDBRANCH  29  30
ENDBRANCH   3  29
TORSDOF 9
