REMARK  Name = ZINC20410817
REMARK  12 active torsions:
REMARK  status: ('A' for Active; 'I' for Inactive)
REMARK    1  A    between atoms: C_1  and  C_2
REMARK    2  A    between atoms: C_2  and  O_3
REMARK    3  A    between atoms: O_3  and  C_4
REMARK    4  A    between atoms: C_9  and  N_10
REMARK    5  A    between atoms: C_14  and  C_15
REMARK    6  A    between atoms: C_16  and  C_26
REMARK    7  A    between atoms: C_20  and  O_21
REMARK    8  A    between atoms: O_21  and  C_22
REMARK    9  A    between atoms: C_26  and  C_27
REMARK   10  A    between atoms: C_27  and  N_28
REMARK   11  A    between atoms: N_28  and  C_29
REMARK   12  A    between atoms: C_30  and  C_32
REMARK                            x       y       z     vdW  Elec       q    Type
REMARK                         _______ _______ _______ _____ _____    ______ ____
ROOT
ATOM      1  N   UNL     1       7.800   3.152  -2.149  0.00  0.00    -0.185 N 
ATOM      2  C   UNL     1       6.763   3.814  -2.701  0.00  0.00    +0.264 C 
ATOM      3  O   UNL     1       6.405   3.578  -3.840  0.00  0.00    -0.269 OA
ATOM      4  C   UNL     1       6.070   4.830  -1.885  0.00  0.00    +0.102 C 
ATOM      5  C   UNL     1       4.995   5.546  -2.382  0.00  0.00    +0.030 C 
ATOM      6  C   UNL     1       6.577   5.051  -0.518  0.00  0.00    +0.276 C 
ATOM      7  O   UNL     1       6.061   5.874   0.214  0.00  0.00    -0.268 OA
ATOM      8  N   UNL     1       7.629   4.316  -0.102  0.00  0.00    -0.123 NA
ATOM      9  C   UNL     1       8.208   3.406  -0.898  0.00  0.00    +0.340 C 
ATOM     10  O   UNL     1       9.152   2.778  -0.462  0.00  0.00    -0.250 OA
ENDROOT
BRANCH   5  11
ATOM     11  C   UNL     1       4.438   5.206  -3.639  0.00  0.00    +0.025 A 
ATOM     12  C   UNL     1       4.454   6.134  -4.694  0.00  0.00    -0.032 A 
ATOM     13  C   UNL     1       3.918   5.805  -5.903  0.00  0.00    +0.054 A 
ATOM     14  C   UNL     1       3.349   4.550  -6.108  0.00  0.00    +0.170 A 
ATOM     15  C   UNL     1       3.322   3.616  -5.075  0.00  0.00    +0.208 A 
ATOM     16  C   UNL     1       3.869   3.933  -3.841  0.00  0.00    +0.173 A 
ATOM     17  O   UNL     1       2.717   2.478  -5.530  0.00  0.00    -0.449 OA
ATOM     18  C   UNL     1       2.743   2.580  -6.966  0.00  0.00    +0.467 C 
ATOM     19  O   UNL     1       2.761   3.999  -7.208  0.00  0.00    -0.452 OA
BRANCH  16  20
ATOM     20  O   UNL     1       3.852   3.025  -2.833  0.00  0.00    -0.491 OA
ATOM     21  C   UNL     1       2.666   2.961  -2.038  0.00  0.00    +0.277 C 
ENDBRANCH  16  20
BRANCH  12  22
ATOM     22  C   UNL     1       5.066   7.496  -4.488  0.00  0.00    +0.055 C 
BRANCH  22  23
ATOM     23  C   UNL     1       6.576   7.418  -4.727  0.00  0.00    +0.112 C 
BRANCH  23  24
ATOM     24  N   UNL     1       7.171   8.742  -4.526  0.00  0.00    -0.304 N 
ATOM     25  C   UNL     1       7.288   9.670  -5.654  0.00  0.00    +0.132 C 
ATOM     26  C   UNL     1       7.611   9.105  -3.305  0.00  0.00    +0.212 C 
ATOM     27  O   UNL     1       8.184  10.164  -3.158  0.00  0.00    -0.276 OA
ATOM     28  C   UNL     1       7.390   8.197  -2.124  0.00  0.00    +0.109 C 
ENDBRANCH  23  24
ENDBRANCH  22  23
ENDBRANCH  12  22
ENDBRANCH   5  11
BRANCH   1  34
ATOM     29  C   UNL     1       9.497   2.553  -3.770  0.00  0.00    +0.142 A 
ATOM     30  C   UNL     1      10.158   1.587  -4.513  0.00  0.00    +0.047 A 
ATOM     31  C   UNL     1       9.795   0.259  -4.399  0.00  0.00    +0.004 A 
ATOM     32  C   UNL     1       8.781  -0.113  -3.535  0.00  0.00    +0.002 A 
ATOM     33  C   UNL     1       8.117   0.843  -2.791  0.00  0.00    +0.028 A 
ATOM     34  C   UNL     1       8.472   2.179  -2.905  0.00  0.00    +0.087 A 
BRANCH  29  35
ATOM     35  O   UNL     1       9.849   3.861  -3.886  0.00  0.00    -0.490 OA
BRANCH  35  37
ATOM     36  C   UNL     1      11.162   5.678  -4.787  0.00  0.00    +0.048 C 
ATOM     37  C   UNL     1      10.910   4.170  -4.792  0.00  0.00    +0.226 C 
ENDBRANCH  35  37
ENDBRANCH  29  35
ENDBRANCH   1  34
TORSDOF 8
