REMARK  Name = ZINC12458916
REMARK  13 active torsions:
REMARK  status: ('A' for Active; 'I' for Inactive)
REMARK    1  A    between atoms: C_1  and  S_2
REMARK    2  A    between atoms: S_2  and  C_3
REMARK    3  A    between atoms: C_3  and  C_4
REMARK    4  A    between atoms: C_4  and  C_5
REMARK    5  A    between atoms: C_5  and  N_58
REMARK    6  A    between atoms: C_6  and  C_7
REMARK    7  A    between atoms: C_6  and  N_58
REMARK    8  A    between atoms: C_12  and  O_13
REMARK    9  A    between atoms: O_13  and  C_14
REMARK   10  A    between atoms: C_14  and  C_15
REMARK   11  A    between atoms: C_15  and  C_17
REMARK   12  A    between atoms: C_15  and  O_27
REMARK   13  A    between atoms: C_17  and  N_61
REMARK                            x       y       z     vdW  Elec       q    Type
REMARK                         _______ _______ _______ _____ _____    ______ ____
ROOT
ATOM      1  O   UNL     1      -2.810   2.526   0.590  0.00  0.00    -0.489 OA
ENDROOT
BRANCH   1   7
ATOM      2  C   UNL     1      -2.186   0.947  -1.076  0.00  0.00    -0.023 A 
ATOM      3  C   UNL     1      -2.519  -0.113  -1.898  0.00  0.00    +0.005 A 
ATOM      4  C   UNL     1      -3.793  -0.648  -1.855  0.00  0.00    +0.000 A 
ATOM      5  C   UNL     1      -4.739  -0.118  -0.998  0.00  0.00    +0.004 A 
ATOM      6  C   UNL     1      -4.413   0.944  -0.178  0.00  0.00    +0.046 A 
ATOM      7  C   UNL     1      -3.134   1.480  -0.215  0.00  0.00    +0.122 A 
BRANCH   2   8
ATOM      8  C   UNL     1      -0.795   1.527  -1.120  0.00  0.00    -0.043 C 
BRANCH   8   9
ATOM      9  N   UNL     1      -0.015   0.998   0.015  0.00  0.00    +0.382 N 
ATOM     10  H   UNL     1      -0.475   1.261   0.894  0.00  0.00    -0.085 HD
ATOM     11  H   UNL     1       0.032  -0.025  -0.054  0.00  0.00    -0.085 HD
BRANCH   9  12
ATOM     12  C   UNL     1       1.353   1.550  -0.003  0.00  0.00    -0.081 C 
BRANCH  12  13
ATOM     13  C   UNL     1       2.136   0.985   1.184  0.00  0.00    -0.008 C 
BRANCH  13  14
ATOM     14  C   UNL     1       3.557   1.552   1.173  0.00  0.00    +0.067 C 
BRANCH  14  16
ATOM     15  C   UNL     1       6.126   1.642   2.424  0.00  0.00    +0.084 C 
ATOM     16  S   UNL     1       4.487   0.882   2.579  0.00  0.00    -0.164 S 
ENDBRANCH  14  16
ENDBRANCH  13  14
ENDBRANCH  12  13
ENDBRANCH   9  12
ENDBRANCH   8   9
ENDBRANCH   2   8
ENDBRANCH   1   7
BRANCH   1  17
ATOM     17  C   UNL     1      -3.836   3.023   1.451  0.00  0.00    +0.258 C 
BRANCH  17  18
ATOM     18  C   UNL     1      -3.289   4.190   2.275  0.00  0.00    +0.135 C 
BRANCH  18  19
ATOM     19  O   UNL     1      -2.261   3.717   3.148  0.00  0.00    -0.390 OA
ATOM     20  H   UNL     1      -2.556   3.040   3.772  0.00  0.00    +0.210 HD
ENDBRANCH  18  19
BRANCH  18  21
ATOM     21  C   UNL     1      -4.419   4.803   3.105  0.00  0.00    -0.043 C 
BRANCH  21  31
ATOM     22  C   UNL     1      -4.912   6.489   4.775  0.00  0.00    -0.074 C 
ATOM     23  C   UNL     1      -4.220   7.476   5.715  0.00  0.00    +0.017 C 
ATOM     24  C   UNL     1      -3.464   8.505   4.913  0.00  0.00    -0.048 A 
ATOM     25  C   UNL     1      -3.068   9.675   5.544  0.00  0.00    +0.004 A 
ATOM     26  C   UNL     1      -2.370  10.641   4.848  0.00  0.00    +0.000 A 
ATOM     27  C   UNL     1      -2.064  10.441   3.514  0.00  0.00    +0.000 A 
ATOM     28  C   UNL     1      -2.459   9.278   2.885  0.00  0.00    +0.002 A 
ATOM     29  C   UNL     1      -3.161   8.306   3.583  0.00  0.00    -0.061 A 
ATOM     30  C   UNL     1      -3.574   7.056   2.852  0.00  0.00    -0.043 C 
ATOM     31  N   UNL     1      -3.902   5.993   3.818  0.00  0.00    +0.384 N 
ATOM     32  H   UNL     1      -3.053   5.732   4.331  0.00  0.00    -0.081 HD
ENDBRANCH  21  31
ENDBRANCH  18  21
ENDBRANCH  17  18
ENDBRANCH   1  17
TORSDOF 12
