REMARK  Name = ZINC12132442
REMARK  4 active torsions:
REMARK  status: ('A' for Active; 'I' for Inactive)
REMARK    1  A    between atoms: C_1  and  C_2
REMARK    2  A    between atoms: C_2  and  C_3
REMARK    3  A    between atoms: C_12  and  C_13
REMARK    4  A    between atoms: C_13  and  N_56
REMARK                            x       y       z     vdW  Elec       q    Type
REMARK                         _______ _______ _______ _____ _____    ______ ____
ROOT
ATOM      1  C   UNL     1      -2.763  -2.074  -1.435  0.00  0.00    -0.073 C 
ATOM      2  C   UNL     1      -3.535  -1.900  -2.744  0.00  0.00    +0.024 C 
ATOM      3  C   UNL     1      -2.573  -1.759  -3.894  0.00  0.00    +0.035 A 
ATOM      4  C   UNL     1      -1.262  -1.456  -3.706  0.00  0.00    +0.037 A 
ATOM      5  N   UNL     1      -0.453  -1.334  -4.763  0.00  0.00    -0.222 NA
ATOM      6  C   UNL     1      -0.891  -1.505  -5.992  0.00  0.00    +0.199 A 
ATOM      7  N   UNL     1      -2.193  -1.815  -6.238  0.00  0.00    -0.295 N 
ATOM      8  H   UNL     1      -2.501  -1.940  -7.149  0.00  0.00    +0.172 HD
ATOM      9  C   UNL     1      -3.051  -1.947  -5.206  0.00  0.00    +0.256 A 
ATOM     10  O   UNL     1      -4.222  -2.225  -5.405  0.00  0.00    -0.267 OA
ATOM     11  N   UNL     1      -0.022  -1.369  -7.041  0.00  0.00    -0.297 N 
ATOM     12  C   UNL     1      -0.085  -2.536  -7.933  0.00  0.00    +0.136 C 
ATOM     13  C   UNL     1       0.856  -2.316  -9.120  0.00  0.00    +0.179 C 
ATOM     14  O   UNL     1       2.180  -2.075  -8.635  0.00  0.00    -0.377 OA
ATOM     15  C   UNL     1       2.277  -0.945  -7.765  0.00  0.00    +0.179 C 
ATOM     16  C   UNL     1       1.351  -1.151  -6.563  0.00  0.00    +0.136 C 
ATOM     17  C   UNL     1      -0.680  -1.256  -2.331  0.00  0.00    -0.021 C 
ATOM     18  N   UNL     1      -1.756  -0.996  -1.361  0.00  0.00    +0.386 N 
ATOM     19  H   UNL     1      -2.206  -0.101  -1.590  0.00  0.00    -0.081 HD
ENDROOT
BRANCH  18  20
ATOM     20  C   UNL     1      -1.197  -0.917   0.008  0.00  0.00    -0.040 C 
BRANCH  20  30
ATOM     21  C   UNL     1       1.631   3.225   0.003  0.00  0.00    -0.024 A 
ATOM     22  C   UNL     1       0.611   4.153   0.018  0.00  0.00    +0.005 A 
ATOM     23  C   UNL     1      -0.716   3.746   0.028  0.00  0.00    +0.001 A 
ATOM     24  C   UNL     1      -1.034   2.417   0.030  0.00  0.00    +0.010 A 
ATOM     25  C   UNL     1      -0.018   1.461   0.010  0.00  0.00    +0.001 A 
ATOM     26  C   UNL     1       1.329   1.868  -0.001  0.00  0.00    +0.050 A 
ATOM     27  N   UNL     1       2.098   0.726  -0.014  0.00  0.00    -0.360 N 
ATOM     28  H   UNL     1       3.068   0.707  -0.024  0.00  0.00    +0.165 HD
ATOM     29  C   UNL     1       1.291  -0.379  -0.012  0.00  0.00    +0.085 A 
ATOM     30  C   UNL     1       0.002  -0.004   0.002  0.00  0.00    -0.039 A 
BRANCH  21  32
ATOM     31  C   UNL     1       3.577   3.723  -1.450  0.00  0.00    +0.009 C 
ATOM     32  C   UNL     1       3.067   3.681  -0.008  0.00  0.00    +0.034 C 
ENDBRANCH  21  32
ENDBRANCH  20  30
ENDBRANCH  18  20
TORSDOF 3
