REMARK  Name = ZINC01215702
REMARK  6 active torsions:
REMARK  status: ('A' for Active; 'I' for Inactive)
REMARK    1  A    between atoms: C_1  and  C_2
REMARK    2  A    between atoms: C_9  and  C_26
REMARK    3  A    between atoms: C_15  and  C_20
REMARK    4  A    between atoms: C_29  and  O_34
REMARK    5  A    between atoms: C_30  and  O_32
REMARK    6  A    between atoms: O_32  and  C_33
REMARK                            x       y       z     vdW  Elec       q    Type
REMARK                         _______ _______ _______ _____ _____    ______ ____
ROOT
ATOM      1  C   UNL     1      -5.133   3.468  -0.351  0.00  0.00    +0.044 C 
ATOM      2  C   UNL     1      -3.776   2.824  -0.234  0.00  0.00    -0.049 A 
ATOM      3  C   UNL     1      -3.463   2.080   0.888  0.00  0.00    +0.005 A 
ATOM      4  C   UNL     1      -2.228   1.462   0.993  0.00  0.00    +0.025 A 
ATOM      5  C   UNL     1      -1.311   1.600  -0.040  0.00  0.00    +0.052 A 
ATOM      6  C   UNL     1      -1.604   2.384  -1.140  0.00  0.00    +0.050 A 
ATOM      7  C   UNL     1      -2.851   2.981  -1.252  0.00  0.00    +0.028 A 
ATOM      8  N   UNL     1      -0.626   2.567  -2.113  0.00  0.00    -0.331 N 
ATOM      9  C   UNL     1       0.594   3.289  -1.819  0.00  0.00    +0.136 C 
ATOM     10  C   UNL     1       1.474   2.624  -0.785  0.00  0.00    +0.036 C 
ATOM     11  C   UNL     1       1.124   1.596   0.002  0.00  0.00    +0.017 C 
ATOM     12  N   UNL     1      -0.075   0.960  -0.023  0.00  0.00    -0.316 N 
ATOM     13  C   UNL     1       2.100   1.058   1.038  0.00  0.00    +0.059 C 
ATOM     14  C   UNL     1       3.530   1.178   0.512  0.00  0.00    +0.032 C 
ATOM     15  C   UNL     1       3.808   2.663   0.252  0.00  0.00    +0.088 C 
ATOM     16  C   UNL     1       2.769   3.187  -0.693  0.00  0.00    +0.163 C 
ATOM     17  O   UNL     1       3.049   4.130  -1.407  0.00  0.00    -0.292 OA
ATOM     18  H   UNL     1      -0.763   2.204  -3.002  0.00  0.00    +0.147 HD
ATOM     19  H   UNL     1      -0.070  -0.010  -0.035  0.00  0.00    +0.152 HD
ENDROOT
BRANCH  14  20
ATOM     20  C   UNL     1       4.497   0.650   1.540  0.00  0.00    -0.044 A 
ATOM     21  C   UNL     1       4.537   1.208   2.804  0.00  0.00    +0.004 A 
ATOM     22  C   UNL     1       5.421   0.721   3.748  0.00  0.00    +0.000 A 
ATOM     23  C   UNL     1       6.273  -0.319   3.425  0.00  0.00    +0.000 A 
ATOM     24  C   UNL     1       6.237  -0.874   2.160  0.00  0.00    +0.000 A 
ATOM     25  C   UNL     1       5.350  -0.389   1.217  0.00  0.00    +0.004 A 
ENDBRANCH  14  20
BRANCH   9  26
ATOM     26  C   UNL     1       0.229   4.665  -1.325  0.00  0.00    -0.019 A 
ATOM     27  C   UNL     1      -0.522   4.807  -0.173  0.00  0.00    +0.009 A 
ATOM     28  C   UNL     1      -0.859   6.067   0.286  0.00  0.00    +0.049 A 
ATOM     29  C   UNL     1      -0.444   7.191  -0.410  0.00  0.00    +0.158 A 
ATOM     30  C   UNL     1       0.312   7.048  -1.570  0.00  0.00    +0.162 A 
ATOM     31  C   UNL     1       0.651   5.782  -2.021  0.00  0.00    +0.055 A 
BRANCH  30  32
ATOM     32  O   UNL     1       0.722   8.148  -2.256  0.00  0.00    -0.491 OA
ATOM     33  C   UNL     1       1.494   7.925  -3.437  0.00  0.00    +0.277 C 
ENDBRANCH  30  32
BRANCH  29  34
ATOM     34  O   UNL     1      -0.774   8.431   0.040  0.00  0.00    -0.503 OA
ATOM     35  H   UNL     1      -0.128   8.813   0.650  0.00  0.00    +0.292 HD
ENDBRANCH  29  34
ENDBRANCH   9  26
TORSDOF 4
