REMARK  Name = ZINC63098797
REMARK  6 active torsions:
REMARK  status: ('A' for Active; 'I' for Inactive)
REMARK    1  A    between atoms: C_4  and  N_11
REMARK    2  A    between atoms: C_5  and  C_7
REMARK    3  A    between atoms: N_11  and  C_12
REMARK    4  A    between atoms: C_12  and  N_14
REMARK    5  A    between atoms: N_14  and  C_15
REMARK    6  A    between atoms: C_15  and  C_16
REMARK                            x       y       z     vdW  Elec       q    Type
REMARK                         _______ _______ _______ _____ _____    ______ ____
ROOT
ATOM      1  C   UNL     1       4.775   0.037  -0.146  0.00  0.00    +0.135 C 
ATOM      2  S   UNL     1       4.755   1.749  -0.137  0.00  0.00    -0.019 S 
ENDROOT
BRANCH   1   3
ATOM      3  N   UNL     1       3.621  -0.651  -0.036  0.00  0.00    -0.296 N 
ATOM      4  H   UNL     1       3.638  -1.618   0.038  0.00  0.00    +0.154 HD
BRANCH   3   8
ATOM      5  C   UNL     1      -0.018   1.376  -0.020  0.00  0.00    +0.001 A 
ATOM      6  C   UNL     1       0.958   1.718  -0.937  0.00  0.00    +0.002 A 
ATOM      7  C   UNL     1       2.166   1.049  -0.945  0.00  0.00    +0.024 A 
ATOM      8  C   UNL     1       2.399   0.030  -0.030  0.00  0.00    +0.044 A 
ATOM      9  C   UNL     1       1.417  -0.312   0.889  0.00  0.00    +0.076 A 
ATOM     10  C   UNL     1       0.211   0.362   0.892  0.00  0.00    +0.014 A 
BRANCH   9  11
ATOM     11  C   UNL     1       1.666  -1.417   1.883  0.00  0.00    +0.419 C 
ATOM     12  F   UNL     1       0.539  -1.575   2.697  0.00  0.00    -0.166 F 
ATOM     13  F   UNL     1       1.918  -2.611   1.199  0.00  0.00    -0.166 F 
ATOM     14  F   UNL     1       2.771  -1.091   2.676  0.00  0.00    -0.166 F 
ENDBRANCH   9  11
ENDBRANCH   3   8
ENDBRANCH   1   3
BRANCH   1  15
ATOM     15  N   UNL     1       5.945  -0.623  -0.263  0.00  0.00    -0.324 N 
ATOM     16  H   UNL     1       5.956  -1.593  -0.268  0.00  0.00    +0.148 HD
BRANCH  15  17
ATOM     17  C   UNL     1       7.199   0.125  -0.382  0.00  0.00    +0.132 C 
BRANCH  17  18
ATOM     18  C   UNL     1       8.368  -0.855  -0.499  0.00  0.00    +0.120 C 
ATOM     19  C   UNL     1       9.682  -0.109  -0.440  0.00  0.00    +0.009 C 
ATOM     20  C   UNL     1      10.336  -0.587   0.643  0.00  0.00    -0.003 A 
ATOM     21  C   UNL     1      11.643  -0.274   1.233  0.00  0.00    +0.029 A 
ATOM     22  C   UNL     1      12.035  -0.936   2.347  0.00  0.00    +0.042 A 
ATOM     23  C   UNL     1      11.225  -1.911   2.949  0.00  0.00    +0.022 A 
ATOM     24  C   UNL     1      10.013  -2.252   2.464  0.00  0.00    +0.027 A 
ATOM     25  C   UNL     1       9.501  -1.620   1.297  0.00  0.00    +0.043 A 
ATOM     26  N   UNL     1       8.373  -1.775   0.644  0.00  0.00    -0.376 N 
ATOM     27 CL   UNL     1      13.580  -0.569   3.048  0.00  0.00    -0.084 Cl
ATOM     28  H   UNL     1       7.663  -2.393   0.876  0.00  0.00    +0.160 HD
ENDBRANCH  17  18
ENDBRANCH  15  17
ENDBRANCH   1  15
TORSDOF 6
