REMARK  Name = ZINC46280471
REMARK  13 active torsions:
REMARK  status: ('A' for Active; 'I' for Inactive)
REMARK    1  A    between atoms: C_1  and  C_2
REMARK    2  A    between atoms: C_2  and  N_3
REMARK    3  A    between atoms: N_3  and  C_4
REMARK    4  A    between atoms: N_3  and  C_6
REMARK    5  A    between atoms: C_4  and  C_5
REMARK    6  A    between atoms: C_6  and  C_8
REMARK    7  A    between atoms: C_6  and  C_9
REMARK    8  A    between atoms: C_9  and  N_10
REMARK    9  A    between atoms: N_13  and  N_14
REMARK   10  A    between atoms: C_15  and  C_17
REMARK   11  A    between atoms: C_17  and  O_18
REMARK   12  A    between atoms: O_18  and  C_19
REMARK   13  A    between atoms: C_24  and  C_25
REMARK                            x       y       z     vdW  Elec       q    Type
REMARK                         _______ _______ _______ _____ _____    ______ ____
ROOT
ATOM      1  N   UNL     1      -2.922  -0.130   1.567  0.00  0.00    -0.230 N 
ATOM      2  C   UNL     1      -3.573   0.581   2.510  0.00  0.00    +0.267 C 
ATOM      3  O   UNL     1      -4.747   0.368   2.727  0.00  0.00    -0.271 OA
ATOM      4  H   UNL     1      -1.984   0.040   1.393  0.00  0.00    +0.173 HD
ENDROOT
BRANCH   1   8
ATOM      5  N   UNL     1      -1.647  -1.590  -0.345  0.00  0.00    -0.300 N 
ATOM      6  C   UNL     1      -2.952  -1.826  -0.103  0.00  0.00    +0.316 C 
ATOM      7  O   UNL     1      -3.543  -2.681  -0.736  0.00  0.00    -0.251 OA
ATOM      8  N   UNL     1      -3.603  -1.115   0.839  0.00  0.00    -0.218 N 
ATOM      9  H   UNL     1      -1.177  -0.908   0.159  0.00  0.00    +0.150 HD
ATOM     10  H   UNL     1      -4.542  -1.285   1.013  0.00  0.00    +0.174 HD
BRANCH   5  11
ATOM     11  C   UNL     1      -0.941  -2.363  -1.369  0.00  0.00    +0.090 C 
BRANCH  11  12
ATOM     12  C   UNL     1       0.540  -1.978  -1.367  0.00  0.00    -0.054 C 
ATOM     13  C   UNL     1       1.265  -2.734  -2.482  0.00  0.00    -0.012 C 
BRANCH  12  14
ATOM     14  N   UNL     1       0.671  -0.532  -1.590  0.00  0.00    +0.382 N 
ATOM     15  H   UNL     1       0.115  -0.035  -0.910  0.00  0.00    -0.081 HD
BRANCH  14  17
ATOM     16  C   UNL     1       2.523  -0.343   0.002  0.00  0.00    -0.017 C 
ATOM     17  C   UNL     1       2.080  -0.141  -1.449  0.00  0.00    -0.082 C 
ENDBRANCH  14  17
BRANCH  14  18
ATOM     18  C   UNL     1       0.204  -0.201  -2.942  0.00  0.00    -0.082 C 
ATOM     19  C   UNL     1       0.194   1.318  -3.121  0.00  0.00    -0.017 C 
ENDBRANCH  14  18
ENDBRANCH  12  14
ENDBRANCH  11  12
ENDBRANCH   5  11
ENDBRANCH   1   8
BRANCH   2  20
ATOM     20  C   UNL     1      -2.841   1.640   3.293  0.00  0.00    +0.326 C 
BRANCH  20  21
ATOM     21  O   UNL     1      -3.738   2.249   4.224  0.00  0.00    -0.482 OA
BRANCH  21  22
ATOM     22  C   UNL     1      -3.234   3.231   5.014  0.00  0.00    +0.129 A 
ATOM     23  C   UNL     1      -1.905   3.607   4.894  0.00  0.00    +0.046 A 
ATOM     24  C   UNL     1      -1.393   4.606   5.699  0.00  0.00    +0.004 A 
ATOM     25  C   UNL     1      -2.201   5.238   6.628  0.00  0.00    +0.001 A 
ATOM     26  C   UNL     1      -3.526   4.874   6.759  0.00  0.00    +0.012 A 
ATOM     27  C   UNL     1      -4.054   3.871   5.948  0.00  0.00    +0.024 A 
BRANCH  27  28
ATOM     28  C   UNL     1      -5.479   3.481   6.080  0.00  0.00    -0.014 A 
ATOM     29  C   UNL     1      -6.287   3.392   4.947  0.00  0.00    +0.008 A 
ATOM     30  C   UNL     1      -7.612   3.027   5.076  0.00  0.00    +0.001 A 
ATOM     31  C   UNL     1      -8.138   2.751   6.324  0.00  0.00    +0.000 A 
ATOM     32  C   UNL     1      -7.341   2.838   7.452  0.00  0.00    +0.001 A 
ATOM     33  C   UNL     1      -6.013   3.196   7.335  0.00  0.00    +0.008 A 
ENDBRANCH  27  28
ENDBRANCH  21  22
ENDBRANCH  20  21
ENDBRANCH   2  20
TORSDOF 10
