REMARK  Name = ZINC59876501
REMARK  9 active torsions:
REMARK  status: ('A' for Active; 'I' for Inactive)
REMARK    1  A    between atoms: C_4  and  C_8
REMARK    2  A    between atoms: C_8  and  C_10
REMARK    3  A    between atoms: C_8  and  N_30
REMARK    4  A    between atoms: C_10  and  N_11
REMARK    5  A    between atoms: C_12  and  C_14
REMARK    6  A    between atoms: C_14  and  C_15
REMARK    7  A    between atoms: C_15  and  C_16
REMARK    8  A    between atoms: C_16  and  C_17
REMARK    9  A    between atoms: C_17  and  C_18
REMARK                            x       y       z     vdW  Elec       q    Type
REMARK                         _______ _______ _______ _____ _____    ______ ____
ROOT
ATOM      1  N   UNL     1       5.266  -1.827   1.480  0.00  0.00    -0.317 N 
ATOM      2  C   UNL     1       5.793  -2.155   2.676  0.00  0.00    +0.213 C 
ATOM      3  O   UNL     1       5.242  -1.806   3.698  0.00  0.00    -0.276 OA
ATOM      4  H   UNL     1       5.707  -2.106   0.662  0.00  0.00    +0.149 HD
ENDROOT
BRANCH   1   5
ATOM      5  C   UNL     1       4.026  -1.049   1.415  0.00  0.00    +0.093 C 
BRANCH   5   6
ATOM      6  C   UNL     1       3.725  -0.691  -0.042  0.00  0.00    -0.016 C 
BRANCH   6  10
ATOM      7  C   UNL     1       6.735   1.966  -1.508  0.00  0.00    +0.004 A 
ATOM      8  C   UNL     1       6.659   0.674  -1.993  0.00  0.00    +0.038 A 
ATOM      9  C   UNL     1       5.684  -0.187  -1.519  0.00  0.00    +0.126 A 
ATOM     10  C   UNL     1       4.786   0.246  -0.558  0.00  0.00    -0.006 A 
ATOM     11  C   UNL     1       4.864   1.539  -0.074  0.00  0.00    +0.045 A 
ATOM     12  C   UNL     1       5.838   2.399  -0.549  0.00  0.00    +0.020 A 
ATOM     13 CL   UNL     1       3.738   2.083   1.130  0.00  0.00    -0.083 Cl
ATOM     14  F   UNL     1       5.609  -1.450  -1.994  0.00  0.00    -0.205 F 
ENDBRANCH   6  10
BRANCH   6  15
ATOM     15  N   UNL     1       2.412  -0.036  -0.124  0.00  0.00    +0.385 N 
ATOM     16  C   UNL     1       2.133   0.379  -1.522  0.00  0.00    -0.078 C 
ATOM     17  C   UNL     1       0.589   0.505  -1.553  0.00  0.00    -0.020 C 
ATOM     18  C   UNL     1       0.128  -0.666  -0.655  0.00  0.00    -0.020 C 
ATOM     19  C   UNL     1       1.342  -0.992   0.235  0.00  0.00    -0.078 C 
ATOM     20  H   UNL     1       2.383   0.765   0.490  0.00  0.00    -0.081 HD
ENDBRANCH   6  15
ENDBRANCH   5   6
ENDBRANCH   1   5
BRANCH   2  21
ATOM     21  C   UNL     1       7.068  -2.955   2.743  0.00  0.00    +0.096 C 
BRANCH  21  22
ATOM     22  C   UNL     1       7.447  -3.189   4.207  0.00  0.00    +0.009 C 
BRANCH  22  23
ATOM     23  C   UNL     1       8.742  -4.002   4.275  0.00  0.00    +0.002 C 
BRANCH  23  24
ATOM     24  C   UNL     1       9.121  -4.236   5.739  0.00  0.00    +0.016 C 
BRANCH  24  25
ATOM     25  C   UNL     1      10.415  -5.048   5.807  0.00  0.00    +0.069 C 
ATOM     26  C   UNL     1      10.855  -5.269   7.270  0.00  0.00    +0.108 C 
ATOM     27  C   UNL     1      11.405  -6.672   7.542  0.00  0.00    +0.105 C 
ATOM     28  C   UNL     1      11.402  -7.591   6.302  0.00  0.00    +0.093 C 
ATOM     29  S   UNL     1      10.139  -6.783   5.242  0.00  0.00    -0.154 S 
ATOM     30  N   UNL     1      10.483  -7.229   8.545  0.00  0.00    -0.294 N 
ATOM     31  C   UNL     1       9.542  -6.318   8.827  0.00  0.00    +0.300 C 
ATOM     32  O   UNL     1       8.648  -6.513   9.627  0.00  0.00    -0.253 OA
ATOM     33  N   UNL     1       9.675  -5.181   8.145  0.00  0.00    -0.294 N 
ATOM     34  H   UNL     1      10.547  -8.114   8.939  0.00  0.00    +0.151 HD
ATOM     35  H   UNL     1       9.084  -4.415   8.219  0.00  0.00    +0.151 HD
ENDBRANCH  24  25
ENDBRANCH  23  24
ENDBRANCH  22  23
ENDBRANCH  21  22
ENDBRANCH   2  21
TORSDOF 9
