REMARK  Name = ZINC39685842
REMARK  13 active torsions:
REMARK  status: ('A' for Active; 'I' for Inactive)
REMARK    1  A    between atoms: C_1  and  C_2
REMARK    2  A    between atoms: C_2  and  C_3
REMARK    3  A    between atoms: C_2  and  C_4
REMARK    4  A    between atoms: C_4  and  C_6
REMARK    5  A    between atoms: C_4  and  N_13
REMARK    6  A    between atoms: N_8  and  C_9
REMARK    7  A    between atoms: C_9  and  C_10
REMARK    8  A    between atoms: C_9  and  C_11
REMARK    9  A    between atoms: C_9  and  C_12
REMARK   10  A    between atoms: C_14  and  C_16
REMARK   11  A    between atoms: C_27  and  C_29
REMARK   12  A    between atoms: C_34  and  O_35
REMARK   13  A    between atoms: O_35  and  C_36
REMARK                            x       y       z     vdW  Elec       q    Type
REMARK                         _______ _______ _______ _____ _____    ______ ____
ROOT
ATOM      1  C   UNL     1      -0.926  -3.947   1.188  0.00  0.00    +0.100 C 
ATOM      2  C   UNL     1      -2.262  -4.154   0.439  0.00  0.00    +0.121 C 
ATOM      3  N   UNL     1      -2.964  -5.207   1.209  0.00  0.00    -0.296 N 
ATOM      4  C   UNL     1      -2.673  -4.883   2.626  0.00  0.00    +0.115 C 
ATOM      5  C   UNL     1      -1.200  -4.426   2.623  0.00  0.00    -0.004 C 
ATOM      6  C   UNL     1      -1.003  -3.280   3.610  0.00  0.00    -0.010 C 
ATOM      7  C   UNL     1      -1.224  -3.795   5.035  0.00  0.00    -0.082 C 
ATOM      8  N   UNL     1      -0.276  -4.879   5.318  0.00  0.00    +0.379 N 
ATOM      9  C   UNL     1      -0.534  -6.016   4.426  0.00  0.00    -0.082 C 
ATOM     10  C   UNL     1      -0.284  -5.595   2.975  0.00  0.00    -0.010 C 
ATOM     11  C   UNL     1      -3.701  -6.229   0.730  0.00  0.00    +0.252 C 
ATOM     12  O   UNL     1      -4.301  -6.957   1.496  0.00  0.00    -0.270 OA
ATOM     13  H   UNL     1       0.666  -4.548   5.174  0.00  0.00    -0.086 HD
ATOM     14  H   UNL     1      -0.382  -5.176   6.277  0.00  0.00    -0.086 HD
ENDROOT
BRANCH  11  15
ATOM     15  C   UNL     1      -3.780  -6.462  -0.725  0.00  0.00    +0.099 A 
ATOM     16  C   UNL     1      -3.751  -5.388  -1.621  0.00  0.00    +0.020 A 
ATOM     17  C   UNL     1      -3.828  -5.660  -2.976  0.00  0.00    +0.021 A 
ATOM     18  C   UNL     1      -3.930  -6.973  -3.401  0.00  0.00    +0.114 A 
ATOM     19  N   UNL     1      -3.956  -7.970  -2.539  0.00  0.00    -0.220 NA
ATOM     20  C   UNL     1      -3.880  -7.765  -1.234  0.00  0.00    +0.233 A 
BRANCH  20  21
ATOM     21  O   UNL     1      -3.904  -8.820  -0.385  0.00  0.00    -0.437 OA
BRANCH  21  22
ATOM     22  C   UNL     1      -3.894 -10.070  -0.919  0.00  0.00    +0.130 A 
ATOM     23  C   UNL     1      -5.058 -10.823  -0.948  0.00  0.00    +0.046 A 
ATOM     24  C   UNL     1      -5.045 -12.093  -1.492  0.00  0.00    +0.004 A 
ATOM     25  C   UNL     1      -3.872 -12.613  -2.007  0.00  0.00    +0.000 A 
ATOM     26  C   UNL     1      -2.710 -11.864  -1.980  0.00  0.00    +0.004 A 
ATOM     27  C   UNL     1      -2.720 -10.592  -1.442  0.00  0.00    +0.046 A 
ENDBRANCH  21  22
ENDBRANCH  20  21
ENDBRANCH  11  15
BRANCH   1  29
ATOM     28  N   UNL     1      -1.452  -1.554   1.523  0.00  0.00    -0.303 N 
ATOM     29  C   UNL     1      -0.543  -2.490   1.186  0.00  0.00    +0.219 C 
ATOM     30  O   UNL     1       0.583  -2.159   0.880  0.00  0.00    -0.275 OA
ATOM     31  H   UNL     1      -2.330  -1.821   1.836  0.00  0.00    +0.149 HD
BRANCH  28  32
ATOM     32  C   UNL     1      -1.113  -0.132   1.418  0.00  0.00    +0.161 C 
BRANCH  32  33
ATOM     33  C   UNL     1      -1.968   0.660   2.373  0.00  0.00    +0.234 C 
ATOM     34  O   UNL     1      -2.765   0.091   3.089  0.00  0.00    -0.274 OA
ATOM     35  N   UNL     1      -1.848   2.001   2.432  0.00  0.00    -0.309 N 
ATOM     36  H   UNL     1      -1.163   2.450   1.913  0.00  0.00    +0.149 HD
BRANCH  35  37
ATOM     37  C   UNL     1      -2.753   2.781   3.279  0.00  0.00    +0.026 C 
ATOM     38  C   UNL     1      -2.603   2.333   4.734  0.00  0.00    +0.031 C 
ATOM     39  C   UNL     1      -2.406   4.267   3.164  0.00  0.00    +0.031 C 
ATOM     40  C   UNL     1      -4.197   2.559   2.823  0.00  0.00    +0.031 C 
ENDBRANCH  35  37
ENDBRANCH  32  33
BRANCH  32  42
ATOM     41  C   UNL     1      -0.520  -0.477  -0.984  0.00  0.00    +0.009 C 
ATOM     42  C   UNL     1      -1.366   0.348  -0.012  0.00  0.00    +0.012 C 
ATOM     43  C   UNL     1      -2.848   0.177  -0.353  0.00  0.00    +0.009 C 
ENDBRANCH  32  42
ENDBRANCH  28  32
ENDBRANCH   1  29
TORSDOF 8
