REMARK  Name = ZINC02371437
REMARK  6 active torsions:
REMARK  status: ('A' for Active; 'I' for Inactive)
REMARK    1  A    between atoms: C_1  and  C_2
REMARK    2  A    between atoms: C_2  and  C_3
REMARK    3  A    between atoms: C_2  and  N_4
REMARK    4  A    between atoms: C_8  and  C_9
REMARK    5  A    between atoms: C_10  and  N_20
REMARK    6  A    between atoms: C_23  and  C_26
REMARK                            x       y       z     vdW  Elec       q    Type
REMARK                         _______ _______ _______ _____ _____    ______ ____
ROOT
ATOM      1  C   UNL     1      -0.497   1.503   3.614  0.00  0.00    +0.081 A 
ATOM      2  C   UNL     1      -0.105   1.064   2.327  0.00  0.00    +0.136 A 
ATOM      3  N   UNL     1       0.785   0.089   2.213  0.00  0.00    -0.214 NA
ATOM      4  C   UNL     1       1.333  -0.487   3.283  0.00  0.00    +0.142 A 
ATOM      5  C   UNL     1       2.278  -1.513   3.099  0.00  0.00    +0.047 A 
ATOM      6  C   UNL     1       2.841  -2.110   4.187  0.00  0.00    +0.005 A 
ATOM      7  C   UNL     1       2.472  -1.694   5.474  0.00  0.00    +0.018 A 
ATOM      8  C   UNL     1       1.562  -0.707   5.631  0.00  0.00    +0.096 A 
ATOM      9  N   UNL     1       0.993  -0.102   4.550  0.00  0.00    -0.268 N 
ATOM     10  C   UNL     1       0.088   0.882   4.743  0.00  0.00    +0.267 A 
ATOM     11  O   UNL     1      -0.219   1.229   5.870  0.00  0.00    -0.267 OA
ENDROOT
BRANCH   1  16
ATOM     12  N   UNL     1      -4.862   3.006   2.522  0.00  0.00    -0.253 N 
ATOM     13  C   UNL     1      -3.748   3.362   3.138  0.00  0.00    +0.259 C 
ATOM     14  O   UNL     1      -3.632   4.470   3.632  0.00  0.00    -0.269 OA
ATOM     15  C   UNL     1      -2.686   2.417   3.202  0.00  0.00    +0.077 C 
ATOM     16  C   UNL     1      -1.449   2.537   3.768  0.00  0.00    +0.037 C 
ATOM     17  S   UNL     1      -3.414   1.026   2.347  0.00  0.00    -0.061 S 
ATOM     18  C   UNL     1      -4.994   1.774   1.980  0.00  0.00    +0.121 C 
ATOM     19  S   UNL     1      -6.334   1.103   1.154  0.00  0.00    -0.027 S 
BRANCH  12  21
ATOM     20  C   UNL     1      -6.296   4.226   0.961  0.00  0.00    +0.028 C 
ATOM     21  C   UNL     1      -5.973   3.957   2.432  0.00  0.00    +0.077 C 
ATOM     22  C   UNL     1      -7.205   3.369   3.126  0.00  0.00    +0.028 C 
ENDBRANCH  12  21
ENDBRANCH   1  16
BRANCH   2  23
ATOM     23  N   UNL     1      -0.650   1.642   1.201  0.00  0.00    -0.314 N 
ATOM     24  C   UNL     1      -0.826   0.649   0.133  0.00  0.00    +0.107 C 
ATOM     25  C   UNL     1      -1.564   1.291  -1.044  0.00  0.00    +0.031 C 
ATOM     26  C   UNL     1      -0.754   2.484  -1.559  0.00  0.00    +0.078 C 
ATOM     27  C   UNL     1      -0.543   3.480  -0.414  0.00  0.00    +0.031 C 
ATOM     28  C   UNL     1       0.165   2.775   0.745  0.00  0.00    +0.107 C 
BRANCH  26  29
ATOM     29  C   UNL     1      -1.504   3.157  -2.679  0.00  0.00    +0.214 C 
ATOM     30  O   UNL     1      -2.581   2.725  -3.033  0.00  0.00    -0.276 OA
ATOM     31  N   UNL     1      -0.978   4.238  -3.289  0.00  0.00    -0.329 N 
ATOM     32  H   UNL     1      -0.117   4.583  -3.006  0.00  0.00    +0.145 HD
ATOM     33  H   UNL     1      -1.461   4.671  -4.010  0.00  0.00    +0.145 HD
ENDBRANCH  26  29
ENDBRANCH   2  23
TORSDOF 4
