REMARK  Name = ZINC16193503
REMARK  2 active torsions:
REMARK  status: ('A' for Active; 'I' for Inactive)
REMARK    1  A    between atoms: C_5  and  C_7
REMARK    2  A    between atoms: C_22  and  N_27
REMARK                            x       y       z     vdW  Elec       q    Type
REMARK                         _______ _______ _______ _____ _____    ______ ____
ROOT
ATOM      1  C   UNL     1       2.451   3.939  -0.000  0.00  0.00    +0.106 C 
ATOM      2  C   UNL     1       2.997   3.999  -1.415  0.00  0.00    +0.025 C 
ATOM      3  C   UNL     1       4.491   4.444  -1.372  0.00  0.00    -0.005 C 
ATOM      4  C   UNL     1       5.036   4.091  -2.791  0.00  0.00    +0.004 C 
ATOM      5  C   UNL     1       4.333   5.092  -3.736  0.00  0.00    +0.004 C 
ATOM      6  C   UNL     1       3.439   5.986  -2.774  0.00  0.00    -0.003 C 
ATOM      7  C   UNL     1       4.332   6.002  -1.483  0.00  0.00    +0.008 C 
ATOM      8  C   UNL     1       2.299   5.021  -2.314  0.00  0.00    +0.029 C 
ATOM      9  C   UNL     1       1.246   5.839  -1.633  0.00  0.00    -0.021 A 
ATOM     10  C   UNL     1       0.275   6.476  -2.388  0.00  0.00    +0.038 A 
ATOM     11  C   UNL     1      -0.653   7.297  -1.777  0.00  0.00    +0.127 A 
ATOM     12  C   UNL     1      -0.627   7.493  -0.408  0.00  0.00    +0.034 A 
ATOM     13  C   UNL     1       0.327   6.848   0.358  0.00  0.00    +0.025 A 
ATOM     14  C   UNL     1       1.245   6.017  -0.255  0.00  0.00    +0.031 A 
ATOM     15  N   UNL     1       2.209   5.313   0.485  0.00  0.00    -0.336 N 
ATOM     16  H   UNL     1       2.674   5.695   1.246  0.00  0.00    +0.147 HD
ENDROOT
BRANCH   1  21
ATOM     17  C   UNL     1      -0.678   2.184  -1.175  0.00  0.00    +0.000 A 
ATOM     18  C   UNL     1      -1.216   1.747   0.021  0.00  0.00    +0.001 A 
ATOM     19  C   UNL     1      -0.572   2.026   1.212  0.00  0.00    +0.020 A 
ATOM     20  C   UNL     1       0.616   2.735   1.205  0.00  0.00    +0.046 A 
ATOM     21  C   UNL     1       1.157   3.167   0.007  0.00  0.00    -0.009 A 
ATOM     22  C   UNL     1       0.509   2.892  -1.182  0.00  0.00    +0.007 A 
ATOM     23 CL   UNL     1       1.429   3.081   2.700  0.00  0.00    -0.083 Cl
ENDBRANCH   1  21
BRANCH  11  24
ATOM     24  N   UNL     1      -1.685   7.973  -2.595  0.00  0.00    +0.056 N 
ATOM     25  O   UNL     1      -2.506   8.698  -2.062  0.00  0.00    -0.126 OA
ATOM     26  O   UNL     1      -1.713   7.804  -3.801  0.00  0.00    -0.126 OA
ENDBRANCH  11  24
TORSDOF 2
