REMARK  Name = ZINC04014349
REMARK  8 active torsions:
REMARK  status: ('A' for Active; 'I' for Inactive)
REMARK    1  A    between atoms: C_1  and  C_2
REMARK    2  A    between atoms: C_2  and  C_32
REMARK    3  A    between atoms: C_6  and  C_24
REMARK    4  A    between atoms: C_8  and  C_22
REMARK    5  A    between atoms: C_9  and  S_11
REMARK    6  A    between atoms: S_11  and  C_12
REMARK    7  A    between atoms: C_12  and  C_13
REMARK    8  A    between atoms: N_15  and  C_16
REMARK                            x       y       z     vdW  Elec       q    Type
REMARK                         _______ _______ _______ _____ _____    ______ ____
ROOT
ATOM      1  C   UNL     1      -0.041   1.538   0.063  0.00  0.00    +0.011 C 
ATOM      2  C   UNL     1      -0.016   0.008   0.046  0.00  0.00    -0.023 C 
ATOM      3  C   UNL     1      -1.448  -0.531   0.075  0.00  0.00    +0.058 C 
ATOM      4  C   UNL     1      -1.420  -2.039   0.108  0.00  0.00    +0.017 C 
ATOM      5  C   UNL     1      -0.405  -2.704   0.700  0.00  0.00    +0.027 C 
ATOM      6  C   UNL     1      -0.379  -4.211   0.732  0.00  0.00    +0.132 C 
ATOM      7  C   UNL     1      -1.737  -4.782   0.448  0.00  0.00    +0.072 C 
ATOM      8  C   UNL     1      -2.706  -4.030  -0.139  0.00  0.00    +0.080 C 
ATOM      9  N   UNL     1      -2.454  -2.720  -0.475  0.00  0.00    -0.311 N 
ATOM     10  C   UNL     1       0.661  -2.011   1.301  0.00  0.00    +0.162 C 
ATOM     11  O   UNL     1       1.550  -2.639   1.841  0.00  0.00    -0.292 OA
ATOM     12  C   UNL     1       0.722  -0.508   1.286  0.00  0.00    +0.086 C 
ATOM     13  C   UNL     1       0.697  -0.480  -1.217  0.00  0.00    +0.011 C 
ATOM     14  H   UNL     1      -3.014  -2.276  -1.131  0.00  0.00    +0.152 HD
ENDROOT
BRANCH   6  15
ATOM     15  C   UNL     1       0.593  -4.710  -0.306  0.00  0.00    +0.117 A 
ATOM     16  C   UNL     1       1.681  -5.464  -0.066  0.00  0.00    +0.045 A 
ATOM     17  C   UNL     1       2.299  -5.700  -1.316  0.00  0.00    +0.041 A 
ATOM     18  C   UNL     1       1.553  -5.075  -2.244  0.00  0.00    +0.195 A 
ATOM     19  O   UNL     1       0.517  -4.482  -1.627  0.00  0.00    -0.467 OA
ENDBRANCH   6  15
BRANCH   7  20
ATOM     20  C   UNL     1      -2.016  -6.142   0.800  0.00  0.00    +0.098 C 
ATOM     21  N   UNL     1      -2.238  -7.221   1.079  0.00  0.00    -0.191 NA
ENDBRANCH   7  20
BRANCH   8  22
ATOM     22  S   UNL     1      -4.287  -4.735  -0.469  0.00  0.00    -0.100 S 
BRANCH  22  23
ATOM     23  C   UNL     1      -5.219  -3.381  -1.237  0.00  0.00    +0.171 C 
BRANCH  23  24
ATOM     24  C   UNL     1      -6.609  -3.856  -1.574  0.00  0.00    +0.227 C 
ATOM     25  O   UNL     1      -6.939  -4.995  -1.321  0.00  0.00    -0.275 OA
ATOM     26  N   UNL     1      -7.486  -3.014  -2.156  0.00  0.00    -0.285 N 
ATOM     27  H   UNL     1      -7.246  -2.085  -2.297  0.00  0.00    +0.155 HD
BRANCH  26  28
ATOM     28  C   UNL     1      -8.743  -3.481  -2.557  0.00  0.00    +0.033 A 
ATOM     29  C   UNL     1      -9.337  -2.980  -3.708  0.00  0.00    +0.023 A 
ATOM     30  C   UNL     1     -10.577  -3.442  -4.101  0.00  0.00    +0.002 A 
ATOM     31  C   UNL     1     -11.228  -4.404  -3.350  0.00  0.00    +0.000 A 
ATOM     32  C   UNL     1     -10.640  -4.904  -2.203  0.00  0.00    +0.002 A 
ATOM     33  C   UNL     1      -9.397  -4.450  -1.808  0.00  0.00    +0.023 A 
ENDBRANCH  26  28
ENDBRANCH  23  24
ENDBRANCH  22  23
ENDBRANCH   8  22
TORSDOF 6
