REMARK  Name = ZINC39465854
REMARK  6 active torsions:
REMARK  status: ('A' for Active; 'I' for Inactive)
REMARK    1  A    between atoms: C_4  and  C_7
REMARK    2  A    between atoms: C_7  and  C_8
REMARK    3  A    between atoms: C_13  and  O_14
REMARK    4  A    between atoms: P_19  and  S_25
REMARK    5  A    between atoms: S_25  and  O_28
REMARK    6  A    between atoms: O_28  and  C_29
REMARK                            x       y       z     vdW  Elec       q    Type
REMARK                         _______ _______ _______ _____ _____    ______ ____
ROOT
ATOM      1  C   UNL     1       4.164  -0.959   1.377  0.00  0.00    -0.001 A 
ATOM      2  C   UNL     1       3.974  -2.198   1.955  0.00  0.00    +0.011 A 
ATOM      3  C   UNL     1       4.389  -2.436   3.257  0.00  0.00    -0.041 A 
ATOM      4  C   UNL     1       4.996  -1.433   3.982  0.00  0.00    -0.020 A 
ATOM      5  C   UNL     1       5.189  -0.188   3.404  0.00  0.00    +0.051 A 
ATOM      6  C   UNL     1       4.780   0.051   2.102  0.00  0.00    +0.121 A 
ATOM      7  C   UNL     1       5.463  -1.640   5.399  0.00  0.00    +0.130 C 
ATOM      8  C   UNL     1       6.838  -0.989   5.573  0.00  0.00    +0.195 C 
ATOM      9  O   UNL     1       7.224  -1.088   6.958  0.00  0.00    -0.296 OA
ATOM     10  P   UNL     1       7.125  -2.540   7.684  0.00  0.00    +0.458 P 
ATOM     11  O   UNL     1       8.312  -3.359   7.352  0.00  0.00    -0.243 OA
ATOM     12  N   UNL     1       5.757  -3.246   7.081  0.00  0.00    -0.158 NA
ATOM     13  N   UNL     1       5.528  -3.063   5.732  0.00  0.00    -0.224 NA
ATOM     14  C   UNL     1       4.282  -3.748   5.357  0.00  0.00    +0.108 C 
ATOM     15  C   UNL     1       4.162  -3.805   3.845  0.00  0.00    +0.052 C 
ATOM     16  H   UNL     1       5.160  -3.764   7.644  0.00  0.00    +0.152 HD
ENDROOT
BRANCH  10  17
ATOM     17  S   UNL     1       6.966  -2.301   9.784  0.00  0.00    +0.211 S 
ATOM     18  O   UNL     1       5.869  -1.426  10.011  0.00  0.00    -0.126 OA
ATOM     19  O   UNL     1       7.030  -3.603  10.347  0.00  0.00    -0.126 OA
BRANCH  17  20
ATOM     20  O   UNL     1       8.214  -1.564  10.249  0.00  0.00    -0.339 OA
BRANCH  20  21
ATOM     21  C   UNL     1       8.215  -0.237   9.953  0.00  0.00    +0.157 A 
ATOM     22  C   UNL     1       8.741   0.205   8.747  0.00  0.00    +0.048 A 
ATOM     23  C   UNL     1       8.740   1.554   8.448  0.00  0.00    +0.004 A 
ATOM     24  C   UNL     1       8.217   2.463   9.350  0.00  0.00    +0.000 A 
ATOM     25  C   UNL     1       7.693   2.024  10.552  0.00  0.00    +0.004 A 
ATOM     26  C   UNL     1       7.685   0.676  10.852  0.00  0.00    +0.048 A 
ENDBRANCH  20  21
ENDBRANCH  17  20
ENDBRANCH  10  17
BRANCH   6  27
ATOM     27  O   UNL     1       4.976   1.272   1.538  0.00  0.00    -0.506 OA
ATOM     28  H   UNL     1       4.245   1.890   1.675  0.00  0.00    +0.292 HD
ENDBRANCH   6  27
BRANCH   1  29
ATOM     29  C   UNL     1       3.711  -0.707  -0.038  0.00  0.00    +0.074 C 
BRANCH  29  33
ATOM     30  C   UNL     1      -0.017   1.378   0.010  0.00  0.00    +0.000 A 
ATOM     31  C   UNL     1       1.171   2.086   0.002  0.00  0.00    +0.000 A 
ATOM     32  C   UNL     1       2.377   1.411  -0.013  0.00  0.00    +0.004 A 
ATOM     33  C   UNL     1       2.396   0.029  -0.020  0.00  0.00    -0.043 A 
ATOM     34  C   UNL     1       1.208  -0.679  -0.012  0.00  0.00    +0.004 A 
ATOM     35  C   UNL     1       0.002  -0.004   0.002  0.00  0.00    +0.000 A 
ENDBRANCH  29  33
ENDBRANCH   1  29
TORSDOF 6
