REMARK  Name = ZINC57595076
REMARK  5 active torsions:
REMARK  status: ('A' for Active; 'I' for Inactive)
REMARK    1  A    between atoms: C_12  and  C_13
REMARK    2  A    between atoms: C_13  and  C_15
REMARK    3  A    between atoms: C_13  and  N_26
REMARK    4  A    between atoms: N_19  and  C_20
REMARK    5  A    between atoms: C_29  and  O_32
REMARK                            x       y       z     vdW  Elec       q    Type
REMARK                         _______ _______ _______ _____ _____    ______ ____
ROOT
ATOM      1  C   UNL     1      -1.294  -0.772   0.011  0.00  0.00    +0.162 C 
ENDROOT
BRANCH   1  13
ATOM      2  C   UNL     1      -0.016   1.353   0.009  0.00  0.00    +0.021 A 
ATOM      3  C   UNL     1       1.258   2.070   0.001  0.00  0.00    +0.003 A 
ATOM      4  C   UNL     1       1.300   3.470   0.007  0.00  0.00    +0.059 A 
ATOM      5  C   UNL     1       2.515   4.117  -0.002  0.00  0.00    +0.167 A 
ATOM      6  C   UNL     1       3.707   3.381  -0.016  0.00  0.00    +0.168 A 
ATOM      7  C   UNL     1       3.675   1.998  -0.022  0.00  0.00    +0.075 A 
ATOM      8  C   UNL     1       2.457   1.331  -0.014  0.00  0.00    +0.053 A 
ATOM      9  N   UNL     1       2.406  -0.049  -0.020  0.00  0.00    -0.322 N 
ATOM     10  H   UNL     1       3.232  -0.557  -0.030  0.00  0.00    +0.169 HD
ATOM     11  C   UNL     1       1.229  -0.698  -0.013  0.00  0.00    +0.254 A 
ATOM     12  O   UNL     1       1.223  -1.917  -0.019  0.00  0.00    -0.268 OA
ATOM     13  C   UNL     1       0.002  -0.004   0.002  0.00  0.00    +0.042 A 
ATOM     14  O   UNL     1       4.755   4.255  -0.022  0.00  0.00    -0.453 OA
ATOM     15  C   UNL     1       4.200   5.520  -0.426  0.00  0.00    +0.466 C 
ATOM     16  O   UNL     1       2.827   5.447   0.001  0.00  0.00    -0.453 OA
ENDBRANCH   1  13
BRANCH   1  17
ATOM     17  N   UNL     1      -1.322  -1.699  -1.129  0.00  0.00    -0.289 NA
ATOM     18  C   UNL     1      -1.113  -0.984  -2.394  0.00  0.00    +0.088 C 
ATOM     19  C   UNL     1      -1.002  -1.993  -3.540  0.00  0.00    +0.047 C 
ATOM     20  C   UNL     1      -2.287  -2.824  -3.607  0.00  0.00    +0.117 C 
ATOM     21  C   UNL     1      -2.506  -3.520  -2.261  0.00  0.00    +0.047 C 
ATOM     22  C   UNL     1      -2.573  -2.467  -1.153  0.00  0.00    +0.088 C 
BRANCH  20  23
ATOM     23  O   UNL     1      -2.167  -3.806  -4.638  0.00  0.00    -0.392 OA
ATOM     24  H   UNL     1      -2.946  -4.370  -4.737  0.00  0.00    +0.210 HD
ENDBRANCH  20  23
ENDBRANCH   1  17
BRANCH   1  25
ATOM     25  C   UNL     1      -1.408  -1.552   1.295  0.00  0.00    +0.173 A 
ATOM     26  N   UNL     1      -0.756  -2.646   1.607  0.00  0.00    -0.111 NA
ATOM     27  N   UNL     1      -1.126  -3.007   2.787  0.00  0.00    -0.023 NA
ATOM     28  N   UNL     1      -1.997  -2.171   3.236  0.00  0.00    -0.044 NA
ATOM     29  N   UNL     1      -2.193  -1.257   2.348  0.00  0.00    -0.224 N 
BRANCH  29  30
ATOM     30  C   UNL     1      -3.103  -0.114   2.461  0.00  0.00    +0.111 C 
ATOM     31  C   UNL     1      -2.691   0.748   3.656  0.00  0.00    +0.027 C 
ATOM     32  C   UNL     1      -3.641   1.942   3.775  0.00  0.00    +0.002 C 
ATOM     33  C   UNL     1      -5.071   1.437   3.978  0.00  0.00    +0.000 C 
ATOM     34  C   UNL     1      -5.483   0.575   2.784  0.00  0.00    +0.002 C 
ATOM     35  C   UNL     1      -4.533  -0.619   2.665  0.00  0.00    +0.027 C 
ENDBRANCH  29  30
ENDBRANCH   1  25
TORSDOF 5
