REMARK  Name = ZINC03070896
REMARK  10 active torsions:
REMARK  status: ('A' for Active; 'I' for Inactive)
REMARK    1  A    between atoms: C_4  and  C_7
REMARK    2  A    between atoms: C_7  and  C_9
REMARK    3  A    between atoms: C_7  and  N_20
REMARK    4  A    between atoms: C_18  and  O_19
REMARK    5  A    between atoms: C_21  and  C_23
REMARK    6  A    between atoms: C_23  and  C_24
REMARK    7  A    between atoms: C_24  and  C_25
REMARK    8  A    between atoms: C_25  and  C_26
REMARK    9  A    between atoms: C_26  and  C_27
REMARK   10  A    between atoms: C_27  and  N_28
REMARK                            x       y       z     vdW  Elec       q    Type
REMARK                         _______ _______ _______ _____ _____    ______ ____
ROOT
ATOM      1  N   UNL     1       3.521  -1.705   0.909  0.00  0.00    -0.304 N 
ATOM      2  C   UNL     1       3.770  -1.448   2.209  0.00  0.00    +0.214 C 
ATOM      3  O   UNL     1       4.088  -0.331   2.556  0.00  0.00    -0.276 OA
ATOM      4  H   UNL     1       3.266  -2.598   0.631  0.00  0.00    +0.150 HD
ENDROOT
BRANCH   1   5
ATOM      5  C   UNL     1       3.635  -0.633  -0.084  0.00  0.00    +0.138 C 
BRANCH   5   6
ATOM      6  C   UNL     1       3.919  -1.231  -1.437  0.00  0.00    +0.026 A 
ATOM      7  C   UNL     1       4.933  -0.694  -2.248  0.00  0.00    -0.009 A 
ATOM      8  C   UNL     1       5.701   0.403  -1.822  0.00  0.00    +0.009 A 
ATOM      9  C   UNL     1       6.676   0.898  -2.633  0.00  0.00    +0.001 A 
ATOM     10  C   UNL     1       6.925   0.332  -3.883  0.00  0.00    +0.001 A 
ATOM     11  C   UNL     1       6.201  -0.731  -4.327  0.00  0.00    +0.008 A 
ATOM     12  C   UNL     1       5.187  -1.270  -3.518  0.00  0.00    -0.017 A 
ATOM     13  C   UNL     1       4.420  -2.368  -3.945  0.00  0.00    +0.012 A 
ATOM     14  C   UNL     1       3.445  -2.865  -3.137  0.00  0.00    +0.046 A 
ATOM     15  C   UNL     1       3.196  -2.302  -1.881  0.00  0.00    +0.123 A 
BRANCH  15  16
ATOM     16  O   UNL     1       2.220  -2.824  -1.094  0.00  0.00    -0.506 OA
ATOM     17  H   UNL     1       1.342  -2.452  -1.257  0.00  0.00    +0.292 HD
ENDBRANCH  15  16
ENDBRANCH   5   6
BRANCH   5  21
ATOM     18  C   UNL     1      -0.028   1.560  -0.239  0.00  0.00    +0.000 A 
ATOM     19  C   UNL     1       1.173   2.201  -0.484  0.00  0.00    +0.000 A 
ATOM     20  C   UNL     1       2.358   1.491  -0.433  0.00  0.00    +0.006 A 
ATOM     21  C   UNL     1       2.343   0.141  -0.138  0.00  0.00    -0.023 A 
ATOM     22  C   UNL     1       1.143  -0.500   0.108  0.00  0.00    +0.006 A 
ATOM     23  C   UNL     1      -0.043   0.210   0.056  0.00  0.00    +0.000 A 
ENDBRANCH   5  21
ENDBRANCH   1   5
BRANCH   2  24
ATOM     24  C   UNL     1       3.653  -2.550   3.230  0.00  0.00    +0.096 C 
BRANCH  24  25
ATOM     25  C   UNL     1       3.986  -1.998   4.617  0.00  0.00    +0.009 C 
BRANCH  25  26
ATOM     26  C   UNL     1       3.867  -3.116   5.654  0.00  0.00    +0.002 C 
BRANCH  26  27
ATOM     27  C   UNL     1       4.200  -2.563   7.041  0.00  0.00    +0.019 C 
BRANCH  27  28
ATOM     28  C   UNL     1       4.081  -3.682   8.078  0.00  0.00    +0.117 C 
BRANCH  28  29
ATOM     29  N   UNL     1       4.400  -3.153   9.406  0.00  0.00    -0.234 N 
ATOM     30  C   UNL     1       5.635  -3.129   9.940  0.00  0.00    +0.254 C 
ATOM     31  O   UNL     1       6.646  -3.537   9.405  0.00  0.00    -0.270 OA
ATOM     32  C   UNL     1       5.555  -2.523  11.286  0.00  0.00    +0.049 A 
ATOM     33  C   UNL     1       6.481  -2.244  12.278  0.00  0.00    +0.014 A 
ATOM     34  C   UNL     1       6.064  -1.653  13.460  0.00  0.00    +0.001 A 
ATOM     35  C   UNL     1       4.731  -1.339  13.655  0.00  0.00    +0.001 A 
ATOM     36  C   UNL     1       3.794  -1.612  12.671  0.00  0.00    +0.014 A 
ATOM     37  C   UNL     1       4.196  -2.203  11.485  0.00  0.00    +0.049 A 
ATOM     38  C   UNL     1       3.498  -2.621  10.251  0.00  0.00    +0.254 C 
ATOM     39  O   UNL     1       2.308  -2.506  10.036  0.00  0.00    -0.270 OA
ENDBRANCH  28  29
ENDBRANCH  27  28
ENDBRANCH  26  27
ENDBRANCH  25  26
ENDBRANCH  24  25
ENDBRANCH   2  24
TORSDOF 10
