REMARK  Name = ZINC31118449
REMARK  11 active torsions:
REMARK  status: ('A' for Active; 'I' for Inactive)
REMARK    1  A    between atoms: C_1  and  C_2
REMARK    2  A    between atoms: C_4  and  C_15
REMARK    3  A    between atoms: C_6  and  C_12
REMARK    4  A    between atoms: N_9  and  C_11
REMARK    5  A    between atoms: N_17  and  C_18
REMARK    6  A    between atoms: C_18  and  C_19
REMARK    7  A    between atoms: C_19  and  C_20
REMARK    8  A    between atoms: C_20  and  C_21
REMARK    9  A    between atoms: C_22  and  C_34
REMARK   10  A    between atoms: C_23  and  N_33
REMARK   11  A    between atoms: N_24  and  C_26
REMARK                            x       y       z     vdW  Elec       q    Type
REMARK                         _______ _______ _______ _____ _____    ______ ____
ROOT
ATOM      1  C   UNL     1      -1.263   1.683  -0.823  0.00  0.00    +0.105 C 
ENDROOT
BRANCH   1   4
ATOM      2  C   UNL     1       1.152   1.647  -0.501  0.00  0.00    +0.245 C 
ATOM      3  O   UNL     1       1.119   2.850  -0.336  0.00  0.00    -0.270 OA
ATOM      4  N   UNL     1       0.014   0.968  -0.748  0.00  0.00    -0.311 N 
ATOM      5  H   UNL     1       0.044  -0.121  -0.893  0.00  0.00    +0.149 HD
BRANCH   2   9
ATOM      6  C   UNL     1       3.033   4.146  -0.275  0.00  0.00    +0.068 C 
ATOM      7  C   UNL     1       4.004   2.994  -0.244  0.00  0.00    +0.070 A 
ATOM      8  C   UNL     1       3.663   1.627  -0.317  0.00  0.00    +0.054 A 
ATOM      9  C   UNL     1       2.442   0.926  -0.432  0.00  0.00    +0.051 A 
ATOM     10  C   UNL     1       2.491  -0.465  -0.471  0.00  0.00    +0.037 A 
ATOM     11  C   UNL     1       3.721  -1.104  -0.410  0.00  0.00    +0.047 A 
ATOM     12  N   UNL     1       4.844  -0.429  -0.303  0.00  0.00    -0.232 NA
ATOM     13  C   UNL     1       4.866   0.895  -0.255  0.00  0.00    +0.159 A 
ATOM     14  N   UNL     1       5.874   1.818  -0.148  0.00  0.00    -0.249 N 
ATOM     15  N   UNL     1       5.299   3.094  -0.146  0.00  0.00    -0.174 NA
ATOM     16  C   UNL     1       7.305   1.520  -0.053  0.00  0.00    +0.174 C 
BRANCH  11  17
ATOM     17  C   UNL     1       3.770  -2.609  -0.459  0.00  0.00    +0.038 C 
ATOM     18  C   UNL     1       2.466  -3.367  -0.201  0.00  0.00    +0.010 C 
ATOM     19  C   UNL     1       3.574  -3.366   0.856  0.00  0.00    +0.010 C 
ENDBRANCH  11  17
ENDBRANCH   2   9
ENDBRANCH   1   4
BRANCH   1  20
ATOM     20  C   UNL     1      -2.387   0.688  -1.119  0.00  0.00    +0.025 C 
BRANCH  20  21
ATOM     21  C   UNL     1      -3.721   1.435  -1.197  0.00  0.00    +0.060 C 
BRANCH  21  22
ATOM     22  C   UNL     1      -4.828   0.455  -1.488  0.00  0.00    +0.083 A 
ATOM     23  C   UNL     1      -5.592  -0.243  -0.523  0.00  0.00    +0.114 A 
ATOM     24  C   UNL     1      -6.500  -1.036  -1.220  0.00  0.00    +0.138 A 
ATOM     25  N   UNL     1      -6.287  -0.821  -2.538  0.00  0.00    -0.217 N 
ATOM     26  N   UNL     1      -5.251   0.109  -2.672  0.00  0.00    -0.168 NA
BRANCH  25  27
ATOM     27  C   UNL     1      -6.989  -1.425  -3.591  0.00  0.00    +0.068 A 
ATOM     28  C   UNL     1      -7.420  -2.739  -3.475  0.00  0.00    +0.030 A 
ATOM     29  C   UNL     1      -8.115  -3.331  -4.512  0.00  0.00    +0.040 A 
ATOM     30  C   UNL     1      -8.373  -2.616  -5.670  0.00  0.00    +0.124 A 
ATOM     31  C   UNL     1      -7.939  -1.307  -5.789  0.00  0.00    +0.040 A 
ATOM     32  C   UNL     1      -7.248  -0.710  -4.753  0.00  0.00    +0.030 A 
ATOM     33  F   UNL     1      -9.047  -3.199  -6.686  0.00  0.00    -0.205 F 
ENDBRANCH  25  27
BRANCH  24  34
ATOM     34  N   UNL     1      -7.442  -1.883  -0.668  0.00  0.00    -0.342 N 
ATOM     35  H   UNL     1      -8.110  -2.464  -1.321  0.00  0.00    +0.144 HD
ATOM     36  H   UNL     1      -7.525  -1.977   0.425  0.00  0.00    +0.144 HD
ENDBRANCH  24  34
BRANCH  23  37
ATOM     37  C   UNL     1      -5.458  -0.151   0.899  0.00  0.00    +0.104 C 
ATOM     38  N   UNL     1      -5.351  -0.077   2.028  0.00  0.00    -0.191 NA
ENDBRANCH  23  37
ENDBRANCH  21  22
ENDBRANCH  20  21
ENDBRANCH   1  20
TORSDOF 9
