REMARK  Name = ZINC35813953
REMARK  5 active torsions:
REMARK  status: ('A' for Active; 'I' for Inactive)
REMARK    1  A    between atoms: C_4  and  N_7
REMARK    2  A    between atoms: C_12  and  C_25
REMARK    3  A    between atoms: C_16  and  C_18
REMARK    4  A    between atoms: N_27  and  C_28
REMARK    5  A    between atoms: C_28  and  C_29
REMARK                            x       y       z     vdW  Elec       q    Type
REMARK                         _______ _______ _______ _____ _____    ______ ____
ROOT
ATOM      1  N   UNL     1       3.454  -0.981   1.463  0.00  0.00    -0.269 N 
ATOM      2  C   UNL     1       3.553  -2.255   1.037  0.00  0.00    +0.307 C 
ATOM      3  O   UNL     1       2.557  -2.946   0.948  0.00  0.00    -0.252 OA
ATOM      4  N   UNL     1       4.758  -2.764   0.710  0.00  0.00    -0.278 N 
ATOM      5  C   UNL     1       5.984  -1.983   0.924  0.00  0.00    +0.122 C 
ATOM      6  C   UNL     1       6.763  -1.918  -0.393  0.00  0.00    +0.092 C 
ATOM      7  C   UNL     1       7.005  -3.339  -0.909  0.00  0.00    +0.016 C 
ATOM      8  C   UNL     1       5.662  -4.022  -1.176  0.00  0.00    +0.028 C 
ATOM      9  C   UNL     1       4.870  -4.113   0.138  0.00  0.00    +0.108 C 
ATOM     10  H   UNL     1       4.234  -0.405   1.459  0.00  0.00    +0.156 HD
ENDROOT
BRANCH   9  11
ATOM     11  C   UNL     1       3.494  -4.662  -0.137  0.00  0.00    -0.027 A 
ATOM     12  C   UNL     1       2.644  -3.995  -1.000  0.00  0.00    +0.008 A 
ATOM     13  C   UNL     1       1.382  -4.498  -1.253  0.00  0.00    +0.038 A 
ATOM     14  C   UNL     1       0.968  -5.669  -0.641  0.00  0.00    +0.123 A 
ATOM     15  C   UNL     1       1.820  -6.336   0.223  0.00  0.00    +0.038 A 
ATOM     16  C   UNL     1       3.084  -5.834   0.470  0.00  0.00    +0.008 A 
ATOM     17  F   UNL     1      -0.266  -6.161  -0.887  0.00  0.00    -0.205 F 
ENDBRANCH   9  11
BRANCH   1  21
ATOM     18  C   UNL     1      -0.209   0.489   2.799  0.00  0.00    +0.000 A 
ATOM     19  C   UNL     1       0.963   0.907   3.402  0.00  0.00    +0.002 A 
ATOM     20  C   UNL     1       2.179   0.421   2.961  0.00  0.00    +0.023 A 
ATOM     21  C   UNL     1       2.223  -0.487   1.912  0.00  0.00    +0.035 A 
ATOM     22  C   UNL     1       1.044  -0.905   1.309  0.00  0.00    +0.023 A 
ATOM     23  C   UNL     1      -0.168  -0.416   1.754  0.00  0.00    +0.002 A 
ENDBRANCH   1  21
BRANCH   6  24
ATOM     24  C   UNL     1       8.086  -1.235  -0.161  0.00  0.00    +0.218 C 
ATOM     25  O   UNL     1       9.121  -1.824  -0.389  0.00  0.00    -0.275 OA
ATOM     26  N   UNL     1       8.119   0.032   0.299  0.00  0.00    -0.311 N 
ATOM     27  H   UNL     1       7.291   0.503   0.481  0.00  0.00    +0.149 HD
BRANCH  26  28
ATOM     28  C   UNL     1       9.405   0.696   0.524  0.00  0.00    +0.142 C 
BRANCH  28  29
ATOM     29  C   UNL     1       9.165   2.094   1.035  0.00  0.00    +0.005 A 
ATOM     30  C   UNL     1       9.241   3.169   0.170  0.00  0.00    +0.008 A 
ATOM     31  C   UNL     1       9.021   4.451   0.638  0.00  0.00    +0.000 A 
ATOM     32  C   UNL     1       8.726   4.659   1.973  0.00  0.00    +0.003 A 
ATOM     33  C   UNL     1       8.649   3.586   2.840  0.00  0.00    +0.038 A 
ATOM     34  C   UNL     1       8.864   2.301   2.370  0.00  0.00    +0.128 A 
ATOM     35  F   UNL     1       8.784   1.250   3.216  0.00  0.00    -0.205 F 
ENDBRANCH  28  29
ENDBRANCH  26  28
ENDBRANCH   6  24
TORSDOF 5
