REMARK  Name = ZINC09535622
REMARK  16 active torsions:
REMARK  status: ('A' for Active; 'I' for Inactive)
REMARK    1  A    between atoms: C_1  and  C_2
REMARK    2  A    between atoms: C_2  and  C_3
REMARK    3  A    between atoms: C_3  and  C_4
REMARK    4  A    between atoms: C_4  and  N_5
REMARK    5  A    between atoms: N_5  and  C_6
REMARK    6  A    between atoms: C_7  and  N_19
REMARK    7  A    between atoms: N_8  and  C_15
REMARK    8  A    between atoms: C_15  and  C_16
REMARK    9  A    between atoms: C_16  and  C_17
REMARK   10  A    between atoms: C_16  and  C_18
REMARK   11  A    between atoms: C_20  and  C_22
REMARK   12  A    between atoms: C_22  and  N_72
REMARK   13  A    between atoms: C_23  and  C_25
REMARK   14  A    between atoms: C_23  and  C_32
REMARK   15  A    between atoms: C_23  and  N_72
REMARK   16  A    between atoms: C_25  and  C_26
REMARK                            x       y       z     vdW  Elec       q    Type
REMARK                         _______ _______ _______ _____ _____    ______ ____
ROOT
ATOM      1  N   UNL     1      -1.365  -0.513   0.014  0.00  0.00    -0.266 N 
ATOM      2  C   UNL     1      -1.864  -0.845   1.223  0.00  0.00    +0.203 C 
ATOM      3  O   UNL     1      -2.957  -1.366   1.306  0.00  0.00    -0.277 OA
ENDROOT
BRANCH   1   4
ATOM      4  C   UNL     1      -2.157  -0.668  -1.143  0.00  0.00    +0.140 A 
ATOM      5  C   UNL     1      -1.809  -1.585  -2.114  0.00  0.00    +0.127 A 
ATOM      6  N   UNL     1      -2.602  -1.714  -3.231  0.00  0.00    -0.280 N 
ATOM      7  C   UNL     1      -3.703  -0.956  -3.375  0.00  0.00    +0.331 A 
ATOM      8  O   UNL     1      -4.391  -1.085  -4.369  0.00  0.00    -0.246 OA
ATOM      9  N   UNL     1      -4.058  -0.057  -2.440  0.00  0.00    -0.273 N 
ATOM     10  H   UNL     1      -4.879   0.498  -2.573  0.00  0.00    +0.173 HD
ATOM     11  C   UNL     1      -3.319   0.105  -1.324  0.00  0.00    +0.277 A 
ATOM     12  O   UNL     1      -3.652   0.919  -0.480  0.00  0.00    -0.266 OA
BRANCH   5  13
ATOM     13  N   UNL     1      -0.684  -2.360  -1.967  0.00  0.00    -0.343 N 
ATOM     14  H   UNL     1      -0.090  -2.215  -1.214  0.00  0.00    +0.144 HD
ATOM     15  H   UNL     1      -0.483  -3.052  -2.616  0.00  0.00    +0.144 HD
ENDBRANCH   5  13
BRANCH   6  16
ATOM     16  C   UNL     1      -2.244  -2.683  -4.269  0.00  0.00    +0.131 C 
BRANCH  16  17
ATOM     17  C   UNL     1      -2.902  -4.029  -3.959  0.00  0.00    +0.003 C 
ATOM     18  C   UNL     1      -4.423  -3.885  -4.046  0.00  0.00    +0.009 C 
ATOM     19  C   UNL     1      -2.430  -5.074  -4.973  0.00  0.00    +0.009 C 
ENDBRANCH  16  17
ENDBRANCH   6  16
ENDBRANCH   1   4
BRANCH   1  20
ATOM     20  C   UNL     1      -0.000   0.009  -0.097  0.00  0.00    +0.114 C 
BRANCH  20  21
ATOM     21  C   UNL     1      -0.037   1.538  -0.091  0.00  0.00    +0.019 C 
BRANCH  21  23
ATOM     22  C   UNL     1       1.351   3.612  -0.202  0.00  0.00    +0.004 C 
ATOM     23  C   UNL     1       1.388   2.083  -0.207  0.00  0.00    -0.002 C 
ENDBRANCH  21  23
ENDBRANCH  20  21
ENDBRANCH   1  20
BRANCH   2  24
ATOM     24  C   UNL     1      -1.065  -0.567   2.470  0.00  0.00    +0.016 C 
BRANCH  24  25
ATOM     25  N   UNL     1      -1.831  -1.022   3.646  0.00  0.00    +0.389 N 
ATOM     26  H   UNL     1      -2.011  -2.030   3.564  0.00  0.00    -0.084 HD
ATOM     27  H   UNL     1      -2.724  -0.517   3.685  0.00  0.00    -0.084 HD
BRANCH  25  28
ATOM     28  C   UNL     1      -1.071  -0.763   4.883  0.00  0.00    -0.036 C 
BRANCH  28  29
ATOM     29  C   UNL     1      -1.324   0.650   5.342  0.00  0.00    -0.061 A 
ATOM     30  C   UNL     1      -2.591   1.193   5.241  0.00  0.00    +0.002 A 
ATOM     31  C   UNL     1      -2.824   2.488   5.666  0.00  0.00    +0.000 A 
ATOM     32  C   UNL     1      -1.788   3.243   6.183  0.00  0.00    +0.000 A 
ATOM     33  C   UNL     1      -0.520   2.702   6.279  0.00  0.00    +0.000 A 
ATOM     34  C   UNL     1      -0.288   1.405   5.859  0.00  0.00    +0.002 A 
ENDBRANCH  28  29
BRANCH  28  35
ATOM     35  C   UNL     1      -1.528  -1.740   5.968  0.00  0.00    +0.024 C 
BRANCH  35  36
ATOM     36  C   UNL     1      -1.164  -3.146   5.563  0.00  0.00    -0.049 A 
ATOM     37  C   UNL     1      -2.056  -3.908   4.832  0.00  0.00    +0.003 A 
ATOM     38  C   UNL     1      -1.720  -5.195   4.457  0.00  0.00    +0.000 A 
ATOM     39  C   UNL     1      -0.496  -5.724   4.821  0.00  0.00    +0.000 A 
ATOM     40  C   UNL     1       0.394  -4.964   5.557  0.00  0.00    +0.000 A 
ATOM     41  C   UNL     1       0.060  -3.675   5.928  0.00  0.00    +0.003 A 
ENDBRANCH  35  36
ENDBRANCH  28  35
ENDBRANCH  25  28
ENDBRANCH  24  25
ENDBRANCH   2  24
TORSDOF 13
