REMARK  Name = ZINC25452923
REMARK  4 active torsions:
REMARK  status: ('A' for Active; 'I' for Inactive)
REMARK    1  A    between atoms: C_1  and  N_2
REMARK    2  A    between atoms: N_2  and  C_3
REMARK    3  A    between atoms: N_2  and  C_15
REMARK    4  A    between atoms: C_3  and  N_4
REMARK                            x       y       z     vdW  Elec       q    Type
REMARK                         _______ _______ _______ _____ _____    ______ ____
ROOT
ATOM      1  C   UNL     1       2.181   0.962   1.026  0.00  0.00    +0.205 C 
ENDROOT
BRANCH   1   2
ATOM      2  N   UNL     1       3.592   1.029   0.638  0.00  0.00    -0.211 N 
ATOM      3  C   UNL     1       4.223   0.087  -0.095  0.00  0.00    +0.248 C 
ATOM      4  O   UNL     1       3.751  -0.937  -0.541  0.00  0.00    -0.273 OA
ATOM      5  C   UNL     1       5.639   0.582  -0.243  0.00  0.00    +0.113 C 
ATOM      6  C   UNL     1       6.634  -0.422   0.355  0.00  0.00    +0.035 C 
ATOM      7  C   UNL     1       7.155  -1.212  -0.874  0.00  0.00    +0.003 C 
ATOM      8  C   UNL     1       7.244  -0.121  -1.971  0.00  0.00    +0.003 C 
ATOM      9  C   UNL     1       6.013   0.777  -1.714  0.00  0.00    +0.035 C 
ATOM     10  N   UNL     1       5.663   1.850   0.488  0.00  0.00    -0.285 N 
ATOM     11  C   UNL     1       4.417   2.030   0.971  0.00  0.00    +0.310 C 
ATOM     12  O   UNL     1       4.081   2.993   1.632  0.00  0.00    -0.252 OA
ATOM     13  H   UNL     1       6.594   2.434   0.546  0.00  0.00    +0.151 HD
ENDBRANCH   1   2
BRANCH   1  15
ATOM     14  C   UNL     1       1.362   3.073   0.167  0.00  0.00    +0.107 C 
ATOM     15  N   UNL     1       1.358   1.613  -0.002  0.00  0.00    -0.282 NA
BRANCH  15  16
ATOM     16  C   UNL     1      -0.013   1.086   0.008  0.00  0.00    +0.089 C 
ATOM     17  C   UNL     1      -0.800   1.617  -1.208  0.00  0.00    +0.028 C 
ATOM     18  C   UNL     1      -1.478   2.882  -0.635  0.00  0.00    +0.037 C 
ATOM     19  C   UNL     1      -1.604   2.627   0.851  0.00  0.00    -0.043 A 
ATOM     20  C   UNL     1      -0.762   1.594   1.221  0.00  0.00    -0.027 A 
ATOM     21  C   UNL     1      -0.711   1.187   2.543  0.00  0.00    +0.005 A 
ATOM     22  C   UNL     1      -1.499   1.808   3.493  0.00  0.00    +0.000 A 
ATOM     23  C   UNL     1      -2.341   2.840   3.123  0.00  0.00    +0.000 A 
ATOM     24  C   UNL     1      -2.393   3.248   1.804  0.00  0.00    +0.004 A 
ENDBRANCH  15  16
ENDBRANCH   1  15
TORSDOF 3
