REMARK  Name = ZINC63114508
REMARK  6 active torsions:
REMARK  status: ('A' for Active; 'I' for Inactive)
REMARK    1  A    between atoms: C_1  and  C_2
REMARK    2  A    between atoms: C_2  and  N_3
REMARK    3  A    between atoms: N_3  and  C_4
REMARK    4  A    between atoms: N_3  and  S_11
REMARK    5  A    between atoms: C_7  and  N_10
REMARK    6  A    between atoms: S_11  and  C_14
REMARK                            x       y       z     vdW  Elec       q    Type
REMARK                         _______ _______ _______ _____ _____    ______ ____
ROOT
ATOM      1  N   UNL     1       0.391  -0.319  -1.157  0.00  0.00    -0.203 N 
ENDROOT
BRANCH   1   2
ATOM      2  C   UNL     1       1.697  -0.543  -0.706  0.00  0.00    +0.051 A 
ATOM      3  C   UNL     1       2.720  -0.760  -1.620  0.00  0.00    +0.026 A 
ATOM      4  C   UNL     1       4.008  -0.981  -1.175  0.00  0.00    +0.024 A 
ATOM      5  C   UNL     1       4.281  -0.987   0.187  0.00  0.00    +0.025 A 
ATOM      6  C   UNL     1       3.259  -0.770   1.101  0.00  0.00    +0.024 A 
ATOM      7  C   UNL     1       1.971  -0.544   0.655  0.00  0.00    +0.026 A 
BRANCH   5   8
ATOM      8  N   UNL     1       5.587  -1.212   0.638  0.00  0.00    -0.358 N 
ATOM      9  H   UNL     1       6.302  -1.364  -0.000  0.00  0.00    +0.142 HD
ATOM     10  H   UNL     1       5.778  -1.217   1.589  0.00  0.00    +0.142 HD
ENDBRANCH   5   8
ENDBRANCH   1   2
BRANCH   1  11
ATOM     11  S   UNL     1      -0.351  -1.434  -2.131  0.00  0.00    +0.076 S 
ATOM     12  O   UNL     1      -1.243  -0.712  -2.969  0.00  0.00    -0.150 OA
ATOM     13  O   UNL     1       0.676  -2.268  -2.650  0.00  0.00    -0.150 OA
BRANCH  11  14
ATOM     14  C   UNL     1      -1.348  -2.450  -1.093  0.00  0.00    +0.124 A 
ATOM     15  C   UNL     1      -2.726  -2.374  -1.169  0.00  0.00    +0.045 A 
ATOM     16  C   UNL     1      -3.509  -3.172  -0.354  0.00  0.00    +0.020 A 
ATOM     17  C   UNL     1      -2.913  -4.046   0.538  0.00  0.00    +0.016 A 
ATOM     18  C   UNL     1      -1.535  -4.122   0.613  0.00  0.00    +0.018 A 
ATOM     19  C   UNL     1      -0.752  -3.328  -0.205  0.00  0.00    +0.045 A 
ATOM     20 BR   UNL     1       1.133  -3.438  -0.107  0.00  0.00    -0.048 Br
ATOM     21 BR   UNL     1      -5.394  -3.068  -0.457  0.00  0.00    -0.050 Br
ENDBRANCH  11  14
ENDBRANCH   1  11
BRANCH   1  23
ATOM     22  C   UNL     1       0.209   2.082  -1.587  0.00  0.00    +0.026 C 
ATOM     23  C   UNL     1      -0.319   0.902  -0.768  0.00  0.00    +0.128 C 
ENDBRANCH   1  23
TORSDOF 5
