REMARK  Name = ZINC39359096
REMARK  4 active torsions:
REMARK  status: ('A' for Active; 'I' for Inactive)
REMARK    1  A    between atoms: C_3  and  C_6
REMARK    2  A    between atoms: C_11  and  C_21
REMARK    3  A    between atoms: C_14  and  O_20
REMARK    4  A    between atoms: C_26  and  O_27
REMARK                            x       y       z     vdW  Elec       q    Type
REMARK                         _______ _______ _______ _____ _____    ______ ____
ROOT
ATOM      1  C   UNL     1       3.761   1.845  -0.024  0.00  0.00    +0.039 C 
ATOM      2  C   UNL     1       4.505   1.325   1.205  0.00  0.00    +0.060 C 
ATOM      3  C   UNL     1       5.940   1.813   1.182  0.00  0.00    +0.014 C 
ATOM      4  C   UNL     1       6.569   2.011   0.004  0.00  0.00    +0.024 C 
ATOM      5  C   UNL     1       8.008   2.498  -0.077  0.00  0.00    +0.092 C 
ATOM      6  C   UNL     1       8.565   2.448   1.314  0.00  0.00    +0.049 C 
ATOM      7  C   UNL     1       9.719   2.090   1.833  0.00  0.00    +0.235 C 
ATOM      8  N   UNL     1       9.652   2.117   3.192  0.00  0.00    -0.114 NA
ATOM      9  N   UNL     1       8.567   2.505   3.643  0.00  0.00    -0.157 NA
ATOM     10  C   UNL     1       7.708   2.865   2.513  0.00  0.00    +0.245 C 
ATOM     11  N   UNL     1       6.519   2.016   2.409  0.00  0.00    -0.321 N 
ATOM     12  C   UNL     1       5.917   1.785  -1.221  0.00  0.00    +0.162 C 
ATOM     13  O   UNL     1       6.526   1.958  -2.258  0.00  0.00    -0.292 OA
ATOM     14  C   UNL     1       4.483   1.336  -1.277  0.00  0.00    +0.088 C 
ATOM     15  H   UNL     1       6.144   1.602   3.202  0.00  0.00    +0.148 HD
ENDROOT
BRANCH   5  16
ATOM     16  C   UNL     1       8.043   3.913  -0.596  0.00  0.00    +0.009 A 
ATOM     17  C   UNL     1       7.400   4.920   0.098  0.00  0.00    +0.028 A 
ATOM     18  C   UNL     1       7.432   6.218  -0.379  0.00  0.00    +0.043 A 
ATOM     19  C   UNL     1       8.107   6.512  -1.550  0.00  0.00    +0.043 A 
ATOM     20  C   UNL     1       8.751   5.507  -2.248  0.00  0.00    +0.084 A 
ATOM     21  C   UNL     1       8.726   4.204  -1.767  0.00  0.00    +0.139 A 
ATOM     22 CL   UNL     1       9.598   5.875  -3.718  0.00  0.00    -0.080 Cl
ATOM     23 CL   UNL     1       6.623   7.482   0.495  0.00  0.00    -0.083 Cl
BRANCH  21  24
ATOM     24  O   UNL     1       9.363   3.215  -2.448  0.00  0.00    -0.505 OA
ATOM     25  H   UNL     1       8.813   2.776  -3.111  0.00  0.00    +0.292 HD
ENDBRANCH  21  24
ENDBRANCH   5  16
BRANCH   1  28
ATOM     26  C   UNL     1      -0.016   1.351   0.009  0.00  0.00    +0.008 A 
ATOM     27  C   UNL     1       1.183   2.038   0.002  0.00  0.00    +0.011 A 
ATOM     28  C   UNL     1       2.343   1.336  -0.013  0.00  0.00    -0.006 A 
ATOM     29  S   UNL     1       1.754  -0.349  -0.017  0.00  0.00    -0.101 S 
ATOM     30  C   UNL     1       0.002  -0.004   0.002  0.00  0.00    +0.045 A 
ENDBRANCH   1  28
BRANCH   7  31
ATOM     31  O   UNL     1      10.820   1.744   1.115  0.00  0.00    -0.491 OA
ATOM     32  H   UNL     1      11.585   1.508   1.658  0.00  0.00    +0.294 HD
ENDBRANCH   7  31
TORSDOF 4
