REMARK  Name = ZINC03158177
REMARK  11 active torsions:
REMARK  status: ('A' for Active; 'I' for Inactive)
REMARK    1  A    between atoms: C_5  and  C_10
REMARK    2  A    between atoms: C_6  and  O_9
REMARK    3  A    between atoms: N_11  and  C_12
REMARK    4  A    between atoms: C_12  and  C_13
REMARK    5  A    between atoms: C_13  and  C_14
REMARK    6  A    between atoms: C_14  and  C_15
REMARK    7  A    between atoms: C_15  and  C_16
REMARK    8  A    between atoms: C_16  and  C_17
REMARK    9  A    between atoms: C_17  and  N_18
REMARK   10  A    between atoms: C_19  and  C_20
REMARK   11  A    between atoms: C_21  and  O_30
REMARK                            x       y       z     vdW  Elec       q    Type
REMARK                         _______ _______ _______ _____ _____    ______ ____
ROOT
ATOM      1  C   UNL     1       6.233  -6.022  -1.845  0.00  0.00    +0.002 C 
ENDROOT
BRANCH   1   2
ATOM      2  C   UNL     1       6.223  -4.496  -1.749  0.00  0.00    +0.021 C 
BRANCH   2   3
ATOM      3  C   UNL     1       5.898  -4.077  -0.313  0.00  0.00    +0.112 C 
BRANCH   3   5
ATOM      4  C   UNL     1       4.786  -1.991   0.055  0.00  0.00    +0.090 C 
ATOM      5  N   UNL     1       5.888  -2.615  -0.221  0.00  0.00    -0.390 N 
ATOM      6  H   UNL     1       6.706  -2.115  -0.366  0.00  0.00    +0.159 HD
BRANCH   4  11
ATOM      7  C   UNL     1       1.330   1.617   1.330  0.00  0.00    +0.001 A 
ATOM      8  C   UNL     1       2.435   2.310   0.938  0.00  0.00    +0.008 A 
ATOM      9  C   UNL     1       3.580   1.613   0.520  0.00  0.00    -0.017 A 
ATOM     10  C   UNL     1       3.563   0.197   0.514  0.00  0.00    -0.006 A 
ATOM     11  C   UNL     1       4.759  -0.522   0.077  0.00  0.00    +0.040 A 
ATOM     12  C   UNL     1       5.875   0.217  -0.319  0.00  0.00    +0.126 A 
ATOM     13  C   UNL     1       5.842   1.612  -0.295  0.00  0.00    +0.046 A 
ATOM     14  C   UNL     1       4.740   2.295   0.108  0.00  0.00    +0.012 A 
ATOM     15  C   UNL     1       2.410  -0.483   0.922  0.00  0.00    +0.009 A 
ATOM     16  C   UNL     1       1.316   0.225   1.323  0.00  0.00    +0.001 A 
BRANCH  12  17
ATOM     17  O   UNL     1       6.997  -0.424  -0.728  0.00  0.00    -0.506 OA
ATOM     18  H   UNL     1       7.024  -0.603  -1.678  0.00  0.00    +0.292 HD
ENDBRANCH  12  17
ENDBRANCH   4  11
ENDBRANCH   3   5
ENDBRANCH   2   3
ENDBRANCH   1   2
BRANCH   1  19
ATOM     19  C   UNL     1       6.558  -6.441  -3.281  0.00  0.00    +0.002 C 
BRANCH  19  20
ATOM     20  C   UNL     1       6.569  -7.967  -3.377  0.00  0.00    +0.021 C 
BRANCH  20  21
ATOM     21  C   UNL     1       6.894  -8.385  -4.813  0.00  0.00    +0.112 C 
BRANCH  21  22
ATOM     22  N   UNL     1       6.904  -9.848  -4.905  0.00  0.00    -0.390 N 
ATOM     23  C   UNL     1       6.022 -10.457  -5.635  0.00  0.00    +0.090 C 
ATOM     24  H   UNL     1       7.570 -10.360  -4.421  0.00  0.00    +0.159 HD
BRANCH  23  25
ATOM     25  C   UNL     1       5.993 -11.925  -5.679  0.00  0.00    +0.040 A 
ATOM     26  C   UNL     1       6.834 -12.680  -4.860  0.00  0.00    +0.126 A 
ATOM     27  C   UNL     1       6.801 -14.074  -4.907  0.00  0.00    +0.046 A 
ATOM     28  C   UNL     1       5.962 -14.742  -5.741  0.00  0.00    +0.012 A 
ATOM     29  C   UNL     1       5.088 -14.044  -6.594  0.00  0.00    -0.017 A 
ATOM     30  C   UNL     1       5.080 -12.628  -6.578  0.00  0.00    -0.006 A 
ATOM     31  C   UNL     1       4.207 -11.932  -7.423  0.00  0.00    +0.009 A 
ATOM     32  C   UNL     1       3.371 -12.625  -8.247  0.00  0.00    +0.001 A 
ATOM     33  C   UNL     1       3.372 -14.017  -8.261  0.00  0.00    +0.001 A 
ATOM     34  C   UNL     1       4.217 -14.725  -7.460  0.00  0.00    +0.008 A 
BRANCH  26  35
ATOM     35  O   UNL     1       7.688 -12.054  -4.012  0.00  0.00    -0.506 OA
ATOM     36  H   UNL     1       7.316 -11.879  -3.137  0.00  0.00    +0.292 HD
ENDBRANCH  26  35
ENDBRANCH  23  25
ENDBRANCH  21  22
ENDBRANCH  20  21
ENDBRANCH  19  20
ENDBRANCH   1  19
TORSDOF 11
