REMARK  Name = ZINC66428391
REMARK  9 active torsions:
REMARK  status: ('A' for Active; 'I' for Inactive)
REMARK    1  A    between atoms: C_1  and  C_2
REMARK    2  A    between atoms: C_2  and  C_3
REMARK    3  A    between atoms: C_2  and  C_4
REMARK    4  A    between atoms: C_4  and  O_5
REMARK    5  A    between atoms: O_5  and  C_6
REMARK    6  A    between atoms: C_11  and  C_14
REMARK    7  A    between atoms: N_16  and  C_17
REMARK    8  A    between atoms: C_17  and  C_18
REMARK    9  A    between atoms: C_22  and  C_24
REMARK                            x       y       z     vdW  Elec       q    Type
REMARK                         _______ _______ _______ _____ _____    ______ ____
ROOT
ATOM      1  C   UNL     1      -6.532   2.504  -4.537  0.00  0.00    +0.217 C 
ATOM      2  O   UNL     1      -6.046   3.615  -4.523  0.00  0.00    -0.276 OA
ATOM      3  N   UNL     1      -7.829   2.340  -4.864  0.00  0.00    -0.308 N 
ATOM      4  H   UNL     1      -8.218   1.452  -4.875  0.00  0.00    +0.149 HD
ENDROOT
BRANCH   1  10
ATOM      5  C   UNL     1      -3.368  -0.549  -1.350  0.00  0.00    +0.403 C 
ATOM      6  O   UNL     1      -3.914  -1.192  -0.475  0.00  0.00    -0.226 OA
ATOM      7  N   UNL     1      -4.045  -0.227  -2.470  0.00  0.00    -0.267 N 
ATOM      8  C   UNL     1      -3.397   0.544  -3.540  0.00  0.00    +0.112 C 
ATOM      9  C   UNL     1      -4.263   1.767  -3.860  0.00  0.00    +0.032 C 
ATOM     10  C   UNL     1      -5.686   1.307  -4.189  0.00  0.00    +0.078 C 
ATOM     11  C   UNL     1      -6.286   0.593  -2.976  0.00  0.00    +0.032 C 
ATOM     12  C   UNL     1      -5.441  -0.647  -2.648  0.00  0.00    +0.112 C 
BRANCH   5  13
ATOM     13  O   UNL     1      -2.089  -0.158  -1.200  0.00  0.00    -0.450 OA
BRANCH  13  14
ATOM     14  C   UNL     1      -1.433  -0.534   0.013  0.00  0.00    +0.236 C 
BRANCH  14  16
ATOM     15  C   UNL     1      -0.019   1.526   0.010  0.00  0.00    +0.010 C 
ATOM     16  C   UNL     1       0.002  -0.004   0.002  0.00  0.00    +0.021 C 
ATOM     17  C   UNL     1       0.742  -0.511   1.242  0.00  0.00    +0.010 C 
ENDBRANCH  14  16
ENDBRANCH  13  14
ENDBRANCH   5  13
ENDBRANCH   1  10
BRANCH   3  18
ATOM     18  C   UNL     1      -8.652   3.504  -5.202  0.00  0.00    +0.180 C 
BRANCH  18  19
ATOM     19  C   UNL     1     -10.053   3.052  -5.526  0.00  0.00    +0.143 A 
ATOM     20  N   UNL     1     -11.088   3.019  -4.668  0.00  0.00    -0.261 N 
ATOM     21  H   UNL     1     -11.075   3.279  -3.734  0.00  0.00    +0.190 HD
ATOM     22  N   UNL     1     -12.191   2.535  -5.390  0.00  0.00    -0.152 NA
ATOM     23  C   UNL     1     -11.770   2.308  -6.617  0.00  0.00    +0.188 A 
ATOM     24  N   UNL     1     -10.470   2.630  -6.690  0.00  0.00    -0.209 NA
BRANCH  23  25
ATOM     25  C   UNL     1     -12.595   1.789  -7.729  0.00  0.00    +0.058 A 
ATOM     26  C   UNL     1     -13.921   1.450  -7.735  0.00  0.00    +0.019 A 
ATOM     27  C   UNL     1     -14.480   0.983  -8.904  0.00  0.00    +0.008 A 
ATOM     28  C   UNL     1     -13.703   0.873 -10.011  0.00  0.00    +0.046 A 
ATOM     29  S   UNL     1     -12.121   1.449  -9.417  0.00  0.00    -0.093 S 
ENDBRANCH  23  25
ENDBRANCH  18  19
ENDBRANCH   3  18
TORSDOF 7
