REMARK  Name = ZINC13124510
REMARK  7 active torsions:
REMARK  status: ('A' for Active; 'I' for Inactive)
REMARK    1  A    between atoms: C_1  and  C_2
REMARK    2  A    between atoms: C_2  and  O_3
REMARK    3  A    between atoms: O_3  and  C_4
REMARK    4  A    between atoms: C_9  and  N_12
REMARK    5  A    between atoms: C_13  and  C_15
REMARK    6  A    between atoms: C_21  and  C_30
REMARK    7  A    between atoms: C_24  and  C_26
REMARK                            x       y       z     vdW  Elec       q    Type
REMARK                         _______ _______ _______ _____ _____    ______ ____
ROOT
ATOM      1  C   UNL     1      -7.707  -5.247   3.185  0.00  0.00    +0.096 A 
ATOM      2  C   UNL     1      -7.835  -4.591   4.436  0.00  0.00    +0.149 A 
ATOM      3  N   UNL     1      -8.722  -5.235   5.146  0.00  0.00    -0.177 NA
ATOM      4  N   UNL     1      -9.202  -6.316   4.410  0.00  0.00    -0.238 N 
ATOM      5  C   UNL     1      -8.583  -6.316   3.205  0.00  0.00    +0.130 A 
ATOM      6  N   UNL     1      -8.842  -7.260   2.227  0.00  0.00    -0.319 N 
ATOM      7  C   UNL     1     -10.036  -8.104   2.434  0.00  0.00    +0.140 C 
ATOM      8  C   UNL     1     -10.073  -8.538   3.904  0.00  0.00    +0.066 C 
ATOM      9  C   UNL     1     -10.203  -7.310   4.809  0.00  0.00    +0.215 C 
ATOM     10  H   UNL     1      -8.273  -7.361   1.448  0.00  0.00    +0.148 HD
ENDROOT
BRANCH   7  11
ATOM     11  C   UNL     1     -11.277  -7.316   2.103  0.00  0.00    +0.125 A 
ATOM     12  C   UNL     1     -12.360  -7.789   1.459  0.00  0.00    +0.046 A 
ATOM     13  C   UNL     1     -13.278  -6.718   1.362  0.00  0.00    +0.041 A 
ATOM     14  C   UNL     1     -12.702  -5.655   1.952  0.00  0.00    +0.195 A 
ATOM     15  O   UNL     1     -11.492  -6.025   2.404  0.00  0.00    -0.466 OA
ENDBRANCH   7  11
BRANCH   1  17
ATOM     16  N   UNL     1      -6.017  -3.787   2.206  0.00  0.00    -0.308 N 
ATOM     17  C   UNL     1      -6.821  -4.862   2.081  0.00  0.00    +0.249 C 
ATOM     18  O   UNL     1      -6.813  -5.512   1.052  0.00  0.00    -0.270 OA
ATOM     19  H   UNL     1      -6.024  -3.269   3.025  0.00  0.00    +0.149 HD
BRANCH  16  25
ATOM     20  C   UNL     1      -1.497  -1.836   0.006  0.00  0.00    +0.403 C 
ATOM     21  O   UNL     1      -0.523  -2.563  -0.007  0.00  0.00    -0.226 OA
ATOM     22  N   UNL     1      -2.735  -2.368   0.015  0.00  0.00    -0.267 N 
ATOM     23  C   UNL     1      -3.922  -1.502   0.025  0.00  0.00    +0.113 C 
ATOM     24  C   UNL     1      -4.819  -1.908   1.199  0.00  0.00    +0.041 C 
ATOM     25  C   UNL     1      -5.132  -3.402   1.103  0.00  0.00    +0.076 C 
ATOM     26  C   UNL     1      -3.832  -4.205   1.189  0.00  0.00    +0.041 C 
ATOM     27  C   UNL     1      -2.924  -3.825   0.009  0.00  0.00    +0.113 C 
BRANCH  20  28
ATOM     28  O   UNL     1      -1.339  -0.499   0.012  0.00  0.00    -0.451 OA
BRANCH  28  30
ATOM     29  C   UNL     1      -0.019   1.526   0.010  0.00  0.00    +0.048 C 
ATOM     30  C   UNL     1       0.002  -0.004   0.002  0.00  0.00    +0.230 C 
ENDBRANCH  28  30
ENDBRANCH  20  28
ENDBRANCH  16  25
ENDBRANCH   1  17
BRANCH   9  31
ATOM     31  C   UNL     1      -9.976  -7.710   6.269  0.00  0.00    +0.412 C 
ATOM     32  F   UNL     1     -10.091  -6.579   7.085  0.00  0.00    -0.168 F 
ATOM     33  F   UNL     1     -10.932  -8.658   6.647  0.00  0.00    -0.168 F 
ATOM     34  F   UNL     1      -8.696  -8.257   6.409  0.00  0.00    -0.168 F 
ENDBRANCH   9  31
TORSDOF 6
