REMARK  Name = ZINC14637746
REMARK  10 active torsions:
REMARK  status: ('A' for Active; 'I' for Inactive)
REMARK    1  A    between atoms: C_1  and  C_2
REMARK    2  A    between atoms: C_4  and  S_26
REMARK    3  A    between atoms: C_6  and  N_9
REMARK    4  A    between atoms: C_7  and  C_8
REMARK    5  A    between atoms: C_10  and  C_12
REMARK    6  A    between atoms: N_17  and  C_19
REMARK    7  A    between atoms: C_19  and  C_20
REMARK    8  A    between atoms: S_26  and  N_29
REMARK    9  A    between atoms: N_29  and  C_30
REMARK   10  A    between atoms: N_29  and  C_31
REMARK                            x       y       z     vdW  Elec       q    Type
REMARK                         _______ _______ _______ _____ _____    ______ ____
ROOT
ATOM      1  N   UNL     1       3.622  -0.650  -0.036  0.00  0.00    -0.285 N 
ATOM      2  C   UNL     1       4.776   0.037  -0.145  0.00  0.00    +0.222 C 
ATOM      3  O   UNL     1       4.761   1.250  -0.139  0.00  0.00    -0.275 OA
ATOM      4  H   UNL     1       3.639  -1.617   0.039  0.00  0.00    +0.155 HD
ENDROOT
BRANCH   1  10
ATOM      5  C   UNL     1      -1.125  -0.484   1.233  0.00  0.00    +0.044 C 
ATOM      6  C   UNL     1       0.082   0.134   0.576  0.00  0.00    -0.044 A 
ATOM      7  C   UNL     1      -0.018   1.377  -0.023  0.00  0.00    +0.032 A 
ATOM      8  C   UNL     1       1.087   1.947  -0.627  0.00  0.00    +0.107 A 
ATOM      9  C   UNL     1       2.295   1.278  -0.633  0.00  0.00    +0.052 A 
ATOM     10  C   UNL     1       2.399   0.030  -0.032  0.00  0.00    +0.038 A 
ATOM     11  C   UNL     1       1.287  -0.540   0.573  0.00  0.00    -0.026 A 
ATOM     12  C   UNL     1       1.395  -1.894   1.227  0.00  0.00    +0.046 C 
BRANCH   8  13
ATOM     13  S   UNL     1       0.954   3.530  -1.389  0.00  0.00    +0.060 S 
ATOM     14  O   UNL     1       1.991   3.603  -2.358  0.00  0.00    -0.153 OA
ATOM     15  O   UNL     1      -0.415   3.706  -1.724  0.00  0.00    -0.153 OA
BRANCH  13  16
ATOM     16  N   UNL     1       1.307   4.662  -0.232  0.00  0.00    -0.183 NA
ATOM     17  C   UNL     1       2.689   5.110  -0.044  0.00  0.00    +0.131 C 
ATOM     18  C   UNL     1       0.237   5.215   0.602  0.00  0.00    +0.131 C 
ENDBRANCH  13  16
ENDBRANCH   8  13
ENDBRANCH   1  10
BRANCH   2  19
ATOM     19  C   UNL     1       6.083  -0.700  -0.275  0.00  0.00    +0.101 C 
ATOM     20  C   UNL     1       6.166  -1.445  -1.628  0.00  0.00    +0.110 C 
ATOM     21  C   UNL     1       7.615  -1.307  -2.039  0.00  0.00    +0.217 C 
ATOM     22  O   UNL     1       8.163  -1.976  -2.890  0.00  0.00    -0.276 OA
ATOM     23  N   UNL     1       8.208  -0.335  -1.325  0.00  0.00    -0.296 N 
ATOM     24  C   UNL     1       7.266   0.287  -0.386  0.00  0.00    +0.121 C 
BRANCH  23  25
ATOM     25  C   UNL     1       9.613   0.054  -1.464  0.00  0.00    +0.142 C 
BRANCH  25  26
ATOM     26  C   UNL     1      10.457  -0.762  -0.520  0.00  0.00    -0.030 A 
ATOM     27  C   UNL     1      10.703  -0.303   0.760  0.00  0.00    +0.005 A 
ATOM     28  C   UNL     1      11.474  -1.055   1.628  0.00  0.00    +0.000 A 
ATOM     29  C   UNL     1      12.006  -2.261   1.212  0.00  0.00    +0.000 A 
ATOM     30  C   UNL     1      11.764  -2.718  -0.070  0.00  0.00    +0.000 A 
ATOM     31  C   UNL     1      10.990  -1.968  -0.936  0.00  0.00    +0.005 A 
ENDBRANCH  25  26
ENDBRANCH  23  25
ENDBRANCH   2  19
TORSDOF 6
