REMARK  Name = ZINC20752838
REMARK  6 active torsions:
REMARK  status: ('A' for Active; 'I' for Inactive)
REMARK    1  A    between atoms: C_1  and  C_2
REMARK    2  A    between atoms: C_2  and  C_3
REMARK    3  A    between atoms: C_3  and  N_4
REMARK    4  A    between atoms: N_4  and  S_5
REMARK    5  A    between atoms: S_5  and  C_8
REMARK    6  A    between atoms: C_21  and  C_24
REMARK                            x       y       z     vdW  Elec       q    Type
REMARK                         _______ _______ _______ _____ _____    ______ ____
ROOT
ATOM      1  C   UNL     1       7.508   2.546  -0.336  0.00  0.00    +0.106 A 
ATOM      2  C   UNL     1       6.880   3.160  -1.404  0.00  0.00    +0.030 A 
ATOM      3  C   UNL     1       5.522   3.006  -1.591  0.00  0.00    +0.025 A 
ATOM      4  C   UNL     1       4.775   2.234  -0.710  0.00  0.00    +0.031 A 
ATOM      5  C   UNL     1       5.419   1.604   0.360  0.00  0.00    -0.018 A 
ATOM      6  C   UNL     1       6.775   1.770   0.543  0.00  0.00    +0.034 A 
ATOM      7  C   UNL     1       4.596   0.754   1.248  0.00  0.00    +0.049 C 
ATOM      8  C   UNL     1       4.971   0.503   2.663  0.00  0.00    -0.023 C 
ATOM      9  C   UNL     1       3.861   0.335   3.372  0.00  0.00    -0.030 C 
ATOM     10  C   UNL     1       2.635   0.499   2.471  0.00  0.00    +0.033 C 
ATOM     11  C   UNL     1       3.186   1.407   1.362  0.00  0.00    +0.029 C 
ATOM     12  C   UNL     1       2.565   1.272  -0.016  0.00  0.00    +0.111 C 
ATOM     13  N   UNL     1       3.395   2.106  -0.912  0.00  0.00    -0.336 N 
ATOM     14  H   UNL     1       2.931   2.639  -1.754  0.00  0.00    +0.147 HD
ENDROOT
BRANCH  12  15
ATOM     15  C   UNL     1       1.146   1.780   0.001  0.00  0.00    +0.010 A 
ATOM     16  C   UNL     1      -0.013   1.076   0.008  0.00  0.00    +0.013 A 
ATOM     17  C   UNL     1      -1.213   1.761   0.017  0.00  0.00    +0.008 A 
ATOM     18  C   UNL     1      -1.196   3.116   0.030  0.00  0.00    +0.045 A 
ATOM     19  S   UNL     1       0.555   3.464   0.015  0.00  0.00    -0.100 S 
ENDBRANCH  12  15
BRANCH   1  20
ATOM     20  S   UNL     1       9.242   2.752  -0.095  0.00  0.00    +0.058 S 
ATOM     21  O   UNL     1       9.683   1.632   0.661  0.00  0.00    -0.153 OA
ATOM     22  O   UNL     1       9.792   3.078  -1.364  0.00  0.00    -0.153 OA
BRANCH  20  23
ATOM     23  N   UNL     1       9.447   4.084   0.867  0.00  0.00    -0.190 NA
ATOM     24  H   UNL     1       9.802   5.022   0.416  0.00  0.00    +0.148 HD
BRANCH  23  25
ATOM     25  C   UNL     1       8.956   4.073   2.247  0.00  0.00    +0.105 C 
BRANCH  25  27
ATOM     26  C   UNL     1       9.071   5.224   4.462  0.00  0.00    +0.005 C 
ATOM     27  C   UNL     1       9.583   5.235   3.020  0.00  0.00    +0.013 C 
ENDBRANCH  25  27
ENDBRANCH  23  25
ENDBRANCH  20  23
ENDBRANCH   1  20
TORSDOF 5
