REMARK  Name = ZINC36490631
REMARK  7 active torsions:
REMARK  status: ('A' for Active; 'I' for Inactive)
REMARK    1  A    between atoms: C_3  and  O_34
REMARK    2  A    between atoms: C_6  and  C_7
REMARK    3  A    between atoms: C_7  and  C_9
REMARK    4  A    between atoms: C_7  and  N_18
REMARK    5  A    between atoms: N_11  and  C_12
REMARK    6  A    between atoms: N_18  and  C_19
REMARK    7  A    between atoms: C_25  and  C_27
REMARK                            x       y       z     vdW  Elec       q    Type
REMARK                         _______ _______ _______ _____ _____    ______ ____
ROOT
ATOM      1  C   UNL     1      -1.292  -0.645  -0.234  0.00  0.00    +0.192 C 
ENDROOT
BRANCH   1   7
ATOM      2  C   UNL     1       0.060   1.269   0.644  0.00  0.00    +0.009 A 
ATOM      3  C   UNL     1       1.235   1.992   0.721  0.00  0.00    +0.046 A 
ATOM      4  C   UNL     1       2.346   1.585  -0.004  0.00  0.00    +0.117 A 
ATOM      5  C   UNL     1       2.274   0.454  -0.803  0.00  0.00    +0.046 A 
ATOM      6  C   UNL     1       1.097  -0.266  -0.876  0.00  0.00    +0.009 A 
ATOM      7  C   UNL     1      -0.009   0.142  -0.153  0.00  0.00    -0.018 A 
BRANCH   4   8
ATOM      8  O   UNL     1       3.503   2.295   0.069  0.00  0.00    -0.507 OA
ATOM      9  H   UNL     1       4.100   2.002   0.771  0.00  0.00    +0.292 HD
ENDBRANCH   4   8
ENDBRANCH   1   7
BRANCH   1  10
ATOM     10  C   UNL     1      -1.607  -0.944  -1.677  0.00  0.00    +0.238 C 
ATOM     11  O   UNL     1      -1.698  -2.094  -2.052  0.00  0.00    -0.273 OA
ATOM     12  N   UNL     1      -1.789   0.066  -2.550  0.00  0.00    -0.311 N 
ATOM     13  H   UNL     1      -1.717   0.986  -2.250  0.00  0.00    +0.149 HD
BRANCH  12  14
ATOM     14  C   UNL     1      -2.096  -0.225  -3.953  0.00  0.00    +0.073 C 
ATOM     15  C   UNL     1      -0.794  -0.460  -4.722  0.00  0.00    +0.022 C 
ATOM     16  C   UNL     1      -1.115  -0.763  -6.187  0.00  0.00    +0.002 C 
ATOM     17  C   UNL     1      -1.863   0.421  -6.801  0.00  0.00    +0.000 C 
ATOM     18  C   UNL     1      -3.165   0.657  -6.033  0.00  0.00    +0.002 C 
ATOM     19  C   UNL     1      -2.844   0.960  -4.568  0.00  0.00    +0.022 C 
ENDBRANCH  12  14
ENDBRANCH   1  10
BRANCH   1  20
ATOM     20  N   UNL     1      -1.141  -1.902   0.503  0.00  0.00    -0.281 N 
ATOM     21  C   UNL     1      -2.004  -2.210   1.492  0.00  0.00    +0.237 C 
ATOM     22  O   UNL     1      -1.933  -3.288   2.045  0.00  0.00    -0.274 OA
BRANCH  21  23
ATOM     23  C   UNL     1      -3.057  -1.217   1.911  0.00  0.00    +0.159 C 
ATOM     24  C   UNL     1      -2.462  -0.197   2.907  0.00  0.00    +0.041 C 
ATOM     25  C   UNL     1      -2.814  -0.843   4.267  0.00  0.00    +0.098 C 
ATOM     26  C   UNL     1      -4.019  -1.707   3.967  0.00  0.00    +0.214 C 
ATOM     27  O   UNL     1      -4.772  -2.163   4.801  0.00  0.00    -0.276 OA
ATOM     28  N   UNL     1      -4.135  -1.896   2.639  0.00  0.00    -0.304 N 
ATOM     29  H   UNL     1      -4.839  -2.413   2.218  0.00  0.00    +0.149 HD
ENDBRANCH  21  23
BRANCH  20  30
ATOM     30  C   UNL     1      -0.053  -2.823   0.166  0.00  0.00    +0.077 C 
ATOM     31  C   UNL     1      -0.633  -4.204  -0.148  0.00  0.00    +0.022 C 
ATOM     32  C   UNL     1       0.503  -5.166  -0.500  0.00  0.00    +0.002 C 
ATOM     33  C   UNL     1       1.465  -5.275   0.685  0.00  0.00    +0.000 C 
ATOM     34  C   UNL     1       2.045  -3.894   0.999  0.00  0.00    +0.002 C 
ATOM     35  C   UNL     1       0.908  -2.932   1.351  0.00  0.00    +0.022 C 
ENDBRANCH  20  30
ENDBRANCH   1  20
TORSDOF 7
