REMARK  Name = ZINC35173450
REMARK  10 active torsions:
REMARK  status: ('A' for Active; 'I' for Inactive)
REMARK    1  A    between atoms: C_1  and  C_2
REMARK    2  A    between atoms: C_2  and  C_3
REMARK    3  A    between atoms: C_3  and  C_4
REMARK    4  A    between atoms: C_5  and  C_21
REMARK    5  A    between atoms: C_6  and  C_11
REMARK    6  A    between atoms: C_8  and  C_10
REMARK    7  A    between atoms: C_17  and  C_20
REMARK    8  A    between atoms: C_21  and  O_23
REMARK    9  A    between atoms: O_23  and  C_24
REMARK   10  A    between atoms: C_24  and  C_25
REMARK                            x       y       z     vdW  Elec       q    Type
REMARK                         _______ _______ _______ _____ _____    ______ ____
ROOT
ATOM      1  C   UNL     1       0.821  -2.029   1.309  0.00  0.00    +0.060 A 
ATOM      2  C   UNL     1      -0.161  -2.763   1.985  0.00  0.00    +0.111 A 
ATOM      3  C   UNL     1      -0.242  -4.146   1.735  0.00  0.00    +0.143 A 
ATOM      4  N   UNL     1       0.612  -4.690   0.875  0.00  0.00    -0.227 NA
ATOM      5  C   UNL     1       1.518  -3.955   0.265  0.00  0.00    +0.127 A 
ATOM      6  N   UNL     1       1.623  -2.656   0.468  0.00  0.00    -0.236 NA
ATOM      7  C   UNL     1       2.463  -4.619  -0.702  0.00  0.00    +0.088 C 
ENDROOT
BRANCH   3   8
ATOM      8  C   UNL     1      -1.261  -4.981   2.421  0.00  0.00    +0.266 C 
ATOM      9  O   UNL     1      -2.120  -4.455   3.100  0.00  0.00    -0.268 OA
ATOM     10  N   UNL     1      -1.233  -6.322   2.290  0.00  0.00    -0.300 N 
ATOM     11  C   UNL     1      -0.101  -6.994   1.634  0.00  0.00    +0.089 C 
ATOM     12  C   UNL     1       0.389  -8.122   2.548  0.00  0.00    -0.063 C 
ATOM     13  N   UNL     1      -0.735  -9.009   2.876  0.00  0.00    +0.383 N 
ATOM     14  C   UNL     1      -1.738  -8.275   3.657  0.00  0.00    -0.057 C 
ATOM     15  C   UNL     1      -2.331  -7.155   2.804  0.00  0.00    +0.092 C 
ATOM     16  C   UNL     1      -2.850  -9.234   4.088  0.00  0.00    -0.012 C 
ATOM     17  H   UNL     1      -1.155  -9.346   2.023  0.00  0.00    -0.085 HD
ATOM     18  H   UNL     1      -0.397  -9.792   3.415  0.00  0.00    -0.085 HD
ENDBRANCH   3   8
BRANCH   2  19
ATOM     19  C   UNL     1      -1.086  -2.106   2.933  0.00  0.00    +0.343 C 
ATOM     20  O   UNL     1      -2.142  -1.655   2.538  0.00  0.00    -0.245 OA
BRANCH  19  21
ATOM     21  O   UNL     1      -0.757  -2.008   4.236  0.00  0.00    -0.461 OA
BRANCH  21  22
ATOM     22  C   UNL     1      -1.698  -1.360   5.095  0.00  0.00    +0.229 C 
ATOM     23  C   UNL     1      -1.155  -1.344   6.525  0.00  0.00    +0.048 C 
ENDBRANCH  21  22
ENDBRANCH  19  21
ENDBRANCH   2  19
BRANCH   1  24
ATOM     24  C   UNL     1       0.956  -0.545   1.534  0.00  0.00    +0.056 C 
BRANCH  24  26
ATOM     25  C   UNL     1       0.208   1.712   0.765  0.00  0.00    +0.004 C 
ATOM     26  C   UNL     1       0.070   0.205   0.537  0.00  0.00    +0.003 C 
ENDBRANCH  24  26
ENDBRANCH   1  24
TORSDOF 6
