REMARK  Name = ZINC51318429
REMARK  12 active torsions:
REMARK  status: ('A' for Active; 'I' for Inactive)
REMARK    1  A    between atoms: C_1  and  C_2
REMARK    2  A    between atoms: C_5  and  C_8
REMARK    3  A    between atoms: C_10  and  C_31
REMARK    4  A    between atoms: C_11  and  C_16
REMARK    5  A    between atoms: C_16  and  N_17
REMARK    6  A    between atoms: C_24  and  O_26
REMARK    7  A    between atoms: O_26  and  C_27
REMARK    8  A    between atoms: C_27  and  C_28
REMARK    9  A    between atoms: C_27  and  C_29
REMARK   10  A    between atoms: C_27  and  C_30
REMARK   11  A    between atoms: C_31  and  O_33
REMARK   12  A    between atoms: O_33  and  C_34
REMARK                            x       y       z     vdW  Elec       q    Type
REMARK                         _______ _______ _______ _____ _____    ______ ____
ROOT
ATOM      1  C   UNL     1       0.452  -3.676   0.407  0.00  0.00    +0.144 C 
ATOM      2  C   UNL     1       1.794  -4.322   0.682  0.00  0.00    +0.079 C 
ATOM      3  C   UNL     1       1.797  -5.565   1.209  0.00  0.00    +0.038 C 
ATOM      4  N   UNL     1       0.629  -6.217   1.485  0.00  0.00    -0.271 N 
ATOM      5  C   UNL     1      -0.583  -5.693   1.263  0.00  0.00    +0.304 C 
ATOM      6  O   UNL     1      -1.567  -6.350   1.542  0.00  0.00    -0.252 OA
ATOM      7  N   UNL     1      -0.748  -4.462   0.741  0.00  0.00    -0.288 N 
ATOM      8  H   UNL     1       0.680  -7.108   1.863  0.00  0.00    +0.156 HD
ATOM      9  H   UNL     1      -1.636  -4.103   0.589  0.00  0.00    +0.151 HD
ENDROOT
BRANCH   1  14
ATOM     10  C   UNL     1       0.215   1.276   3.376  0.00  0.00    +0.044 C 
ATOM     11  C   UNL     1       0.277  -0.015   2.602  0.00  0.00    -0.050 A 
ATOM     12  C   UNL     1       0.652  -0.006   1.271  0.00  0.00    +0.004 A 
ATOM     13  C   UNL     1       0.709  -1.191   0.561  0.00  0.00    +0.006 A 
ATOM     14  C   UNL     1       0.391  -2.384   1.181  0.00  0.00    -0.022 A 
ATOM     15  C   UNL     1       0.016  -2.393   2.512  0.00  0.00    +0.006 A 
ATOM     16  C   UNL     1      -0.037  -1.209   3.223  0.00  0.00    +0.004 A 
ENDBRANCH   1  14
BRANCH   2  17
ATOM     17  C   UNL     1       3.004  -3.647   0.395  0.00  0.00    +0.339 C 
ATOM     18  O   UNL     1       4.067  -4.132   0.734  0.00  0.00    -0.245 OA
BRANCH  17  19
ATOM     19  O   UNL     1       2.978  -2.464  -0.255  0.00  0.00    -0.465 OA
ATOM     20  C   UNL     1       4.237  -1.838  -0.512  0.00  0.00    +0.280 C 
ENDBRANCH  17  19
ENDBRANCH   2  17
BRANCH   3  21
ATOM     21  C   UNL     1       3.111  -6.245   1.497  0.00  0.00    +0.136 C 
BRANCH  21  22
ATOM     22  N   UNL     1       3.591  -5.839   2.825  0.00  0.00    -0.295 NA
ATOM     23  C   UNL     1       5.047  -5.946   2.910  0.00  0.00    +0.086 C 
ATOM     24  C   UNL     1       5.575  -4.825   3.778  0.00  0.00    +0.034 C 
ATOM     25  C   UNL     1       5.683  -5.307   5.235  0.00  0.00    +0.112 C 
ATOM     26  N   UNL     1       4.528  -6.148   5.608  0.00  0.00    -0.266 N 
ATOM     27  C   UNL     1       3.171  -5.825   5.215  0.00  0.00    +0.126 C 
ATOM     28  C   UNL     1       2.854  -6.479   3.848  0.00  0.00    +0.104 C 
ATOM     29  C   UNL     1       4.744  -7.258   6.342  0.00  0.00    +0.403 C 
ATOM     30  O   UNL     1       3.810  -7.966   6.661  0.00  0.00    -0.226 OA
BRANCH  29  31
ATOM     31  O   UNL     1       5.995  -7.581   6.720  0.00  0.00    -0.445 OA
BRANCH  31  32
ATOM     32  C   UNL     1       6.150  -8.771   7.496  0.00  0.00    +0.107 C 
ATOM     33  C   UNL     1       5.639  -9.972   6.697  0.00  0.00    +0.055 C 
ATOM     34  C   UNL     1       7.630  -8.973   7.830  0.00  0.00    +0.055 C 
ATOM     35  C   UNL     1       5.348  -8.642   8.793  0.00  0.00    +0.055 C 
ENDBRANCH  31  32
ENDBRANCH  29  31
ENDBRANCH  21  22
ENDBRANCH   3  21
TORSDOF 7
