REMARK  Name = ZINC67170217
REMARK  8 active torsions:
REMARK  status: ('A' for Active; 'I' for Inactive)
REMARK    1  A    between atoms: C_1  and  C_2
REMARK    2  A    between atoms: C_2  and  C_3
REMARK    3  A    between atoms: C_2  and  C_4
REMARK    4  A    between atoms: C_2  and  C_22
REMARK    5  A    between atoms: C_4  and  N_5
REMARK    6  A    between atoms: C_6  and  C_8
REMARK    7  A    between atoms: N_10  and  C_13
REMARK    8  A    between atoms: C_17  and  N_19
REMARK                            x       y       z     vdW  Elec       q    Type
REMARK                         _______ _______ _______ _____ _____    ______ ____
ROOT
ATOM      1  N   UNL     1      -2.119  -0.061   1.218  0.00  0.00    -0.309 N 
ATOM      2  C   UNL     1      -3.403  -0.406   1.442  0.00  0.00    +0.266 C 
ATOM      3  O   UNL     1      -3.992  -1.108   0.643  0.00  0.00    -0.268 OA
ATOM      4  H   UNL     1      -1.649   0.499   1.855  0.00  0.00    +0.149 HD
ENDROOT
BRANCH   2   5
ATOM      5  C   UNL     1      -4.093   0.070   2.655  0.00  0.00    +0.167 A 
ATOM      6  C   UNL     1      -5.385  -0.210   3.001  0.00  0.00    +0.149 A 
ATOM      7  N   UNL     1      -5.619   0.414   4.176  0.00  0.00    -0.219 N 
ATOM      8  N   UNL     1      -4.434   1.077   4.525  0.00  0.00    -0.060 NA
ATOM      9  N   UNL     1      -3.556   0.848   3.611  0.00  0.00    -0.124 NA
BRANCH   7  10
ATOM     10  C   UNL     1      -6.817   0.404   4.905  0.00  0.00    +0.069 A 
ATOM     11  C   UNL     1      -7.913  -0.306   4.431  0.00  0.00    +0.028 A 
ATOM     12  C   UNL     1      -9.091  -0.315   5.151  0.00  0.00    +0.004 A 
ATOM     13  C   UNL     1      -9.180   0.382   6.343  0.00  0.00    +0.033 A 
ATOM     14  C   UNL     1      -8.091   1.089   6.816  0.00  0.00    +0.128 A 
ATOM     15  C   UNL     1      -6.908   1.097   6.104  0.00  0.00    +0.060 A 
BRANCH  14  16
ATOM     16  N   UNL     1      -8.191   1.835   8.091  0.00  0.00    +0.056 N 
ATOM     17  O   UNL     1      -9.225   1.824   8.718  0.00  0.00    -0.126 OA
ATOM     18  O   UNL     1      -7.239   2.454   8.506  0.00  0.00    -0.126 OA
ENDBRANCH  14  16
ENDBRANCH   7  10
ENDBRANCH   2   5
BRANCH   1  19
ATOM     19  C   UNL     1      -1.433  -0.534   0.013  0.00  0.00    +0.115 C 
BRANCH  19  21
ATOM     20  C   UNL     1      -0.019   1.526   0.010  0.00  0.00    +0.017 C 
ATOM     21  C   UNL     1       0.002  -0.004   0.002  0.00  0.00    +0.006 C 
ATOM     22  C   UNL     1       0.742  -0.511   1.242  0.00  0.00    +0.017 C 
BRANCH  21  23
ATOM     23  C   UNL     1       0.707  -0.490  -1.238  0.00  0.00    -0.040 A 
ATOM     24  C   UNL     1       0.035  -1.284  -2.148  0.00  0.00    +0.007 A 
ATOM     25  C   UNL     1       0.681  -1.730  -3.286  0.00  0.00    +0.038 A 
ATOM     26  C   UNL     1       2.002  -1.381  -3.514  0.00  0.00    +0.123 A 
ATOM     27  C   UNL     1       2.674  -0.586  -2.601  0.00  0.00    +0.038 A 
ATOM     28  C   UNL     1       2.024  -0.137  -1.467  0.00  0.00    +0.007 A 
ATOM     29  F   UNL     1       2.634  -1.817  -4.625  0.00  0.00    -0.205 F 
ENDBRANCH  21  23
ENDBRANCH  19  21
ENDBRANCH   1  19
TORSDOF 6
