REMARK  Name = ZINC04236020
REMARK  2 active torsions:
REMARK  status: ('A' for Active; 'I' for Inactive)
REMARK    1  A    between atoms: C_6  and  C_7
REMARK    2  A    between atoms: C_28  and  C_30
REMARK                            x       y       z     vdW  Elec       q    Type
REMARK                         _______ _______ _______ _____ _____    ______ ____
ROOT
ATOM      1  C   UNL     1       8.172   2.251  -2.559  0.00  0.00    +0.010 A 
ATOM      2  C   UNL     1       7.029   1.584  -2.926  0.00  0.00    +0.024 A 
ATOM      3  C   UNL     1       5.764   2.075  -2.579  0.00  0.00    +0.046 A 
ATOM      4  C   UNL     1       5.667   3.274  -1.875  0.00  0.00    +0.059 A 
ATOM      5  C   UNL     1       6.839   3.943  -1.487  0.00  0.00    +0.023 A 
ATOM      6  C   UNL     1       8.084   3.436  -1.827  0.00  0.00    -0.017 A 
ATOM      7  C   UNL     1       4.391   3.912  -1.527  0.00  0.00    +0.249 C 
ATOM      8  O   UNL     1       4.313   5.123  -1.595  0.00  0.00    -0.270 OA
ATOM      9  N   UNL     1       3.287   3.217  -1.151  0.00  0.00    -0.283 N 
ATOM     10  C   UNL     1       2.018   3.929  -1.056  0.00  0.00    +0.128 C 
ATOM     11  C   UNL     1       1.099   3.352   0.004  0.00  0.00    +0.127 C 
ATOM     12  N   UNL     1       1.143   1.898   0.001  0.00  0.00    -0.298 N 
ATOM     13  C   UNL     1       2.399   1.167  -0.015  0.00  0.00    +0.139 C 
ATOM     14  C   UNL     1       3.437   1.798  -0.902  0.00  0.00    +0.180 C 
ATOM     15  C   UNL     1       3.607   1.079  -2.207  0.00  0.00    +0.239 C 
ATOM     16  O   UNL     1       2.765   0.287  -2.572  0.00  0.00    -0.273 OA
ATOM     17  N   UNL     1       4.679   1.305  -2.968  0.00  0.00    -0.283 N 
ATOM     18  C   UNL     1      -0.014   1.209   0.009  0.00  0.00    +0.219 C 
ATOM     19  O   UNL     1       0.002  -0.004   0.002  0.00  0.00    -0.275 OA
ATOM     20  H   UNL     1       4.700   0.905  -3.851  0.00  0.00    +0.155 HD
ENDROOT
BRANCH   6  21
ATOM     21  C   UNL     1       9.317   4.150  -1.413  0.00  0.00    -0.014 A 
ATOM     22  C   UNL     1       9.226   5.333  -0.681  0.00  0.00    +0.012 A 
ATOM     23  C   UNL     1      10.373   5.996  -0.297  0.00  0.00    +0.050 A 
ATOM     24  C   UNL     1      11.619   5.489  -0.635  0.00  0.00    +0.166 A 
ATOM     25  C   UNL     1      11.715   4.306  -1.366  0.00  0.00    +0.167 A 
ATOM     26  C   UNL     1      10.567   3.636  -1.749  0.00  0.00    +0.058 A 
ATOM     27  O   UNL     1      13.036   4.024  -1.568  0.00  0.00    -0.453 OA
ATOM     28  C   UNL     1      13.750   4.822  -0.606  0.00  0.00    +0.466 C 
ATOM     29  O   UNL     1      12.880   5.947  -0.380  0.00  0.00    -0.453 OA
ENDBRANCH   6  21
BRANCH  18  30
ATOM     30  C   UNL     1      -1.330   1.944   0.019  0.00  0.00    +0.075 C 
ATOM     31  C   UNL     1      -1.462   2.773   1.313  0.00  0.00    +0.013 C 
ATOM     32  C   UNL     1      -2.961   2.659   1.686  0.00  0.00    +0.001 C 
ATOM     33  C   UNL     1      -3.295   1.193   1.314  0.00  0.00    +0.001 C 
ATOM     34  C   UNL     1      -2.495   0.940   0.019  0.00  0.00    +0.013 C 
ENDBRANCH  18  30
TORSDOF 2
