REMARK  Name = ZINC09769739
REMARK  8 active torsions:
REMARK  status: ('A' for Active; 'I' for Inactive)
REMARK    1  A    between atoms: C_1  and  C_2
REMARK    2  A    between atoms: C_2  and  C_3
REMARK    3  A    between atoms: C_2  and  C_4
REMARK    4  A    between atoms: C_4  and  N_5
REMARK    5  A    between atoms: C_6  and  C_7
REMARK    6  A    between atoms: C_6  and  C_18
REMARK    7  A    between atoms: N_10  and  C_17
REMARK    8  A    between atoms: N_13  and  C_16
REMARK                            x       y       z     vdW  Elec       q    Type
REMARK                         _______ _______ _______ _____ _____    ______ ____
ROOT
ATOM      1  N   UNL     1      -3.528  -2.123   0.152  0.00  0.00    -0.285 NA
ATOM      2  C   UNL     1      -3.729  -0.776   0.020  0.00  0.00    +0.080 C 
ENDROOT
BRANCH   2   3
ATOM      3  C   UNL     1      -2.596   0.110  -0.272  0.00  0.00    +0.065 A 
ATOM      4  C   UNL     1      -2.545   0.741  -1.476  0.00  0.00    +0.036 A 
ATOM      5  C   UNL     1      -1.421   1.625  -1.775  0.00  0.00    -0.011 A 
ATOM      6  C   UNL     1      -1.318   2.297  -2.996  0.00  0.00    +0.009 A 
ATOM      7  C   UNL     1      -0.238   3.119  -3.229  0.00  0.00    +0.001 A 
ATOM      8  C   UNL     1       0.747   3.287  -2.266  0.00  0.00    +0.001 A 
ATOM      9  C   UNL     1       0.667   2.632  -1.054  0.00  0.00    +0.014 A 
ATOM     10  C   UNL     1      -0.416   1.796  -0.794  0.00  0.00    +0.046 A 
ATOM     11  C   UNL     1      -0.546   1.072   0.478  0.00  0.00    +0.257 A 
ATOM     12  O   UNL     1       0.300   1.196   1.344  0.00  0.00    -0.267 OA
ATOM     13  N   UNL     1      -1.615   0.278   0.683  0.00  0.00    -0.321 N 
ATOM     14  H   UNL     1      -1.696  -0.194   1.527  0.00  0.00    +0.169 HD
ENDBRANCH   2   3
BRANCH   2  15
ATOM     15  C   UNL     1      -5.015  -0.244   0.163  0.00  0.00    +0.212 C 
ATOM     16  C   UNL     1      -5.245   1.208   0.191  0.00  0.00    +0.241 C 
ATOM     17  O   UNL     1      -4.317   1.989   0.089  0.00  0.00    -0.274 OA
ATOM     18  N   UNL     1      -6.512   1.652   0.327  0.00  0.00    -0.228 N 
ATOM     19  C   UNL     1      -7.542   0.802   0.446  0.00  0.00    +0.317 C 
ATOM     20  O   UNL     1      -8.659   1.265   0.571  0.00  0.00    -0.252 OA
ATOM     21  N   UNL     1      -7.404  -0.531   0.434  0.00  0.00    -0.228 N 
ATOM     22  C   UNL     1      -6.194  -1.112   0.299  0.00  0.00    +0.241 C 
ATOM     23  O   UNL     1      -6.081  -2.324   0.289  0.00  0.00    -0.274 OA
ATOM     24  C   UNL     1      -8.593  -1.375   0.571  0.00  0.00    +0.143 C 
ATOM     25  C   UNL     1      -6.766   3.094   0.352  0.00  0.00    +0.143 C 
ENDBRANCH   2  15
BRANCH   1  26
ATOM     26  C   UNL     1      -2.182  -2.680   0.002  0.00  0.00    +0.145 C 
BRANCH  26  28
ATOM     27  C   UNL     1      -0.838  -4.787   0.020  0.00  0.00    +0.009 C 
ATOM     28  C   UNL     1      -2.216  -4.181   0.296  0.00  0.00    +0.004 C 
ATOM     29  C   UNL     1      -2.586  -4.405   1.764  0.00  0.00    +0.009 C 
ENDBRANCH  26  28
ENDBRANCH   1  26
TORSDOF 4
