REMARK  Name = ZINC15730828
REMARK  3 active torsions:
REMARK  status: ('A' for Active; 'I' for Inactive)
REMARK    1  A    between atoms: C_1  and  C_2
REMARK    2  A    between atoms: C_9  and  S_15
REMARK    3  A    between atoms: S_15  and  N_18
REMARK                            x       y       z     vdW  Elec       q    Type
REMARK                         _______ _______ _______ _____ _____    ______ ____
ROOT
ATOM      1  C   UNL     1      -4.624   2.535   9.755  0.00  0.00    +0.018 C 
ATOM      2  C   UNL     1      -4.667   2.833   8.255  0.00  0.00    +0.082 C 
ATOM      3  C   UNL     1      -4.701   4.321   8.058  0.00  0.00    +0.087 C 
ATOM      4  S   UNL     1      -5.135   4.819   6.398  0.00  0.00    -0.123 S 
ATOM      5  C   UNL     1      -3.769   4.508   5.355  0.00  0.00    +0.029 A 
ATOM      6  C   UNL     1      -3.575   5.404   4.295  0.00  0.00    +0.018 A 
ATOM      7  C   UNL     1      -2.532   5.263   3.410  0.00  0.00    +0.030 A 
ATOM      8  C   UNL     1      -1.655   4.203   3.560  0.00  0.00    +0.107 A 
ATOM      9  C   UNL     1      -1.832   3.316   4.594  0.00  0.00    +0.053 A 
ATOM     10  C   UNL     1      -2.886   3.450   5.513  0.00  0.00    +0.049 A 
ATOM     11  N   UNL     1      -2.926   2.481   6.481  0.00  0.00    -0.284 N 
ATOM     12  C   UNL     1      -3.487   2.202   7.604  0.00  0.00    +0.221 C 
ATOM     13  O   UNL     1      -2.978   1.292   8.225  0.00  0.00    -0.275 OA
ATOM     14  H   UNL     1      -2.326   1.760   6.236  0.00  0.00    +0.155 HD
ENDROOT
BRANCH   8  15
ATOM     15  S   UNL     1      -0.315   3.997   2.435  0.00  0.00    +0.061 S 
ATOM     16  O   UNL     1       0.679   3.247   3.121  0.00  0.00    -0.153 OA
ATOM     17  O   UNL     1      -0.053   5.278   1.877  0.00  0.00    -0.153 OA
BRANCH  15  18
ATOM     18  N   UNL     1      -0.858   3.043   1.196  0.00  0.00    -0.177 NA
ATOM     19  C   UNL     1      -0.731   1.581   1.267  0.00  0.00    +0.109 C 
ATOM     20  C   UNL     1      -0.013   1.086   0.008  0.00  0.00    +0.017 C 
ATOM     21  C   UNL     1      -0.754   1.593  -1.231  0.00  0.00    +0.003 C 
ATOM     22  C   UNL     1      -0.747   3.124  -1.240  0.00  0.00    +0.017 C 
ATOM     23  C   UNL     1      -1.474   3.642   0.004  0.00  0.00    +0.109 C 
ENDBRANCH  15  18
ENDBRANCH   8  15
TORSDOF 2
