REMARK  Name = ZINC39665992
REMARK  11 active torsions:
REMARK  status: ('A' for Active; 'I' for Inactive)
REMARK    1  A    between atoms: C_1  and  C_2
REMARK    2  A    between atoms: C_2  and  O_3
REMARK    3  A    between atoms: O_3  and  C_4
REMARK    4  A    between atoms: C_7  and  C_10
REMARK    5  A    between atoms: C_14  and  C_23
REMARK    6  A    between atoms: N_25  and  C_26
REMARK    7  A    between atoms: C_26  and  C_27
REMARK    8  A    between atoms: C_27  and  C_29
REMARK    9  A    between atoms: C_27  and  O_30
REMARK   10  A    between atoms: O_30  and  C_31
REMARK   11  A    between atoms: C_34  and  C_37
REMARK                            x       y       z     vdW  Elec       q    Type
REMARK                         _______ _______ _______ _____ _____    ______ ____
ROOT
ATOM      1  C   UNL     1       1.268  -5.632   1.754  0.00  0.00    +0.247 C 
ATOM      2  O   UNL     1       0.694  -6.326   0.938  0.00  0.00    -0.270 OA
ATOM      3  N   UNL     1       1.962  -6.205   2.757  0.00  0.00    -0.296 N 
ATOM      4  C   UNL     1       2.612  -5.537   3.909  0.00  0.00    +0.121 C 
ATOM      5  C   UNL     1       2.346  -6.476   5.107  0.00  0.00    +0.100 C 
ATOM      6  C   UNL     1       2.109  -7.858   4.476  0.00  0.00    -0.004 C 
ATOM      7  C   UNL     1       2.242  -7.646   2.961  0.00  0.00    +0.115 C 
ATOM      8  C   UNL     1       0.707  -8.359   4.811  0.00  0.00    -0.010 C 
ATOM      9  C   UNL     1       0.516  -9.759   4.221  0.00  0.00    -0.082 C 
ATOM     10  N   UNL     1       1.528 -10.668   4.775  0.00  0.00    +0.379 N 
ATOM     11  C   UNL     1       2.869 -10.230   4.370  0.00  0.00    -0.082 C 
ATOM     12  C   UNL     1       3.160  -8.850   4.966  0.00  0.00    -0.010 C 
ATOM     13  H   UNL     1       1.464 -10.666   5.782  0.00  0.00    -0.086 HD
ATOM     14  H   UNL     1       1.362 -11.602   4.432  0.00  0.00    -0.086 HD
ENDROOT
BRANCH   1  18
ATOM     15  C   UNL     1       1.087  -1.400   1.443  0.00  0.00    +0.121 A 
ATOM     16  C   UNL     1       2.134  -2.000   2.132  0.00  0.00    +0.046 A 
ATOM     17  C   UNL     1       2.197  -3.372   2.235  0.00  0.00    +0.016 A 
ATOM     18  C   UNL     1       1.205  -4.161   1.646  0.00  0.00    +0.037 A 
ATOM     19  C   UNL     1       0.153  -3.554   0.955  0.00  0.00    +0.016 A 
ATOM     20  C   UNL     1       0.095  -2.181   0.861  0.00  0.00    +0.046 A 
BRANCH  15  21
ATOM     21  O   UNL     1       1.029  -0.048   1.343  0.00  0.00    -0.492 OA
BRANCH  21  23
ATOM     22  C   UNL     1       1.846   2.190   1.748  0.00  0.00    +0.048 C 
ATOM     23  C   UNL     1       2.080   0.694   1.965  0.00  0.00    +0.225 C 
ENDBRANCH  21  23
ENDBRANCH  15  21
ENDBRANCH   1  18
BRANCH   5  24
ATOM     24  C   UNL     1       3.543  -6.512   6.022  0.00  0.00    +0.218 C 
ATOM     25  O   UNL     1       4.647  -6.264   5.586  0.00  0.00    -0.275 OA
ATOM     26  N   UNL     1       3.386  -6.820   7.324  0.00  0.00    -0.312 N 
ATOM     27  H   UNL     1       2.503  -7.018   7.673  0.00  0.00    +0.149 HD
BRANCH  26  28
ATOM     28  C   UNL     1       4.550  -6.855   8.214  0.00  0.00    +0.148 C 
BRANCH  28  29
ATOM     29  C   UNL     1       4.099  -7.228   9.628  0.00  0.00    +0.187 C 
ATOM     30  C   UNL     1       5.314  -7.265  10.557  0.00  0.00    +0.053 C 
BRANCH  29  31
ATOM     31  O   UNL     1       3.166  -6.255  10.103  0.00  0.00    -0.488 OA
BRANCH  31  32
ATOM     32  C   UNL     1       2.183  -6.697  10.931  0.00  0.00    +0.121 A 
ATOM     33  C   UNL     1       1.163  -5.839  11.317  0.00  0.00    +0.046 A 
ATOM     34  C   UNL     1       0.164  -6.290  12.158  0.00  0.00    +0.007 A 
ATOM     35  C   UNL     1       0.181  -7.595  12.616  0.00  0.00    -0.050 A 
ATOM     36  C   UNL     1       1.197  -8.451  12.233  0.00  0.00    +0.007 A 
ATOM     37  C   UNL     1       2.194  -8.007  11.386  0.00  0.00    +0.046 A 
ATOM     38  C   UNL     1      -0.909  -8.084  13.534  0.00  0.00    +0.044 C 
ENDBRANCH  31  32
ENDBRANCH  29  31
ENDBRANCH  28  29
ENDBRANCH  26  28
ENDBRANCH   5  24
TORSDOF 8
