REMARK  Name = ZINC58119611
REMARK  6 active torsions:
REMARK  status: ('A' for Active; 'I' for Inactive)
REMARK    1  A    between atoms: C_1  and  C_2
REMARK    2  A    between atoms: C_2  and  N_3
REMARK    3  A    between atoms: N_3  and  C_4
REMARK    4  A    between atoms: C_14  and  C_16
REMARK    5  A    between atoms: C_16  and  C_17
REMARK    6  A    between atoms: C_16  and  N_18
REMARK                            x       y       z     vdW  Elec       q    Type
REMARK                         _______ _______ _______ _____ _____    ______ ____
ROOT
ATOM      1  N   UNL     1       0.704  -0.121  -1.443  0.00  0.00    -0.270 N 
ATOM      2  C   UNL     1      -0.018  -0.785  -2.368  0.00  0.00    +0.241 C 
ATOM      3  O   UNL     1       0.540  -1.502  -3.172  0.00  0.00    -0.273 OA
ENDROOT
BRANCH   1   4
ATOM      4  C   UNL     1       0.056   0.626  -0.458  0.00  0.00    +0.044 A 
ATOM      5  C   UNL     1      -0.224   1.960  -0.667  0.00  0.00    +0.024 A 
ATOM      6  C   UNL     1      -0.869   2.713   0.309  0.00  0.00    +0.002 A 
ATOM      7  C   UNL     1      -1.241   2.157   1.495  0.00  0.00    +0.008 A 
ATOM      8  C   UNL     1      -0.974   0.800   1.748  0.00  0.00    -0.016 A 
ATOM      9  C   UNL     1      -0.323   0.022   0.760  0.00  0.00    +0.004 A 
ATOM     10  C   UNL     1      -0.062  -1.334   1.012  0.00  0.00    +0.010 A 
ATOM     11  C   UNL     1      -0.441  -1.884   2.198  0.00  0.00    +0.001 A 
ATOM     12  C   UNL     1      -1.088  -1.121   3.168  0.00  0.00    +0.001 A 
ATOM     13  C   UNL     1      -1.346   0.200   2.963  0.00  0.00    +0.008 A 
ENDBRANCH   1   4
BRANCH   1  15
ATOM     14  C   UNL     1       2.639  -1.438  -0.737  0.00  0.00    +0.025 C 
ATOM     15  C   UNL     1       2.167  -0.182  -1.473  0.00  0.00    +0.110 C 
ENDBRANCH   1  15
BRANCH   2  16
ATOM     16  C   UNL     1      -1.517  -0.637  -2.403  0.00  0.00    +0.169 C 
ATOM     17  C   UNL     1      -2.153  -1.663  -1.464  0.00  0.00    +0.038 C 
BRANCH  16  18
ATOM     18  N   UNL     1      -1.998  -0.861  -3.769  0.00  0.00    -0.212 N 
ATOM     19  C   UNL     1      -2.669   0.056  -4.498  0.00  0.00    +0.247 C 
ATOM     20  O   UNL     1      -2.978   1.179  -4.163  0.00  0.00    -0.273 OA
ATOM     21  C   UNL     1      -2.952  -0.615  -5.818  0.00  0.00    +0.113 C 
ATOM     22  C   UNL     1      -2.313   0.160  -6.978  0.00  0.00    +0.035 C 
ATOM     23  C   UNL     1      -3.322  -0.010  -8.143  0.00  0.00    +0.003 C 
ATOM     24  C   UNL     1      -4.693   0.052  -7.423  0.00  0.00    +0.003 C 
ATOM     25  C   UNL     1      -4.456  -0.692  -6.091  0.00  0.00    +0.035 C 
ATOM     26  N   UNL     1      -2.363  -1.948  -5.685  0.00  0.00    -0.285 N 
ATOM     27  C   UNL     1      -1.821  -2.000  -4.452  0.00  0.00    +0.310 C 
ATOM     28  O   UNL     1      -1.241  -2.971  -4.008  0.00  0.00    -0.252 OA
ATOM     29  H   UNL     1      -2.360  -2.653  -6.352  0.00  0.00    +0.151 HD
ENDBRANCH  16  18
ENDBRANCH   2  16
TORSDOF 4
