REMARK  Name = ZINC37438050
REMARK  4 active torsions:
REMARK  status: ('A' for Active; 'I' for Inactive)
REMARK    1  A    between atoms: C_1  and  C_2
REMARK    2  A    between atoms: C_2  and  N_3
REMARK    3  A    between atoms: C_7  and  C_21
REMARK    4  A    between atoms: C_11  and  C_12
REMARK                            x       y       z     vdW  Elec       q    Type
REMARK                         _______ _______ _______ _____ _____    ______ ____
ROOT
ATOM      1  N   UNL     1       0.698  -0.515   1.172  0.00  0.00    -0.324 N 
ATOM      2  C   UNL     1       2.038  -0.841   1.246  0.00  0.00    +0.069 A 
ATOM      3  C   UNL     1       3.076  -0.867   0.324  0.00  0.00    +0.028 A 
ATOM      4  C   UNL     1       4.338  -1.251   0.725  0.00  0.00    +0.005 A 
ATOM      5  C   UNL     1       4.577  -1.611   2.044  0.00  0.00    -0.048 A 
ATOM      6  C   UNL     1       3.570  -1.591   2.966  0.00  0.00    +0.033 A 
ATOM      7  C   UNL     1       2.281  -1.206   2.582  0.00  0.00    +0.090 A 
ATOM      8  N   UNL     1       1.107  -1.089   3.248  0.00  0.00    -0.227 NA
ATOM      9  C   UNL     1       0.173  -0.678   2.426  0.00  0.00    +0.144 A 
ATOM     10  C   UNL     1       5.964  -2.028   2.463  0.00  0.00    +0.044 C 
ENDROOT
BRANCH   9  11
ATOM     11  C   UNL     1      -1.237  -0.431   2.795  0.00  0.00    +0.049 C 
ATOM     12  C   UNL     1      -1.532   0.514   3.667  0.00  0.00    -0.043 C 
ATOM     13  C   UNL     1      -3.022   0.884   3.734  0.00  0.00    +0.079 C 
ATOM     14  S   UNL     1      -3.801  -0.516   2.860  0.00  0.00    -0.098 S 
ATOM     15  C   UNL     1      -2.314  -1.240   2.181  0.00  0.00    +0.099 C 
ATOM     16  N   UNL     1      -2.204  -2.240   1.350  0.00  0.00    -0.292 NA
ATOM     17  C   UNL     1      -3.281   0.852   5.249  0.00  0.00    +0.019 C 
ATOM     18  C   UNL     1      -2.037   1.600   5.800  0.00  0.00    +0.006 C 
ATOM     19  C   UNL     1      -0.945   1.452   4.718  0.00  0.00    +0.033 C 
ATOM     20  H   UNL     1      -1.327  -2.585   1.119  0.00  0.00    +0.187 HD
ENDBRANCH   9  11
BRANCH   1  22
ATOM     21  C   UNL     1      -0.051   1.457  -0.066  0.00  0.00    +0.027 C 
ATOM     22  C   UNL     1      -0.025  -0.073  -0.023  0.00  0.00    +0.120 C 
ENDBRANCH   1  22
TORSDOF 2
