REMARK  Name = ZINC25449713
REMARK  6 active torsions:
REMARK  status: ('A' for Active; 'I' for Inactive)
REMARK    1  A    between atoms: C_4  and  C_7
REMARK    2  A    between atoms: C_13  and  C_15
REMARK    3  A    between atoms: C_15  and  C_17
REMARK    4  A    between atoms: C_15  and  N_28
REMARK    5  A    between atoms: C_17  and  C_18
REMARK    6  A    between atoms: C_29  and  C_31
REMARK                            x       y       z     vdW  Elec       q    Type
REMARK                         _______ _______ _______ _____ _____    ______ ____
ROOT
ATOM      1  C   UNL     1       1.248   1.716  -0.001  0.00  0.00    +0.164 C 
ENDROOT
BRANCH   1   8
ATOM      2  C   UNL     1       3.005   5.396  -4.889  0.00  0.00    +0.134 A 
ATOM      3  N   UNL     1       1.770   5.019  -4.582  0.00  0.00    -0.140 NA
ATOM      4  N   UNL     1       1.558   4.279  -3.581  0.00  0.00    -0.125 NA
ATOM      5  C   UNL     1       2.541   3.861  -2.800  0.00  0.00    +0.188 A 
ATOM      6  S   UNL     1       3.916   4.588  -3.578  0.00  0.00    -0.030 S 
ATOM      7  N   UNL     1       2.489   3.055  -1.669  0.00  0.00    -0.262 N 
ATOM      8  C   UNL     1       1.304   2.590  -1.227  0.00  0.00    +0.239 C 
ATOM      9  O   UNL     1       0.283   2.874  -1.816  0.00  0.00    -0.273 OA
ATOM     10  H   UNL     1       3.415   2.797  -1.135  0.00  0.00    +0.157 HD
BRANCH   2  14
ATOM     11  C   UNL     1       4.400   7.829  -8.079  0.00  0.00    +0.000 A 
ATOM     12  C   UNL     1       3.047   7.566  -7.954  0.00  0.00    +0.001 A 
ATOM     13  C   UNL     1       2.588   6.777  -6.920  0.00  0.00    +0.010 A 
ATOM     14  C   UNL     1       3.490   6.243  -5.999  0.00  0.00    +0.009 A 
ATOM     15  C   UNL     1       4.853   6.517  -6.128  0.00  0.00    +0.010 A 
ATOM     16  C   UNL     1       5.300   7.303  -7.170  0.00  0.00    +0.001 A 
ENDBRANCH   2  14
ENDBRANCH   1   8
BRANCH   1  17
ATOM     17  N   UNL     1      -0.011   0.966   0.007  0.00  0.00    -0.299 N 
ATOM     18  C   UNL     1      -1.187   1.624   0.017  0.00  0.00    +0.251 C 
ATOM     19  O   UNL     1      -1.204   2.841   0.023  0.00  0.00    -0.270 OA
ATOM     20  H   UNL     1       0.004  -0.134   0.006  0.00  0.00    +0.150 HD
BRANCH  18  21
ATOM     21  C   UNL     1      -2.447   0.874   0.018  0.00  0.00    +0.074 A 
ATOM     22  C   UNL     1      -3.748   1.351   0.027  0.00  0.00    +0.021 A 
ATOM     23  C   UNL     1      -4.756   0.419   0.026  0.00  0.00    +0.008 A 
ATOM     24  C   UNL     1      -4.438  -0.902   0.017  0.00  0.00    +0.046 A 
ATOM     25  S   UNL     1      -2.704  -0.892   0.002  0.00  0.00    -0.092 S 
ENDBRANCH  18  21
ENDBRANCH   1  17
BRANCH   1  26
ATOM     26  C   UNL     1       1.329   2.589   1.253  0.00  0.00    +0.069 C 
BRANCH  26  27
ATOM     27  C   UNL     1       1.396   1.710   2.475  0.00  0.00    -0.020 A 
ATOM     28  C   UNL     1       0.363   1.333   3.245  0.00  0.00    +0.087 A 
ATOM     29  N   UNL     1       0.808   0.533   4.263  0.00  0.00    -0.360 N 
ATOM     30  H   UNL     1       0.094   0.124   4.992  0.00  0.00    +0.165 HD
ATOM     31  C   UNL     1       2.174   0.380   4.175  0.00  0.00    +0.047 A 
ATOM     32  C   UNL     1       2.602   1.111   3.051  0.00  0.00    +0.003 A 
ATOM     33  C   UNL     1       3.956   1.137   2.712  0.00  0.00    +0.010 A 
ATOM     34  C   UNL     1       4.859   0.452   3.475  0.00  0.00    +0.001 A 
ATOM     35  C   UNL     1       4.442  -0.270   4.585  0.00  0.00    +0.002 A 
ATOM     36  C   UNL     1       3.111  -0.309   4.937  0.00  0.00    +0.026 A 
ENDBRANCH  26  27
ENDBRANCH   1  26
TORSDOF 6
