REMARK  Name = ZINC04740165
REMARK  1 active torsions:
REMARK  status: ('A' for Active; 'I' for Inactive)
REMARK    1  A    between atoms: C_5  and  C_7
REMARK                            x       y       z     vdW  Elec       q    Type
REMARK                         _______ _______ _______ _____ _____    ______ ____
ROOT
ATOM      1  C   UNL     1       2.451   3.939  -0.000  0.00  0.00    +0.148 C 
ATOM      2  C   UNL     1       3.000   3.967  -1.404  0.00  0.00    +0.039 C 
ATOM      3  C   UNL     1       3.526   5.105  -1.907  0.00  0.00    +0.019 C 
ATOM      4  C   UNL     1       4.082   5.157  -3.307  0.00  0.00    +0.052 C 
ATOM      5  C   UNL     1       4.631   3.781  -3.692  0.00  0.00    +0.014 C 
ATOM      6  C   UNL     1       3.502   2.753  -3.570  0.00  0.00    +0.080 C 
ATOM      7  C   UNL     1       2.954   2.790  -2.168  0.00  0.00    +0.163 C 
ATOM      8  O   UNL     1       2.465   1.785  -1.691  0.00  0.00    -0.292 OA
ATOM      9  N   UNL     1       3.553   6.238  -1.137  0.00  0.00    -0.292 N 
ATOM     10  C   UNL     1       2.730   6.337  -0.038  0.00  0.00    +0.164 C 
ATOM     11  N   UNL     1       2.460   7.579   0.496  0.00  0.00    -0.268 N 
ATOM     12  C   UNL     1       1.634   7.691   1.601  0.00  0.00    +0.165 A 
ATOM     13  N   UNL     1       1.018   6.744   2.269  0.00  0.00    -0.225 NA
ATOM     14  C   UNL     1       0.238   7.001   3.342  0.00  0.00    +0.080 A 
ATOM     15  C   UNL     1      -0.472   6.080   4.146  0.00  0.00    +0.029 A 
ATOM     16  C   UNL     1      -1.228   6.512   5.204  0.00  0.00    +0.002 A 
ATOM     17  C   UNL     1      -1.325   7.858   5.524  0.00  0.00    +0.001 A 
ATOM     18  C   UNL     1      -0.643   8.787   4.759  0.00  0.00    +0.017 A 
ATOM     19  C   UNL     1       0.117   8.364   3.698  0.00  0.00    +0.041 A 
ATOM     20  S   UNL     1       1.130   9.165   2.478  0.00  0.00    -0.052 S 
ATOM     21  H   UNL     1       4.150   6.968  -1.366  0.00  0.00    +0.154 HD
ATOM     22  H   UNL     1       2.848   8.373   0.098  0.00  0.00    +0.157 HD
ATOM     23  N   UNL     1       2.153   5.297   0.571  0.00  0.00    -0.350 N 
ATOM     24  H   UNL     1       1.539   5.419   1.385  0.00  0.00    +0.163 HD
ENDROOT
BRANCH   1  29
ATOM     25  C   UNL     1      -0.079   1.196   0.575  0.00  0.00    +0.000 A 
ATOM     26  C   UNL     1      -1.219   1.752   0.026  0.00  0.00    +0.001 A 
ATOM     27  C   UNL     1      -1.171   3.012  -0.540  0.00  0.00    +0.020 A 
ATOM     28  C   UNL     1       0.017   3.722  -0.547  0.00  0.00    +0.046 A 
ATOM     29  C   UNL     1       1.157   3.167   0.007  0.00  0.00    -0.002 A 
ATOM     30  C   UNL     1       1.108   1.905   0.568  0.00  0.00    +0.007 A 
ATOM     31 CL   UNL     1       0.077   5.307  -1.251  0.00  0.00    -0.083 Cl
ENDBRANCH   1  29
TORSDOF 1
