REMARK  Name = ZINC16428512
REMARK  7 active torsions:
REMARK  status: ('A' for Active; 'I' for Inactive)
REMARK    1  A    between atoms: C_1  and  C_2
REMARK    2  A    between atoms: C_7  and  N_12
REMARK    3  A    between atoms: C_9  and  C_11
REMARK    4  A    between atoms: C_13  and  C_15
REMARK    5  A    between atoms: C_15  and  N_16
REMARK    6  A    between atoms: N_20  and  S_23
REMARK    7  A    between atoms: S_23  and  C_26
REMARK                            x       y       z     vdW  Elec       q    Type
REMARK                         _______ _______ _______ _____ _____    ______ ____
ROOT
ATOM      1  N   UNL     1       1.093   0.564   7.206  0.00  0.00    +0.386 N 
ATOM      2  C   UNL     1       1.555   1.904   6.852  0.00  0.00    -0.077 C 
ATOM      3  C   UNL     1       0.712   2.930   7.577  0.00  0.00    -0.001 C 
ATOM      4  C   UNL     1       1.399   3.317   8.899  0.00  0.00    +0.107 C 
ATOM      5  N   UNL     1       1.996   2.134   9.553  0.00  0.00    -0.178 NA
ATOM      6  C   UNL     1       1.320   0.855   9.607  0.00  0.00    +0.091 C 
ATOM      7  C   UNL     1       1.690   0.014   8.362  0.00  0.00    -0.061 C 
ATOM      8  H   UNL     1       0.095   0.601   7.350  0.00  0.00    -0.081 HD
ENDROOT
BRANCH   5   9
ATOM      9  S   UNL     1       3.491   2.277  10.249  0.00  0.00    +0.061 S 
ATOM     10  O   UNL     1       4.050   0.971  10.285  0.00  0.00    -0.153 OA
ATOM     11  O   UNL     1       4.138   3.365   9.603  0.00  0.00    -0.153 OA
BRANCH   9  12
ATOM     12  C   UNL     1       3.241   2.764  11.925  0.00  0.00    +0.106 A 
ATOM     13  C   UNL     1       3.180   4.105  12.252  0.00  0.00    +0.031 A 
ATOM     14  C   UNL     1       2.984   4.488  13.566  0.00  0.00    +0.040 A 
ATOM     15  C   UNL     1       2.848   3.527  14.553  0.00  0.00    +0.124 A 
ATOM     16  C   UNL     1       2.909   2.184  14.224  0.00  0.00    +0.040 A 
ATOM     17  C   UNL     1       3.100   1.803  12.909  0.00  0.00    +0.031 A 
ATOM     18  F   UNL     1       2.656   3.900  15.838  0.00  0.00    -0.205 F 
ENDBRANCH   9  12
ENDBRANCH   5   9
BRANCH   1  19
ATOM     19  C   UNL     1       1.363  -0.333   6.074  0.00  0.00    +0.019 C 
BRANCH  19  21
ATOM     20  N   UNL     1       0.735  -0.503   3.687  0.00  0.00    -0.314 N 
ATOM     21  C   UNL     1       0.634   0.166   4.853  0.00  0.00    +0.197 C 
ATOM     22  O   UNL     1      -0.044   1.170   4.919  0.00  0.00    -0.278 OA
ATOM     23  H   UNL     1       1.276  -1.306   3.634  0.00  0.00    +0.149 HD
BRANCH  20  29
ATOM     24  C   UNL     1      -0.019   1.526   0.010  0.00  0.00    +0.008 C 
ATOM     25  C   UNL     1       0.002  -0.004   0.002  0.00  0.00    -0.009 C 
ATOM     26  C   UNL     1      -1.433  -0.534   0.013  0.00  0.00    +0.003 C 
ATOM     27  C   UNL     1      -2.149  -0.040   1.272  0.00  0.00    +0.002 C 
ATOM     28  C   UNL     1      -1.409  -0.547   2.511  0.00  0.00    +0.022 C 
ATOM     29  C   UNL     1       0.026  -0.018   2.500  0.00  0.00    +0.076 C 
ATOM     30  C   UNL     1       0.742  -0.511   1.242  0.00  0.00    +0.009 C 
ATOM     31  C   UNL     1       2.178   0.019   1.231  0.00  0.00    +0.009 C 
ENDBRANCH  20  29
ENDBRANCH  19  21
ENDBRANCH   1  19
TORSDOF 5
