REMARK  Name = ZINC32735900
REMARK  4 active torsions:
REMARK  status: ('A' for Active; 'I' for Inactive)
REMARK    1  A    between atoms: C_15  and  N_18
REMARK    2  A    between atoms: N_18  and  C_19
REMARK    3  A    between atoms: C_19  and  C_20
REMARK    4  A    between atoms: C_20  and  C_21
REMARK                            x       y       z     vdW  Elec       q    Type
REMARK                         _______ _______ _______ _____ _____    ______ ____
ROOT
ATOM      1  C   UNL     1       9.050  -3.733 -10.625  0.00  0.00    +0.002 A 
ATOM      2  C   UNL     1      10.102  -4.327  -9.943  0.00  0.00    +0.002 A 
ATOM      3  C   UNL     1      10.128  -4.342  -8.577  0.00  0.00    +0.030 A 
ATOM      4  C   UNL     1       9.086  -3.754  -7.854  0.00  0.00    +0.091 A 
ATOM      5  C   UNL     1       8.020  -3.152  -8.544  0.00  0.00    +0.068 A 
ATOM      6  C   UNL     1       8.011  -3.146  -9.932  0.00  0.00    +0.028 A 
ATOM      7  N   UNL     1       7.157  -2.672  -7.576  0.00  0.00    -0.322 N 
ATOM      8  H   UNL     1       6.231  -2.158  -7.871  0.00  0.00    +0.169 HD
ATOM      9  C   UNL     1       7.704  -2.974  -6.362  0.00  0.00    +0.233 A 
ATOM     10  N   UNL     1       8.833  -3.612  -6.528  0.00  0.00    -0.211 NA
ATOM     11  N   UNL     1       7.141  -2.657  -5.133  0.00  0.00    -0.161 N 
ATOM     12  C   UNL     1       7.772  -3.013  -3.997  0.00  0.00    +0.295 A 
ATOM     13  O   UNL     1       8.835  -3.613  -4.047  0.00  0.00    -0.264 OA
ATOM     14  C   UNL     1       7.204  -2.686  -2.757  0.00  0.00    +0.129 A 
ATOM     15  C   UNL     1       5.997  -2.011  -2.730  0.00  0.00    +0.071 A 
ATOM     16  C   UNL     1       5.372  -1.659  -3.946  0.00  0.00    +0.158 A 
ATOM     17  N   UNL     1       5.923  -1.970  -5.085  0.00  0.00    -0.167 NA
ATOM     18 CL   UNL     1       8.001  -3.127  -1.280  0.00  0.00    -0.076 Cl
ENDROOT
BRANCH  15  19
ATOM     19  N   UNL     1       5.410  -1.679  -1.520  0.00  0.00    -0.341 N 
ATOM     20  H   UNL     1       5.901  -1.956  -0.576  0.00  0.00    +0.146 HD
BRANCH  19  21
ATOM     21  C   UNL     1       4.134  -0.958  -1.499  0.00  0.00    +0.106 C 
BRANCH  21  22
ATOM     22  C   UNL     1       3.709  -0.717  -0.049  0.00  0.00    +0.054 C 
BRANCH  22  23
ATOM     23  C   UNL     1       2.397   0.024  -0.027  0.00  0.00    -0.042 A 
ATOM     24  C   UNL     1       1.207  -0.680  -0.016  0.00  0.00    +0.007 A 
ATOM     25  C   UNL     1       0.002  -0.004   0.002  0.00  0.00    +0.050 A 
ATOM     26  C   UNL     1      -0.017   1.383   0.010  0.00  0.00    +0.162 A 
ATOM     27  C   UNL     1       1.179   2.090   0.002  0.00  0.00    +0.162 A 
ATOM     28  C   UNL     1       2.385   1.406  -0.018  0.00  0.00    +0.053 A 
ATOM     29  O   UNL     1       1.184   3.451   0.018  0.00  0.00    -0.485 OA
ATOM     30  C   UNL     1      -0.040   4.103  -0.340  0.00  0.00    +0.270 C 
ATOM     31  C   UNL     1      -1.189   3.413   0.408  0.00  0.00    +0.270 C 
ATOM     32  O   UNL     1      -1.212   2.035   0.019  0.00  0.00    -0.485 OA
ENDBRANCH  22  23
ENDBRANCH  21  22
ENDBRANCH  19  21
ENDBRANCH  15  19
TORSDOF 4
