REMARK  Name = ZINC44793287
REMARK  11 active torsions:
REMARK  status: ('A' for Active; 'I' for Inactive)
REMARK    1  A    between atoms: C_1  and  C_2
REMARK    2  A    between atoms: C_2  and  O_3
REMARK    3  A    between atoms: O_3  and  C_4
REMARK    4  A    between atoms: C_4  and  C_6
REMARK    5  A    between atoms: C_7  and  C_22
REMARK    6  A    between atoms: C_12  and  C_14
REMARK    7  A    between atoms: C_17  and  O_20
REMARK    8  A    between atoms: O_20  and  C_21
REMARK    9  A    between atoms: C_22  and  S_23
REMARK   10  A    between atoms: S_23  and  C_24
REMARK   11  A    between atoms: N_25  and  C_26
REMARK                            x       y       z     vdW  Elec       q    Type
REMARK                         _______ _______ _______ _____ _____    ______ ____
ROOT
ATOM      1  C   UNL     1       1.331  -2.340  -2.530  0.00  0.00    +0.079 C 
ATOM      2  C   UNL     1       1.628  -3.654  -2.615  0.00  0.00    +0.034 C 
ATOM      3  N   UNL     1       2.351  -4.147  -3.663  0.00  0.00    -0.272 N 
ATOM      4  C   UNL     1       2.815  -3.390  -4.666  0.00  0.00    +0.304 C 
ATOM      5  O   UNL     1       3.451  -3.920  -5.556  0.00  0.00    -0.252 OA
ATOM      6  N   UNL     1       2.599  -2.061  -4.720  0.00  0.00    -0.288 N 
ATOM      7  C   UNL     1       1.823  -1.432  -3.639  0.00  0.00    +0.144 C 
ATOM      8  H   UNL     1       2.541  -5.098  -3.682  0.00  0.00    +0.156 HD
ATOM      9  H   UNL     1       2.945  -1.532  -5.456  0.00  0.00    +0.151 HD
ENDROOT
BRANCH   7  10
ATOM     10  C   UNL     1       0.623  -0.757  -4.254  0.00  0.00    -0.022 A 
ATOM     11  C   UNL     1      -0.157  -1.438  -5.170  0.00  0.00    +0.009 A 
ATOM     12  C   UNL     1      -1.257  -0.822  -5.735  0.00  0.00    +0.046 A 
ATOM     13  C   UNL     1      -1.578   0.481  -5.383  0.00  0.00    +0.120 A 
ATOM     14  C   UNL     1      -0.793   1.161  -4.463  0.00  0.00    +0.046 A 
ATOM     15  C   UNL     1       0.302   0.539  -3.897  0.00  0.00    +0.009 A 
BRANCH  13  16
ATOM     16  O   UNL     1      -2.659   1.089  -5.938  0.00  0.00    -0.495 OA
ATOM     17  C   UNL     1      -2.929   2.432  -5.528  0.00  0.00    +0.277 C 
ENDBRANCH  13  16
ENDBRANCH   7  10
BRANCH   1  18
ATOM     18  C   UNL     1       0.580  -1.828  -1.445  0.00  0.00    +0.339 C 
ATOM     19  O   UNL     1       1.144  -1.251  -0.534  0.00  0.00    -0.245 OA
BRANCH  18  20
ATOM     20  O   UNL     1      -0.760  -1.980  -1.421  0.00  0.00    -0.462 OA
BRANCH  20  22
ATOM     21  C   UNL     1      -2.953  -1.707  -0.442  0.00  0.00    +0.048 C 
ATOM     22  C   UNL     1      -1.454  -1.439  -0.295  0.00  0.00    +0.229 C 
ENDBRANCH  20  22
ENDBRANCH  18  20
ENDBRANCH   1  18
BRANCH   2  23
ATOM     23  C   UNL     1       1.153  -4.593  -1.536  0.00  0.00    +0.128 C 
BRANCH  23  24
ATOM     24  S   UNL     1      -0.251  -5.562  -2.152  0.00  0.00    -0.087 S 
BRANCH  24  25
ATOM     25  C   UNL     1      -0.684  -6.596  -0.793  0.00  0.00    +0.125 C 
ATOM     26  N   UNL     1      -1.677  -7.436  -0.902  0.00  0.00    -0.371 N 
ATOM     27  C   UNL     1      -2.037  -8.296   0.228  0.00  0.00    +0.141 C 
ATOM     28  N   UNL     1       0.024  -6.518   0.384  0.00  0.00    -0.339 N 
ATOM     29  H   UNL     1       0.762  -5.894   0.466  0.00  0.00    +0.144 HD
ATOM     30  H   UNL     1      -0.214  -7.088   1.132  0.00  0.00    +0.144 HD
ATOM     31  H   UNL     1      -2.176  -7.490  -1.732  0.00  0.00    +0.161 HD
ENDBRANCH  24  25
ENDBRANCH  23  24
ENDBRANCH   2  23
TORSDOF 8
