REMARK  Name = ZINC38002458
REMARK  10 active torsions:
REMARK  status: ('A' for Active; 'I' for Inactive)
REMARK    1  A    between atoms: C_1  and  C_2
REMARK    2  A    between atoms: C_2  and  C_4
REMARK    3  A    between atoms: C_2  and  N_14
REMARK    4  A    between atoms: C_7  and  O_12
REMARK    5  A    between atoms: C_9  and  O_10
REMARK    6  A    between atoms: O_10  and  C_11
REMARK    7  A    between atoms: O_12  and  C_13
REMARK    8  A    between atoms: N_14  and  C_15
REMARK    9  A    between atoms: C_15  and  C_17
REMARK   10  A    between atoms: C_15  and  C_18
REMARK                            x       y       z     vdW  Elec       q    Type
REMARK                         _______ _______ _______ _____ _____    ______ ____
ROOT
ATOM      1  C   UNL     1       0.313   1.618  -0.024  0.00  0.00    -0.009 C 
ATOM      2  C   UNL     1       0.083   0.105  -0.009  0.00  0.00    -0.040 C 
ENDROOT
BRANCH   2   3
ATOM      3  C   UNL     1       0.818  -0.504   1.157  0.00  0.00    -0.020 A 
ATOM      4  C   UNL     1       2.085  -1.025   0.978  0.00  0.00    +0.009 A 
ATOM      5  C   UNL     1       2.761  -1.584   2.046  0.00  0.00    +0.046 A 
ATOM      6  C   UNL     1       2.169  -1.623   3.300  0.00  0.00    +0.124 A 
ATOM      7  C   UNL     1       0.898  -1.101   3.482  0.00  0.00    +0.091 A 
ATOM      8  C   UNL     1       0.224  -0.535   2.411  0.00  0.00    +0.125 A 
BRANCH   8   9
ATOM      9  O   UNL     1      -1.020  -0.017   2.587  0.00  0.00    -0.495 OA
ATOM     10  C   UNL     1      -1.570  -0.083   3.904  0.00  0.00    +0.277 C 
ENDBRANCH   8   9
BRANCH   6  11
ATOM     11  O   UNL     1       2.835  -2.173   4.349  0.00  0.00    -0.495 OA
ATOM     12  C   UNL     1       4.141  -2.692   4.089  0.00  0.00    +0.277 C 
ENDBRANCH   6  11
ENDBRANCH   2   3
BRANCH   2  13
ATOM     13  N   UNL     1       0.583  -0.478  -1.261  0.00  0.00    +0.388 N 
ATOM     14  H   UNL     1       1.544  -0.205  -1.399  0.00  0.00    -0.084 HD
ATOM     15  H   UNL     1       0.522  -1.484  -1.212  0.00  0.00    -0.084 HD
BRANCH  13  16
ATOM     16  C   UNL     1      -0.230   0.006  -2.386  0.00  0.00    -0.036 C 
ATOM     17  C   UNL     1       0.374  -0.489  -3.701  0.00  0.00    -0.008 C 
BRANCH  16  18
ATOM     18  C   UNL     1      -1.637  -0.517  -2.251  0.00  0.00    -0.023 A 
ATOM     19  C   UNL     1      -2.809   0.114  -2.501  0.00  0.00    +0.010 A 
ATOM     20  C   UNL     1      -3.995  -0.570  -2.305  0.00  0.00    +0.023 A 
ATOM     21  C   UNL     1      -3.948  -1.853  -1.867  0.00  0.00    +0.055 A 
ATOM     22  S   UNL     1      -2.190  -2.131  -1.727  0.00  0.00    -0.088 S 
ATOM     23 BR   UNL     1      -5.375  -3.041  -1.506  0.00  0.00    -0.043 Br
ENDBRANCH  16  18
ENDBRANCH  13  16
ENDBRANCH   2  13
TORSDOF 6
