REMARK  Name = ZINC00427416
REMARK  5 active torsions:
REMARK  status: ('A' for Active; 'I' for Inactive)
REMARK    1  A    between atoms: C_1  and  C_2
REMARK    2  A    between atoms: C_2  and  C_3
REMARK    3  A    between atoms: C_2  and  C_4
REMARK    4  A    between atoms: C_7  and  N_10
REMARK    5  A    between atoms: C_17  and  C_25
REMARK                            x       y       z     vdW  Elec       q    Type
REMARK                         _______ _______ _______ _____ _____    ______ ____
ROOT
ATOM      1  N   UNL     1       1.672   5.924  -1.576  0.00  0.00    -0.216 N 
ATOM      2  C   UNL     1       2.081   4.720  -2.003  0.00  0.00    +0.310 C 
ATOM      3  O   UNL     1       2.158   4.518  -3.200  0.00  0.00    -0.252 OA
ATOM      4  N   UNL     1       2.408   3.729  -1.157  0.00  0.00    -0.292 N 
ATOM      5  C   UNL     1       2.249   3.925   0.293  0.00  0.00    +0.114 C 
ATOM      6  C   UNL     1       2.625   5.382   0.608  0.00  0.00    +0.096 C 
ATOM      7  C   UNL     1       1.636   6.272  -0.159  0.00  0.00    +0.185 C 
ATOM      8  O   UNL     1       0.332   6.075   0.380  0.00  0.00    -0.468 OA
ATOM      9  C   UNL     1      -0.086   4.808   0.633  0.00  0.00    +0.128 A 
ATOM     10  C   UNL     1       0.784   3.733   0.616  0.00  0.00    +0.015 A 
ATOM     11  C   UNL     1       0.321   2.459   0.891  0.00  0.00    +0.009 A 
ATOM     12  C   UNL     1      -1.015   2.254   1.181  0.00  0.00    +0.001 A 
ATOM     13  C   UNL     1      -1.891   3.324   1.189  0.00  0.00    +0.004 A 
ATOM     14  C   UNL     1      -1.431   4.597   0.920  0.00  0.00    +0.046 A 
ATOM     15  C   UNL     1       2.038   7.739   0.008  0.00  0.00    +0.079 C 
ATOM     16  H   UNL     1       2.748   2.888  -1.501  0.00  0.00    +0.151 HD
ENDROOT
BRANCH   1  20
ATOM     17  C   UNL     1       0.466   8.759  -4.381  0.00  0.00    -0.045 A 
ATOM     18  C   UNL     1       1.808   8.608  -4.087  0.00  0.00    +0.006 A 
ATOM     19  C   UNL     1       2.211   7.669  -3.157  0.00  0.00    +0.024 A 
ATOM     20  C   UNL     1       1.267   6.877  -2.519  0.00  0.00    +0.041 A 
ATOM     21  C   UNL     1      -0.080   7.027  -2.821  0.00  0.00    +0.024 A 
ATOM     22  C   UNL     1      -0.477   7.971  -3.747  0.00  0.00    +0.006 A 
BRANCH  17  24
ATOM     23  C   UNL     1      -0.703   9.088  -6.543  0.00  0.00    +0.012 C 
ATOM     24  C   UNL     1       0.029   9.785  -5.395  0.00  0.00    +0.013 C 
ATOM     25  C   UNL     1      -0.909  10.793  -4.730  0.00  0.00    +0.012 C 
ENDBRANCH  17  24
ENDBRANCH   1  20
TORSDOF 2
