REMARK  Name = ZINC57653486
REMARK  2 active torsions:
REMARK  status: ('A' for Active; 'I' for Inactive)
REMARK    1  A    between atoms: C_4  and  C_8
REMARK    2  A    between atoms: N_14  and  C_15
REMARK                            x       y       z     vdW  Elec       q    Type
REMARK                         _______ _______ _______ _____ _____    ______ ____
ROOT
ATOM      1  C   UNL     1       3.713  -0.710  -0.038  0.00  0.00    +0.134 C 
ATOM      2  C   UNL     1       3.976  -1.379   1.326  0.00  0.00    +0.133 C 
ATOM      3  N   UNL     1       4.044  -2.812   1.007  0.00  0.00    -0.297 N 
ATOM      4  C   UNL     1       3.857  -2.980  -0.309  0.00  0.00    +0.307 C 
ATOM      5  O   UNL     1       3.864  -4.071  -0.845  0.00  0.00    -0.252 OA
ATOM      6  N   UNL     1       3.662  -1.835  -0.982  0.00  0.00    -0.247 N 
ATOM      7  H   UNL     1       4.200  -3.524   1.648  0.00  0.00    +0.150 HD
ENDROOT
BRANCH   1  11
ATOM      8  C   UNL     1      -0.017   1.378   0.010  0.00  0.00    +0.004 A 
ATOM      9  C   UNL     1       1.170   2.086   0.002  0.00  0.00    +0.039 A 
ATOM     10  C   UNL     1       2.379   1.411  -0.013  0.00  0.00    +0.130 A 
ATOM     11  C   UNL     1       2.398   0.026  -0.021  0.00  0.00    +0.028 A 
ATOM     12  C   UNL     1       1.209  -0.680  -0.013  0.00  0.00    +0.049 A 
ATOM     13  C   UNL     1       0.002  -0.004   0.002  0.00  0.00    +0.020 A 
ATOM     14 CL   UNL     1       1.232  -2.416  -0.022  0.00  0.00    -0.083 Cl
ATOM     15  F   UNL     1       3.539   2.103  -0.021  0.00  0.00    -0.205 F 
ENDBRANCH   1  11
BRANCH   6  16
ATOM     16  C   UNL     1       3.444  -1.728  -2.362  0.00  0.00    +0.039 A 
ATOM     17  C   UNL     1       3.260  -0.480  -2.941  0.00  0.00    +0.026 A 
ATOM     18  C   UNL     1       3.046  -0.376  -4.302  0.00  0.00    +0.040 A 
ATOM     19  C   UNL     1       3.015  -1.516  -5.088  0.00  0.00    +0.124 A 
ATOM     20  C   UNL     1       3.198  -2.762  -4.511  0.00  0.00    +0.040 A 
ATOM     21  C   UNL     1       3.418  -2.869  -3.152  0.00  0.00    +0.026 A 
ATOM     22  F   UNL     1       2.806  -1.413  -6.418  0.00  0.00    -0.205 F 
ENDBRANCH   6  16
TORSDOF 2
