REMARK  Name = ZINC16041905
REMARK  6 active torsions:
REMARK  status: ('A' for Active; 'I' for Inactive)
REMARK    1  A    between atoms: C_1  and  C_2
REMARK    2  A    between atoms: C_11  and  N_13
REMARK    3  A    between atoms: N_13  and  C_14
REMARK    4  A    between atoms: C_14  and  C_26
REMARK    5  A    between atoms: C_20  and  C_21
REMARK    6  A    between atoms: C_20  and  C_22
REMARK                            x       y       z     vdW  Elec       q    Type
REMARK                         _______ _______ _______ _____ _____    ______ ____
ROOT
ATOM      1  N   UNL     1       0.003  -0.005   0.020  0.00  0.00    -0.318 N 
ATOM      2  H   UNL     1      -0.617  -0.158   0.751  0.00  0.00    +0.152 HD
ENDROOT
BRANCH   1  13
ATOM      3  C   UNL     1      -0.269   4.067  -5.089  0.00  0.00    +0.045 C 
ATOM      4  C   UNL     1      -1.121   3.914  -3.855  0.00  0.00    -0.033 A 
ATOM      5  C   UNL     1      -2.191   4.723  -3.641  0.00  0.00    +0.096 A 
ATOM      6  C   UNL     1      -2.972   4.560  -2.478  0.00  0.00    +0.337 A 
ATOM      7  O   UNL     1      -3.928   5.292  -2.298  0.00  0.00    -0.245 OA
ATOM      8  O   UNL     1      -2.688   3.619  -1.563  0.00  0.00    -0.422 OA
ATOM      9  C   UNL     1      -1.639   2.783  -1.716  0.00  0.00    +0.141 A 
ATOM     10  C   UNL     1      -0.817   2.889  -2.854  0.00  0.00    +0.021 A 
ATOM     11  C   UNL     1       0.272   2.024  -3.016  0.00  0.00    +0.013 A 
ATOM     12  C   UNL     1       0.533   1.078  -2.069  0.00  0.00    +0.024 A 
ATOM     13  C   UNL     1      -0.277   0.967  -0.939  0.00  0.00    +0.035 A 
ATOM     14  C   UNL     1      -1.363   1.813  -0.765  0.00  0.00    +0.070 A 
ENDBRANCH   1  13
BRANCH   1  15
ATOM     15  C   UNL     1       1.147  -0.743  -0.070  0.00  0.00    +0.012 C 
ATOM     16  C   UNL     1       1.077  -2.092  -0.172  0.00  0.00    +0.016 C 
ATOM     17  C   UNL     1       2.267  -3.009  -0.277  0.00  0.00    +0.034 C 
ATOM     18  C   UNL     1       1.723  -4.442  -0.366  0.00  0.00    +0.011 C 
ATOM     19  C   UNL     1       2.552  -3.993   0.860  0.00  0.00    -0.024 C 
ATOM     20  C   UNL     1       3.976  -4.538   0.981  0.00  0.00    +0.012 C 
ATOM     21  C   UNL     1       1.813  -3.776   2.182  0.00  0.00    +0.012 C 
ATOM     22  C   UNL     1       0.195  -4.300  -0.314  0.00  0.00    +0.084 C 
ATOM     23  C   UNL     1      -0.107  -2.831  -0.189  0.00  0.00    +0.161 C 
ATOM     24  O   UNL     1      -1.223  -2.355  -0.116  0.00  0.00    -0.292 OA
ATOM     25  C   UNL     1       2.489  -0.056  -0.056  0.00  0.00    +0.061 C 
ENDBRANCH   1  15
TORSDOF 2
