REMARK  Name = ZINC27754259
REMARK  6 active torsions:
REMARK  status: ('A' for Active; 'I' for Inactive)
REMARK    1  A    between atoms: C_4  and  C_7
REMARK    2  A    between atoms: C_7  and  O_34
REMARK    3  A    between atoms: C_8  and  C_28
REMARK    4  A    between atoms: C_10  and  C_16
REMARK    5  A    between atoms: C_19  and  C_21
REMARK    6  A    between atoms: C_28  and  C_30
REMARK                            x       y       z     vdW  Elec       q    Type
REMARK                         _______ _______ _______ _____ _____    ______ ____
ROOT
ATOM      1  C   UNL     1       1.292   3.591   0.196  0.00  0.00    +0.172 C 
ATOM      2  C   UNL     1       0.054   3.868  -0.664  0.00  0.00    +0.147 C 
ATOM      3  C   UNL     1      -1.163   3.234   0.016  0.00  0.00    +0.156 C 
ATOM      4  N   UNL     1      -0.903   1.809   0.230  0.00  0.00    -0.289 N 
ATOM      5  C   UNL     1       0.342   1.348   0.420  0.00  0.00    +0.303 C 
ATOM      6  O   UNL     1       0.501   0.158   0.608  0.00  0.00    -0.253 OA
ATOM      7  N   UNL     1       1.419   2.148   0.405  0.00  0.00    -0.267 N 
ATOM      8  H   UNL     1      -1.738   1.093   0.237  0.00  0.00    +0.151 HD
ATOM      9  H   UNL     1       2.412   1.698   0.554  0.00  0.00    +0.153 HD
ENDROOT
BRANCH   1  13
ATOM     10  C   UNL     1       4.776   5.055  -1.798  0.00  0.00    +0.000 A 
ATOM     11  C   UNL     1       4.346   3.760  -2.019  0.00  0.00    +0.000 A 
ATOM     12  C   UNL     1       3.218   3.286  -1.374  0.00  0.00    +0.008 A 
ATOM     13  C   UNL     1       2.521   4.107  -0.508  0.00  0.00    +0.003 A 
ATOM     14  C   UNL     1       2.948   5.404  -0.291  0.00  0.00    +0.008 A 
ATOM     15  C   UNL     1       4.078   5.876  -0.932  0.00  0.00    +0.000 A 
ENDBRANCH   1  13
BRANCH   3  16
ATOM     16  C   UNL     1      -2.374   3.395  -0.867  0.00  0.00    +0.127 A 
ATOM     17  C   UNL     1      -3.314   4.352  -0.743  0.00  0.00    +0.047 A 
ATOM     18  C   UNL     1      -4.260   4.136  -1.766  0.00  0.00    +0.050 A 
ATOM     19  C   UNL     1      -3.840   3.048  -2.464  0.00  0.00    +0.135 A 
ATOM     20  O   UNL     1      -2.692   2.612  -1.911  0.00  0.00    -0.458 OA
BRANCH  19  21
ATOM     21  C   UNL     1      -4.522   2.450  -3.631  0.00  0.00    +0.017 A 
ATOM     22  C   UNL     1      -5.713   3.003  -4.106  0.00  0.00    +0.013 A 
ATOM     23  C   UNL     1      -6.342   2.444  -5.199  0.00  0.00    +0.021 A 
ATOM     24  C   UNL     1      -5.800   1.330  -5.818  0.00  0.00    +0.041 A 
ATOM     25  C   UNL     1      -4.622   0.774  -5.348  0.00  0.00    +0.021 A 
ATOM     26  C   UNL     1      -3.981   1.327  -4.259  0.00  0.00    +0.013 A 
ATOM     27 CL   UNL     1      -6.602   0.627  -7.188  0.00  0.00    -0.084 Cl
ENDBRANCH  19  21
ENDBRANCH   3  16
BRANCH   2  28
ATOM     28  C   UNL     1       0.242   3.264  -2.032  0.00  0.00    +0.245 C 
ATOM     29  O   UNL     1       0.417   2.075  -2.147  0.00  0.00    -0.287 OA
BRANCH  28  30
ATOM     30  C   UNL     1       0.211   4.143  -3.255  0.00  0.00    +0.451 C 
ATOM     31  F   UNL     1       0.295   3.349  -4.403  0.00  0.00    -0.163 F 
ATOM     32  F   UNL     1      -0.984   4.870  -3.276  0.00  0.00    -0.163 F 
ATOM     33  F   UNL     1       1.295   5.028  -3.220  0.00  0.00    -0.163 F 
ENDBRANCH  28  30
ENDBRANCH   2  28
BRANCH   1  34
ATOM     34  O   UNL     1       1.154   4.246   1.458  0.00  0.00    -0.367 OA
ATOM     35  H   UNL     1       0.309   3.997   2.117  0.00  0.00    +0.212 HD
ENDBRANCH   1  34
TORSDOF 6
