REMARK  Name = ZINC05226412
REMARK  5 active torsions:
REMARK  status: ('A' for Active; 'I' for Inactive)
REMARK    1  A    between atoms: C_1  and  C_2
REMARK    2  A    between atoms: C_2  and  C_3
REMARK    3  A    between atoms: C_3  and  C_22
REMARK    4  A    between atoms: N_6  and  C_10
REMARK    5  A    between atoms: C_10  and  C_11
REMARK                            x       y       z     vdW  Elec       q    Type
REMARK                         _______ _______ _______ _____ _____    ______ ____
ROOT
ATOM      1  C   UNL     1       0.718  -0.497  -1.257  0.00  0.00    +0.138 C 
ATOM      2  C   UNL     1       2.144   0.016  -1.295  0.00  0.00    +0.251 C 
ATOM      3  O   UNL     1       3.025  -0.210  -0.494  0.00  0.00    -0.272 OA
ATOM      4  N   UNL     1       2.228   0.775  -2.405  0.00  0.00    -0.219 N 
ATOM      5  C   UNL     1       1.066   0.812  -3.067  0.00  0.00    +0.310 C 
ATOM      6  O   UNL     1       0.895   1.432  -4.099  0.00  0.00    -0.252 OA
ATOM      7  N   UNL     1       0.107   0.087  -2.463  0.00  0.00    -0.281 N 
ATOM      8  H   UNL     1      -0.807  -0.029  -2.764  0.00  0.00    +0.152 HD
ENDROOT
BRANCH   1   9
ATOM      9  C   UNL     1       0.691  -2.003  -1.325  0.00  0.00    -0.015 A 
ATOM     10  C   UNL     1       0.664  -2.747  -0.160  0.00  0.00    +0.006 A 
ATOM     11  C   UNL     1       0.639  -4.128  -0.222  0.00  0.00    +0.000 A 
ATOM     12  C   UNL     1       0.641  -4.764  -1.449  0.00  0.00    +0.000 A 
ATOM     13  C   UNL     1       0.667  -4.020  -2.614  0.00  0.00    +0.000 A 
ATOM     14  C   UNL     1       0.688  -2.639  -2.552  0.00  0.00    +0.006 A 
ENDBRANCH   1   9
BRANCH   1  16
ATOM     15  C   UNL     1      -0.019   1.526   0.010  0.00  0.00    +0.007 C 
ATOM     16  C   UNL     1       0.002  -0.004   0.002  0.00  0.00    +0.037 C 
ENDBRANCH   1  16
BRANCH   4  17
ATOM     17  C   UNL     1       3.442   1.474  -2.834  0.00  0.00    +0.157 C 
BRANCH  17  18
ATOM     18  C   UNL     1       4.250   0.572  -3.732  0.00  0.00    +0.014 A 
ATOM     19  C   UNL     1       5.334  -0.117  -3.224  0.00  0.00    +0.028 A 
ATOM     20  C   UNL     1       6.077  -0.944  -4.047  0.00  0.00    +0.042 A 
ATOM     21  C   UNL     1       5.736  -1.081  -5.381  0.00  0.00    +0.029 A 
ATOM     22  C   UNL     1       4.652  -0.393  -5.894  0.00  0.00    +0.022 A 
ATOM     23  C   UNL     1       3.902   0.430  -5.068  0.00  0.00    +0.134 A 
ATOM     24  O   UNL     1       2.824   1.101  -5.556  0.00  0.00    -0.466 OA
ATOM     25  C   UNL     1       2.722   1.212  -6.978  0.00  0.00    +0.394 C 
ATOM     26  O   UNL     1       2.951  -0.079  -7.555  0.00  0.00    -0.339 OA
ATOM     27  C   UNL     1       4.291  -0.547  -7.350  0.00  0.00    +0.202 C 
ATOM     28 CL   UNL     1       7.438  -1.810  -3.407  0.00  0.00    -0.084 Cl
ENDBRANCH  17  18
ENDBRANCH   4  17
TORSDOF 4
