REMARK  Name = ZINC39911814
REMARK  8 active torsions:
REMARK  status: ('A' for Active; 'I' for Inactive)
REMARK    1  A    between atoms: C_1  and  C_2
REMARK    2  A    between atoms: C_2  and  C_3
REMARK    3  A    between atoms: C_3  and  N_4
REMARK    4  A    between atoms: C_5  and  C_24
REMARK    5  A    between atoms: C_8  and  C_15
REMARK    6  A    between atoms: C_17  and  C_23
REMARK    7  A    between atoms: C_19  and  C_22
REMARK    8  A    between atoms: C_20  and  O_21
REMARK                            x       y       z     vdW  Elec       q    Type
REMARK                         _______ _______ _______ _____ _____    ______ ____
ROOT
ATOM      1  N   UNL     1       0.664  -1.982   1.203  0.00  0.00    -0.285 N 
ATOM      2  C   UNL     1      -0.316  -2.922   1.763  0.00  0.00    +0.144 C 
ATOM      3  C   UNL     1       0.247  -4.298   1.533  0.00  0.00    +0.035 A 
ATOM      4  C   UNL     1       0.085  -5.679   1.684  0.00  0.00    +0.102 A 
ATOM      5  N   UNL     1       1.143  -6.261   1.156  0.00  0.00    -0.173 NA
ATOM      6  N   UNL     1       1.958  -5.384   0.686  0.00  0.00    -0.272 N 
ATOM      7  H   UNL     1       2.802  -5.584   0.252  0.00  0.00    +0.189 HD
ATOM      8  C   UNL     1       1.458  -4.129   0.888  0.00  0.00    +0.126 A 
ATOM      9  C   UNL     1       1.687  -2.693   0.694  0.00  0.00    +0.265 C 
ATOM     10  O   UNL     1       2.664  -2.213   0.151  0.00  0.00    -0.268 OA
ENDROOT
BRANCH   4  11
ATOM     11  C   UNL     1      -1.067  -6.363   2.323  0.00  0.00    +0.044 A 
ATOM     12  C   UNL     1      -2.369  -6.016   1.972  0.00  0.00    +0.017 A 
ATOM     13  C   UNL     1      -3.437  -6.656   2.568  0.00  0.00    -0.049 A 
ATOM     14  C   UNL     1      -3.219  -7.641   3.515  0.00  0.00    +0.010 A 
ATOM     15  C   UNL     1      -1.931  -7.993   3.870  0.00  0.00    -0.008 A 
ATOM     16  C   UNL     1      -0.850  -7.363   3.275  0.00  0.00    +0.129 A 
ATOM     17  C   UNL     1      -1.701  -9.068   4.902  0.00  0.00    +0.047 C 
ATOM     18  C   UNL     1      -4.846  -6.279   2.188  0.00  0.00    +0.044 C 
BRANCH  16  19
ATOM     19  O   UNL     1       0.417  -7.712   3.620  0.00  0.00    -0.506 OA
ATOM     20  H   UNL     1       0.778  -7.204   4.360  0.00  0.00    +0.292 HD
ENDBRANCH  16  19
ENDBRANCH   4  11
BRANCH   2  21
ATOM     21  C   UNL     1      -0.490  -2.671   3.238  0.00  0.00    +0.013 A 
ATOM     22  C   UNL     1       0.547  -2.131   3.975  0.00  0.00    +0.008 A 
ATOM     23  C   UNL     1       0.387  -1.901   5.329  0.00  0.00    +0.001 A 
ATOM     24  C   UNL     1      -0.810  -2.211   5.947  0.00  0.00    +0.003 A 
ATOM     25  C   UNL     1      -1.848  -2.751   5.213  0.00  0.00    +0.039 A 
ATOM     26  C   UNL     1      -1.691  -2.977   3.856  0.00  0.00    +0.129 A 
ATOM     27  F   UNL     1      -2.707  -3.501   3.136  0.00  0.00    -0.205 F 
ENDBRANCH   2  21
BRANCH   1  28
ATOM     28  C   UNL     1       0.546  -0.522   1.194  0.00  0.00    +0.109 C 
BRANCH  28  30
ATOM     29  C   UNL     1      -0.295   1.449  -0.090  0.00  0.00    +0.005 C 
ATOM     30  C   UNL     1      -0.171  -0.076  -0.081  0.00  0.00    +0.016 C 
ENDBRANCH  28  30
ENDBRANCH   1  28
TORSDOF 5
