REMARK  Name = ZINC10145322
REMARK  12 active torsions:
REMARK  status: ('A' for Active; 'I' for Inactive)
REMARK    1  A    between atoms: C_1  and  C_2
REMARK    2  A    between atoms: C_4  and  C_35
REMARK    3  A    between atoms: C_5  and  N_9
REMARK    4  A    between atoms: C_6  and  C_8
REMARK    5  A    between atoms: C_10  and  C_12
REMARK    6  A    between atoms: C_12  and  N_13
REMARK    7  A    between atoms: C_14  and  C_16
REMARK    8  A    between atoms: C_16  and  O_17
REMARK    9  A    between atoms: O_17  and  C_18
REMARK   10  A    between atoms: C_18  and  C_20
REMARK   11  A    between atoms: C_20  and  N_21
REMARK   12  A    between atoms: C_29  and  C_31
REMARK                            x       y       z     vdW  Elec       q    Type
REMARK                         _______ _______ _______ _____ _____    ______ ____
ROOT
ATOM      1  C   UNL     1      -8.295   2.339  -1.868  0.00  0.00    +0.327 C 
ENDROOT
BRANCH   1   3
ATOM      2  N   UNL     1      -5.999   2.898  -1.138  0.00  0.00    -0.304 N 
ATOM      3  C   UNL     1      -7.260   3.314  -1.369  0.00  0.00    +0.251 C 
ATOM      4  O   UNL     1      -7.562   4.472  -1.175  0.00  0.00    -0.272 OA
ATOM      5  H   UNL     1      -5.758   1.972  -1.293  0.00  0.00    +0.149 HD
BRANCH   2   6
ATOM      6  C   UNL     1      -4.993   3.846  -0.653  0.00  0.00    +0.200 C 
BRANCH   6   8
ATOM      7  N   UNL     1      -2.598   3.812  -0.036  0.00  0.00    -0.284 N 
ATOM      8  C   UNL     1      -3.676   3.135  -0.477  0.00  0.00    +0.234 C 
ATOM      9  O   UNL     1      -3.587   1.952  -0.732  0.00  0.00    -0.274 OA
ATOM     10  H   UNL     1      -2.685   4.739   0.234  0.00  0.00    +0.155 HD
BRANCH   7  15
ATOM     11  C   UNL     1       2.452   1.240   0.236  0.00  0.00    +0.044 C 
ATOM     12  C   UNL     1       1.110   1.923   0.163  0.00  0.00    -0.050 A 
ATOM     13  C   UNL     1       0.499   2.114  -1.062  0.00  0.00    +0.008 A 
ATOM     14  C   UNL     1      -0.728   2.745  -1.132  0.00  0.00    -0.029 A 
ATOM     15  C   UNL     1      -1.352   3.178   0.031  0.00  0.00    +0.039 A 
ATOM     16  C   UNL     1      -0.735   2.984   1.260  0.00  0.00    -0.029 A 
ATOM     17  C   UNL     1       0.494   2.357   1.323  0.00  0.00    +0.008 A 
ATOM     18  C   UNL     1      -1.406   3.457   2.523  0.00  0.00    +0.045 C 
ATOM     19  C   UNL     1      -1.391   2.958  -2.468  0.00  0.00    +0.045 C 
ENDBRANCH   7  15
ENDBRANCH   6   8
ENDBRANCH   2   6
ENDBRANCH   1   3
BRANCH   1  20
ATOM     20  O   UNL     1      -9.564   3.025  -2.038  0.00  0.00    -0.454 OA
BRANCH  20  21
ATOM     21  C   UNL     1     -10.598   2.292  -2.480  0.00  0.00    +0.326 C 
ATOM     22  O   UNL     1     -10.448   1.117  -2.717  0.00  0.00    -0.249 OA
BRANCH  21  23
ATOM     23  C   UNL     1     -11.946   2.935  -2.680  0.00  0.00    +0.238 C 
BRANCH  23  24
ATOM     24  N   UNL     1     -12.899   1.933  -3.164  0.00  0.00    -0.213 N 
ATOM     25  C   UNL     1     -13.121   1.665  -4.468  0.00  0.00    +0.247 C 
ATOM     26  O   UNL     1     -12.591   2.188  -5.425  0.00  0.00    -0.273 OA
ATOM     27  C   UNL     1     -14.168   0.576  -4.483  0.00  0.00    +0.115 C 
ATOM     28  C   UNL     1     -13.619  -0.686  -5.142  0.00  0.00    +0.035 C 
ATOM     29  C   UNL     1     -13.301  -0.400  -6.612  0.00  0.00    +0.003 C 
ATOM     30  C   UNL     1     -14.573   0.058  -7.328  0.00  0.00    +0.000 C 
ATOM     31  C   UNL     1     -15.097   1.337  -6.672  0.00  0.00    +0.006 C 
ATOM     32  C   UNL     1     -15.423   1.058  -5.202  0.00  0.00    +0.018 C 
ATOM     33  C   UNL     1     -15.927   2.342  -4.540  0.00  0.00    +0.010 C 
ATOM     34  N   UNL     1     -14.450   0.332  -3.063  0.00  0.00    -0.285 N 
ATOM     35  C   UNL     1     -13.660   1.173  -2.368  0.00  0.00    +0.310 C 
ATOM     36  O   UNL     1     -13.641   1.234  -1.154  0.00  0.00    -0.252 OA
ATOM     37  H   UNL     1     -15.081  -0.308  -2.698  0.00  0.00    +0.151 HD
ENDBRANCH  23  24
ENDBRANCH  21  23
ENDBRANCH  20  21
ENDBRANCH   1  20
TORSDOF 8
