REMARK  Name = ZINC40174444
REMARK  13 active torsions:
REMARK  status: ('A' for Active; 'I' for Inactive)
REMARK    1  A    between atoms: C_1  and  C_2
REMARK    2  A    between atoms: C_2  and  C_3
REMARK    3  A    between atoms: C_3  and  C_5
REMARK    4  A    between atoms: C_3  and  N_24
REMARK    5  A    between atoms: N_7  and  C_8
REMARK    6  A    between atoms: C_11  and  S_14
REMARK    7  A    between atoms: S_14  and  N_17
REMARK    8  A    between atoms: C_28  and  S_29
REMARK    9  A    between atoms: S_29  and  C_30
REMARK   10  A    between atoms: C_30  and  C_31
REMARK   11  A    between atoms: C_31  and  O_33
REMARK   12  A    between atoms: O_33  and  C_34
REMARK   13  A    between atoms: C_34  and  C_35
REMARK                            x       y       z     vdW  Elec       q    Type
REMARK                         _______ _______ _______ _____ _____    ______ ____
ROOT
ATOM      1  C   UNL     1       2.114  -0.209  -0.582  0.00  0.00    +0.240 C 
ATOM      2  O   UNL     1       2.852  -1.079  -0.169  0.00  0.00    -0.273 OA
ATOM      3  N   UNL     1       2.620   0.980  -0.963  0.00  0.00    -0.284 N 
ATOM      4  H   UNL     1       2.044   1.642  -1.377  0.00  0.00    +0.155 HD
ENDROOT
BRANCH   3   5
ATOM      5  C   UNL     1       3.976   1.261  -0.760  0.00  0.00    +0.034 A 
ATOM      6  C   UNL     1       4.912   0.236  -0.802  0.00  0.00    +0.025 A 
ATOM      7  C   UNL     1       6.250   0.516  -0.602  0.00  0.00    +0.030 A 
ATOM      8  C   UNL     1       6.657   1.815  -0.360  0.00  0.00    +0.106 A 
ATOM      9  C   UNL     1       5.727   2.838  -0.318  0.00  0.00    +0.030 A 
ATOM     10  C   UNL     1       4.389   2.565  -0.523  0.00  0.00    +0.025 A 
BRANCH   8  11
ATOM     11  S   UNL     1       8.364   2.168  -0.106  0.00  0.00    +0.061 S 
ATOM     12  O   UNL     1       8.422   3.376   0.642  0.00  0.00    -0.153 OA
ATOM     13  O   UNL     1       8.965   0.963   0.347  0.00  0.00    -0.153 OA
BRANCH  11  14
ATOM     14  N   UNL     1       9.023   2.498  -1.589  0.00  0.00    -0.177 NA
ATOM     15  C   UNL     1       9.570   1.406  -2.362  0.00  0.00    +0.109 C 
ATOM     16  C   UNL     1      11.063   1.212  -2.003  0.00  0.00    +0.017 C 
ATOM     17  C   UNL     1      11.867   2.320  -2.540  0.00  0.00    +0.001 C 
ATOM     18  C   UNL     1      11.515   3.688  -1.964  0.00  0.00    +0.001 C 
ATOM     19  C   UNL     1      10.359   4.274  -2.737  0.00  0.00    +0.017 C 
ATOM     20  C   UNL     1       9.021   3.894  -2.069  0.00  0.00    +0.109 C 
ENDBRANCH  11  14
ENDBRANCH   8  11
ENDBRANCH   3   5
BRANCH   1  21
ATOM     21  C   UNL     1       0.630  -0.459  -0.668  0.00  0.00    +0.178 C 
BRANCH  21  22
ATOM     22  N   UNL     1       0.386  -1.893  -0.847  0.00  0.00    -0.279 N 
ATOM     23  C   UNL     1       0.755  -2.884   0.017  0.00  0.00    +0.216 A 
ATOM     24  N   UNL     1       0.363  -4.028  -0.488  0.00  0.00    -0.113 NA
ATOM     25  N   UNL     1      -0.275  -3.768  -1.707  0.00  0.00    -0.121 NA
ATOM     26  C   UNL     1      -0.256  -2.472  -1.905  0.00  0.00    +0.194 A 
ATOM     27  N   UNL     1       1.429  -2.711   1.219  0.00  0.00    -0.328 N 
ATOM     28  H   UNL     1       1.680  -1.820   1.510  0.00  0.00    +0.145 HD
ATOM     29  H   UNL     1       1.649  -3.480   1.767  0.00  0.00    +0.145 HD
BRANCH  26  30
ATOM     30  S   UNL     1      -0.936  -1.626  -3.294  0.00  0.00    -0.075 S 
BRANCH  30  31
ATOM     31  C   UNL     1      -1.635  -2.952  -4.316  0.00  0.00    +0.197 C 
BRANCH  31  32
ATOM     32  C   UNL     1      -2.256  -2.357  -5.553  0.00  0.00    +0.317 C 
ATOM     33  O   UNL     1      -2.231  -1.161  -5.727  0.00  0.00    -0.250 OA
BRANCH  32  34
ATOM     34  O   UNL     1      -2.839  -3.155  -6.462  0.00  0.00    -0.464 OA
BRANCH  34  35
ATOM     35  C   UNL     1      -3.408  -2.524  -7.611  0.00  0.00    +0.229 C 
ATOM     36  C   UNL     1      -4.020  -3.586  -8.525  0.00  0.00    +0.048 C 
ENDBRANCH  34  35
ENDBRANCH  32  34
ENDBRANCH  31  32
ENDBRANCH  30  31
ENDBRANCH  26  30
ENDBRANCH  21  22
BRANCH  21  38
ATOM     37  C   UNL     1      -1.562  -0.057   0.461  0.00  0.00    +0.006 C 
ATOM     38  C   UNL     1      -0.043   0.015   0.622  0.00  0.00    +0.031 C 
ENDBRANCH  21  38
ENDBRANCH   1  21
TORSDOF 11
