REMARK  Name = ZINC36584696
REMARK  8 active torsions:
REMARK  status: ('A' for Active; 'I' for Inactive)
REMARK    1  A    between atoms: C_9  and  S_14
REMARK    2  A    between atoms: C_11  and  O_13
REMARK    3  A    between atoms: S_14  and  C_15
REMARK    4  A    between atoms: C_15  and  C_16
REMARK    5  A    between atoms: C_16  and  C_17
REMARK    6  A    between atoms: N_19  and  C_20
REMARK    7  A    between atoms: C_20  and  C_21
REMARK    8  A    between atoms: C_21  and  C_22
REMARK                            x       y       z     vdW  Elec       q    Type
REMARK                         _______ _______ _______ _____ _____    ______ ____
ROOT
ATOM      1  C   UNL     1       8.184  -5.412   0.467  0.00  0.00    +0.214 C 
ATOM      2  O   UNL     1       8.280  -4.688   1.435  0.00  0.00    -0.276 OA
ATOM      3  N   UNL     1       9.184  -6.261   0.158  0.00  0.00    -0.315 N 
ATOM      4  H   UNL     1       9.107  -6.840  -0.616  0.00  0.00    +0.149 HD
ENDROOT
BRANCH   1   5
ATOM      5  C   UNL     1       6.945  -5.364  -0.390  0.00  0.00    +0.106 C 
BRANCH   5   6
ATOM      6  C   UNL     1       5.974  -4.325   0.176  0.00  0.00    +0.079 C 
BRANCH   6   7
ATOM      7  S   UNL     1       4.483  -4.267  -0.856  0.00  0.00    -0.147 S 
BRANCH   7  16
ATOM      8  C   UNL     1      -0.017   1.373   0.010  0.00  0.00    +0.000 A 
ATOM      9  C   UNL     1       1.178   2.071   0.002  0.00  0.00    +0.002 A 
ATOM     10  C   UNL     1       2.366   1.387  -0.018  0.00  0.00    +0.028 A 
ATOM     11  C   UNL     1       2.401  -0.025  -0.029  0.00  0.00    +0.071 A 
ATOM     12  C   UNL     1       1.200  -0.715  -0.012  0.00  0.00    -0.022 A 
ATOM     13  C   UNL     1       0.002  -0.004   0.002  0.00  0.00    +0.006 A 
ATOM     14  C   UNL     1       1.071  -2.206   0.008  0.00  0.00    +0.039 C 
ATOM     15  C   UNL     1       2.115  -2.952  -0.764  0.00  0.00    +0.028 C 
ATOM     16  C   UNL     1       3.449  -3.006  -0.061  0.00  0.00    +0.132 C 
ATOM     17  C   UNL     1       4.160  -1.701  -0.109  0.00  0.00    +0.201 C 
ATOM     18  N   UNL     1       3.635  -0.562  -0.062  0.00  0.00    -0.216 NA
BRANCH  17  19
ATOM     19  O   UNL     1       5.504  -1.746  -0.213  0.00  0.00    -0.495 OA
ATOM     20  H   UNL     1       5.925  -0.876  -0.240  0.00  0.00    +0.293 HD
ENDBRANCH  17  19
ENDBRANCH   7  16
ENDBRANCH   6   7
ENDBRANCH   5   6
ENDBRANCH   1   5
BRANCH   3  21
ATOM     21  C   UNL     1      10.388  -6.308   0.991  0.00  0.00    +0.109 C 
BRANCH  21  22
ATOM     22  C   UNL     1      11.359  -7.347   0.426  0.00  0.00    +0.056 C 
BRANCH  22  23
ATOM     23  C   UNL     1      12.598  -7.395   1.283  0.00  0.00    -0.021 A 
ATOM     24  C   UNL     1      13.742  -6.725   1.071  0.00  0.00    +0.087 A 
ATOM     25  N   UNL     1      14.644  -7.019   2.058  0.00  0.00    -0.360 N 
ATOM     26  H   UNL     1      15.541  -6.655   2.119  0.00  0.00    +0.165 HD
ATOM     27  C   UNL     1      14.088  -7.908   2.951  0.00  0.00    +0.047 A 
ATOM     28  C   UNL     1      12.780  -8.178   2.508  0.00  0.00    +0.004 A 
ATOM     29  C   UNL     1      11.966  -9.052   3.229  0.00  0.00    +0.030 A 
ATOM     30  C   UNL     1      12.449  -9.644   4.376  0.00  0.00    +0.042 A 
ATOM     31  C   UNL     1      13.739  -9.374   4.814  0.00  0.00    +0.022 A 
ATOM     32  C   UNL     1      14.557  -8.520   4.108  0.00  0.00    +0.027 A 
ATOM     33 CL   UNL     1      11.440 -10.732   5.277  0.00  0.00    -0.084 Cl
ENDBRANCH  22  23
ENDBRANCH  21  22
ENDBRANCH   3  21
TORSDOF 8
