REMARK  Name = ZINC39992047
REMARK  10 active torsions:
REMARK  status: ('A' for Active; 'I' for Inactive)
REMARK    1  A    between atoms: C_1  and  C_2
REMARK    2  A    between atoms: C_2  and  N_3
REMARK    3  A    between atoms: C_4  and  C_6
REMARK    4  A    between atoms: C_10  and  N_11
REMARK    5  A    between atoms: C_12  and  C_14
REMARK    6  A    between atoms: C_14  and  C_25
REMARK    7  A    between atoms: C_15  and  C_16
REMARK    8  A    between atoms: C_19  and  C_22
REMARK    9  A    between atoms: C_22  and  C_23
REMARK   10  A    between atoms: C_22  and  C_24
REMARK                            x       y       z     vdW  Elec       q    Type
REMARK                         _______ _______ _______ _____ _____    ______ ____
ROOT
ATOM      1  N   UNL     1      -3.253  -2.150   2.523  0.00  0.00    -0.275 N 
ATOM      2  C   UNL     1      -4.041  -2.463   3.571  0.00  0.00    +0.259 C 
ATOM      3  O   UNL     1      -5.229  -2.665   3.400  0.00  0.00    -0.269 OA
ATOM      4  H   UNL     1      -2.307  -1.989   2.659  0.00  0.00    +0.156 HD
ENDROOT
BRANCH   1   9
ATOM      5  C   UNL     1      -3.144  -1.750   0.067  0.00  0.00    +0.069 A 
ATOM      6  C   UNL     1      -3.945  -1.724  -1.144  0.00  0.00    -0.023 A 
ATOM      7  C   UNL     1      -5.252  -2.004  -0.948  0.00  0.00    -0.004 A 
ATOM      8  S   UNL     1      -5.393  -2.291   0.791  0.00  0.00    -0.077 S 
ATOM      9  C   UNL     1      -3.795  -2.058   1.252  0.00  0.00    +0.085 A 
ATOM     10  C   UNL     1      -6.327  -2.054  -1.990  0.00  0.00    +0.043 C 
ATOM     11  C   UNL     1      -5.800  -1.370  -3.260  0.00  0.00    +0.005 C 
ATOM     12  C   UNL     1      -4.403  -1.915  -3.574  0.00  0.00    +0.005 C 
ATOM     13  C   UNL     1      -3.402  -1.413  -2.531  0.00  0.00    +0.037 C 
BRANCH   5  15
ATOM     14  N   UNL     1      -1.262  -0.205   0.199  0.00  0.00    -0.312 N 
ATOM     15  C   UNL     1      -1.705  -1.468   0.038  0.00  0.00    +0.247 C 
ATOM     16  O   UNL     1      -0.911  -2.375  -0.132  0.00  0.00    -0.270 OA
ATOM     17  H   UNL     1      -1.895   0.517   0.334  0.00  0.00    +0.149 HD
BRANCH  14  19
ATOM     18  C   UNL     1       0.406   1.574   0.374  0.00  0.00    +0.024 C 
ATOM     19  C   UNL     1       0.175   0.076   0.169  0.00  0.00    +0.101 C 
ENDBRANCH  14  19
ENDBRANCH   5  15
ENDBRANCH   1   9
BRANCH   2  20
ATOM     20  C   UNL     1      -3.465  -2.561   4.921  0.00  0.00    +0.114 C 
ATOM     21  C   UNL     1      -4.270  -2.881   5.991  0.00  0.00    +0.032 C 
BRANCH  21  22
ATOM     22  C   UNL     1      -3.736  -2.815   7.356  0.00  0.00    -0.024 A 
ATOM     23  C   UNL     1      -4.161  -3.734   8.323  0.00  0.00    +0.008 A 
ATOM     24  C   UNL     1      -3.654  -3.665   9.603  0.00  0.00    +0.004 A 
ATOM     25  C   UNL     1      -2.727  -2.691   9.934  0.00  0.00    -0.045 A 
ATOM     26  C   UNL     1      -2.301  -1.779   8.983  0.00  0.00    +0.004 A 
ATOM     27  C   UNL     1      -2.794  -1.836   7.697  0.00  0.00    +0.008 A 
BRANCH  25  28
ATOM     28  C   UNL     1      -2.179  -2.624  11.336  0.00  0.00    +0.013 C 
ATOM     29  C   UNL     1      -0.660  -2.807  11.299  0.00  0.00    +0.012 C 
ATOM     30  C   UNL     1      -2.514  -1.263  11.949  0.00  0.00    +0.012 C 
ENDBRANCH  25  28
ENDBRANCH  21  22
BRANCH  20  31
ATOM     31  C   UNL     1      -2.068  -2.323   5.123  0.00  0.00    +0.104 C 
ATOM     32  N   UNL     1      -0.959  -2.135   5.282  0.00  0.00    -0.191 NA
ENDBRANCH  20  31
ENDBRANCH   2  20
TORSDOF 7
