REMARK  Name = ZINC48792414
REMARK  7 active torsions:
REMARK  status: ('A' for Active; 'I' for Inactive)
REMARK    1  A    between atoms: C_1  and  C_2
REMARK    2  A    between atoms: C_4  and  C_28
REMARK    3  A    between atoms: N_6  and  C_8
REMARK    4  A    between atoms: C_8  and  C_9
REMARK    5  A    between atoms: C_9  and  N_10
REMARK    6  A    between atoms: N_13  and  C_14
REMARK    7  A    between atoms: C_20  and  C_22
REMARK                            x       y       z     vdW  Elec       q    Type
REMARK                         _______ _______ _______ _____ _____    ______ ____
ROOT
ATOM      1  N   UNL     1       3.983  -1.628   5.386  0.00  0.00    -0.301 N 
ATOM      2  C   UNL     1       3.001  -1.702   6.307  0.00  0.00    +0.300 C 
ATOM      3  O   UNL     1       1.860  -1.415   6.003  0.00  0.00    -0.253 OA
ATOM      4  N   UNL     1       3.286  -2.093   7.565  0.00  0.00    -0.296 N 
ATOM      5  H   UNL     1       4.894  -1.857   5.629  0.00  0.00    +0.150 HD
ATOM      6  H   UNL     1       4.197  -2.321   7.808  0.00  0.00    +0.151 HD
ENDROOT
BRANCH   4   7
ATOM      7  C   UNL     1       2.219  -2.173   8.566  0.00  0.00    +0.077 C 
ATOM      8  C   UNL     1       2.008  -0.794   9.197  0.00  0.00    +0.041 C 
ATOM      9  C   UNL     1       0.869  -0.874  10.218  0.00  0.00    +0.109 C 
ATOM     10  N   UNL     1       1.173  -1.939  11.184  0.00  0.00    -0.301 N 
ATOM     11  C   UNL     1       1.480  -3.284  10.678  0.00  0.00    +0.109 C 
ATOM     12  C   UNL     1       2.613  -3.178   9.651  0.00  0.00    +0.041 C 
ATOM     13  C   UNL     1       1.169  -1.688  12.508  0.00  0.00    +0.219 C 
ATOM     14  O   UNL     1       0.993  -0.557  12.910  0.00  0.00    -0.275 OA
BRANCH  13  15
ATOM     15  C   UNL     1       1.385  -2.811  13.489  0.00  0.00    +0.075 C 
ATOM     16  C   UNL     1       0.066  -3.554  13.711  0.00  0.00    +0.013 C 
ATOM     17  C   UNL     1       0.285  -4.695  14.707  0.00  0.00    +0.001 C 
ATOM     18  C   UNL     1       0.779  -4.123  16.037  0.00  0.00    +0.000 C 
ATOM     19  C   UNL     1       2.098  -3.380  15.815  0.00  0.00    +0.001 C 
ATOM     20  C   UNL     1       1.879  -2.239  14.819  0.00  0.00    +0.013 C 
ENDBRANCH  13  15
ENDBRANCH   4   7
BRANCH   1  21
ATOM     21  C   UNL     1       3.674  -1.203   4.019  0.00  0.00    +0.087 C 
BRANCH  21  22
ATOM     22  C   UNL     1       4.954  -1.206   3.182  0.00  0.00    -0.060 C 
BRANCH  22  28
ATOM     23  C   UNL     1       3.304   2.490   0.429  0.00  0.00    +0.005 C 
ATOM     24  C   UNL     1       3.782   1.037   0.411  0.00  0.00    -0.031 C 
ATOM     25  C   UNL     1       4.993   0.908  -0.518  0.00  0.00    +0.003 C 
ATOM     26  C   UNL     1       5.511  -0.532  -0.468  0.00  0.00    -0.031 C 
ATOM     27  C   UNL     1       5.848  -0.897   0.979  0.00  0.00    -0.076 C 
ATOM     28  N   UNL     1       4.644  -0.780   1.810  0.00  0.00    +0.381 N 
ATOM     29  C   UNL     1       4.183   0.613   1.825  0.00  0.00    -0.076 C 
ATOM     30  C   UNL     1       6.768  -0.653  -1.332  0.00  0.00    +0.005 C 
ATOM     31  H   UNL     1       3.917  -1.370   1.433  0.00  0.00    -0.082 HD
ENDBRANCH  22  28
ENDBRANCH  21  22
ENDBRANCH   1  21
TORSDOF 5
