REMARK  Name = ZINC44178623
REMARK  10 active torsions:
REMARK  status: ('A' for Active; 'I' for Inactive)
REMARK    1  A    between atoms: C_1  and  C_2
REMARK    2  A    between atoms: C_2  and  C_3
REMARK    3  A    between atoms: N_5  and  C_6
REMARK    4  A    between atoms: C_9  and  C_12
REMARK    5  A    between atoms: C_12  and  C_14
REMARK    6  A    between atoms: C_12  and  N_15
REMARK    7  A    between atoms: N_18  and  C_19
REMARK    8  A    between atoms: C_24  and  C_25
REMARK    9  A    between atoms: C_25  and  C_26
REMARK   10  A    between atoms: N_28  and  C_29
REMARK                            x       y       z     vdW  Elec       q    Type
REMARK                         _______ _______ _______ _____ _____    ______ ____
ROOT
ATOM      1  N   UNL     1      -7.113  -4.783  -1.177  0.00  0.00    -0.293 N 
ATOM      2  C   UNL     1      -8.264  -5.070  -1.817  0.00  0.00    +0.304 C 
ATOM      3  O   UNL     1      -9.238  -4.357  -1.666  0.00  0.00    -0.252 OA
ATOM      4  N   UNL     1      -8.337  -6.148  -2.623  0.00  0.00    -0.269 N 
ATOM      5  H   UNL     1      -6.337  -5.352  -1.298  0.00  0.00    +0.151 HD
ATOM      6  H   UNL     1      -7.582  -6.753  -2.692  0.00  0.00    +0.156 HD
ENDROOT
BRANCH   4   7
ATOM      7  C   UNL     1      -9.501  -6.393  -3.361  0.00  0.00    +0.038 A 
ATOM      8  C   UNL     1     -10.743  -6.074  -2.827  0.00  0.00    +0.023 A 
ATOM      9  C   UNL     1     -11.889  -6.316  -3.558  0.00  0.00    +0.002 A 
ATOM     10  C   UNL     1     -11.802  -6.876  -4.819  0.00  0.00    +0.000 A 
ATOM     11  C   UNL     1     -10.567  -7.195  -5.353  0.00  0.00    +0.006 A 
ATOM     12  C   UNL     1      -9.416  -6.950  -4.630  0.00  0.00    -0.017 A 
BRANCH  12  13
ATOM     13  C   UNL     1      -8.070  -7.292  -5.215  0.00  0.00    +0.132 C 
BRANCH  13  14
ATOM     14  C   UNL     1      -7.651  -8.661  -4.744  0.00  0.00    +0.217 C 
ATOM     15  O   UNL     1      -8.374  -9.296  -4.005  0.00  0.00    -0.275 OA
ATOM     16  N   UNL     1      -6.472  -9.179  -5.143  0.00  0.00    -0.318 N 
ATOM     17  C   UNL     1      -6.065 -10.510  -4.685  0.00  0.00    +0.128 C 
ATOM     18  H   UNL     1      -5.894  -8.671  -5.733  0.00  0.00    +0.148 HD
ENDBRANCH  13  14
ENDBRANCH  12  13
ENDBRANCH   4   7
BRANCH   1  19
ATOM     19  C   UNL     1      -7.034  -3.612  -0.301  0.00  0.00    +0.102 C 
ATOM     20  C   UNL     1      -7.544  -3.983   1.093  0.00  0.00    +0.033 C 
BRANCH  19  24
ATOM     21  C   UNL     1      -2.974  -2.305  -0.031  0.00  0.00    +0.033 A 
ATOM     22  C   UNL     1      -4.000  -1.374  -0.120  0.00  0.00    +0.023 A 
ATOM     23  C   UNL     1      -5.311  -1.800  -0.207  0.00  0.00    +0.007 A 
ATOM     24  C   UNL     1      -5.603  -3.151  -0.206  0.00  0.00    -0.027 A 
ATOM     25  C   UNL     1      -4.583  -4.081  -0.117  0.00  0.00    +0.007 A 
ATOM     26  C   UNL     1      -3.269  -3.662  -0.035  0.00  0.00    +0.023 A 
BRANCH  21  29
ATOM     27  C   UNL     1      -0.667  -2.589  -0.538  0.00  0.00    +0.217 C 
ATOM     28  O   UNL     1      -0.927  -3.642  -1.080  0.00  0.00    -0.275 OA
ATOM     29  N   UNL     1      -1.645  -1.878   0.058  0.00  0.00    -0.286 N 
ATOM     30  H   UNL     1      -1.427  -1.069   0.548  0.00  0.00    +0.155 HD
BRANCH  27  32
ATOM     31  C   UNL     1       1.655  -3.064  -1.268  0.00  0.00    +0.013 C 
ATOM     32  C   UNL     1       0.750  -2.075  -0.530  0.00  0.00    +0.093 C 
ENDBRANCH  27  32
ENDBRANCH  21  29
ENDBRANCH  19  24
ENDBRANCH   1  19
TORSDOF 7
