REMARK  Name = ZINC04256608
REMARK  20 active torsions:
REMARK  status: ('A' for Active; 'I' for Inactive)
REMARK    1  A    between atoms: C_1  and  C_2
REMARK    2  A    between atoms: C_2  and  C_33
REMARK    3  A    between atoms: C_4  and  N_9
REMARK    4  A    between atoms: C_6  and  C_7
REMARK    5  A    between atoms: C_6  and  C_8
REMARK    6  A    between atoms: C_10  and  C_12
REMARK    7  A    between atoms: C_12  and  O_14
REMARK    8  A    between atoms: O_14  and  C_15
REMARK    9  A    between atoms: C_15  and  C_16
REMARK   10  A    between atoms: C_16  and  C_17
REMARK   11  A    between atoms: C_17  and  C_18
REMARK   12  A    between atoms: C_20  and  C_29
REMARK   13  A    between atoms: C_21  and  O_28
REMARK   14  A    between atoms: C_22  and  C_24
REMARK   15  A    between atoms: C_24  and  C_25
REMARK   16  A    between atoms: C_24  and  C_26
REMARK   17  A    between atoms: C_24  and  C_27
REMARK   18  A    between atoms: C_29  and  C_30
REMARK   19  A    between atoms: C_29  and  C_31
REMARK   20  A    between atoms: C_29  and  C_32
REMARK                            x       y       z     vdW  Elec       q    Type
REMARK                         _______ _______ _______ _____ _____    ______ ____
ROOT
ATOM      1  O   UNL     1       0.816   5.511  -6.185  0.00  0.00    -0.458 OA
ENDROOT
BRANCH   1   2
ATOM      2  C   UNL     1       1.273   4.426  -5.534  0.00  0.00    +0.395 C 
ATOM      3  O   UNL     1       2.084   3.697  -6.064  0.00  0.00    -0.240 OA
BRANCH   2   5
ATOM      4  N   UNL     1       1.238   3.033  -3.503  0.00  0.00    -0.303 N 
ATOM      5  C   UNL     1       0.781   4.120  -4.156  0.00  0.00    +0.322 C 
ATOM      6  O   UNL     1      -0.031   4.849  -3.626  0.00  0.00    -0.263 OA
ATOM      7  H   UNL     1       1.887   2.450  -3.927  0.00  0.00    +0.149 HD
BRANCH   4  11
ATOM      8  C   UNL     1      -2.142   0.480  -1.024  0.00  0.00    -0.010 C 
ATOM      9  C   UNL     1      -1.041   1.551  -0.853  0.00  0.00    -0.072 C 
ATOM     10  C   UNL     1      -0.531   1.911  -2.245  0.00  0.00    +0.009 C 
ATOM     11  C   UNL     1       0.755   2.732  -2.150  0.00  0.00    +0.071 C 
ATOM     12  C   UNL     1       1.806   1.898  -1.415  0.00  0.00    +0.009 C 
ATOM     13  C   UNL     1       1.321   1.577  -0.002  0.00  0.00    -0.072 C 
ATOM     14  C   UNL     1       1.397   2.833   0.870  0.00  0.00    -0.010 C 
ATOM     15  C   UNL     1       2.294   0.539   0.599  0.00  0.00    -0.010 C 
ATOM     16  C   UNL     1      -1.702   2.779  -0.216  0.00  0.00    -0.010 C 
ATOM     17  N   UNL     1      -0.027   0.947   0.053  0.00  0.00    +0.386 N 
ATOM     18  H   UNL     1       0.074  -0.043  -0.198  0.00  0.00    -0.084 HD
ATOM     19  H   UNL     1      -0.375   1.023   1.016  0.00  0.00    -0.084 HD
ENDBRANCH   4  11
ENDBRANCH   2   5
ENDBRANCH   1   2
BRANCH   1  20
ATOM     20  C   UNL     1       1.337   5.746  -7.520  0.00  0.00    +0.233 C 
BRANCH  20  21
ATOM     21  C   UNL     1       0.707   7.015  -8.097  0.00  0.00    +0.046 C 
BRANCH  21  22
ATOM     22  C   UNL     1       1.256   7.263  -9.503  0.00  0.00    +0.038 C 
BRANCH  22  23
ATOM     23  C   UNL     1       0.635   8.513 -10.072  0.00  0.00    -0.046 A 
ATOM     24  C   UNL     1      -0.537   8.431 -10.801  0.00  0.00    +0.011 A 
ATOM     25  C   UNL     1      -1.111   9.575 -11.319  0.00  0.00    -0.000 A 
ATOM     26  C   UNL     1      -0.505  10.807 -11.117  0.00  0.00    +0.124 A 
ATOM     27  C   UNL     1       0.674  10.886 -10.390  0.00  0.00    -0.000 A 
ATOM     28  C   UNL     1       1.242   9.739  -9.869  0.00  0.00    +0.011 A 
BRANCH  27  29
ATOM     29  C   UNL     1       1.336  12.222 -10.168  0.00  0.00    -0.009 C 
ATOM     30  C   UNL     1       2.610  12.030  -9.344  0.00  0.00    +0.015 C 
ATOM     31  C   UNL     1       1.692  12.844 -11.520  0.00  0.00    +0.015 C 
ATOM     32  C   UNL     1       0.377  13.148  -9.417  0.00  0.00    +0.015 C 
ENDBRANCH  27  29
BRANCH  25  33
ATOM     33  C   UNL     1      -2.392   9.486 -12.108  0.00  0.00    -0.009 C 
ATOM     34  C   UNL     1      -2.845   8.027 -12.181  0.00  0.00    +0.015 C 
ATOM     35  C   UNL     1      -3.474  10.322 -11.421  0.00  0.00    +0.015 C 
ATOM     36  C   UNL     1      -2.158  10.019 -13.523  0.00  0.00    +0.015 C 
ENDBRANCH  25  33
BRANCH  26  37
ATOM     37  O   UNL     1      -1.065  11.934 -11.629  0.00  0.00    -0.506 OA
ATOM     38  H   UNL     1      -0.762  12.153 -12.521  0.00  0.00    +0.292 HD
ENDBRANCH  26  37
ENDBRANCH  22  23
ENDBRANCH  21  22
ENDBRANCH  20  21
ENDBRANCH   1  20
TORSDOF 10
