REMARK  Name = ZINC03373964
REMARK  6 active torsions:
REMARK  status: ('A' for Active; 'I' for Inactive)
REMARK    1  A    between atoms: C_4  and  C_7
REMARK    2  A    between atoms: C_10  and  N_18
REMARK    3  A    between atoms: N_18  and  N_19
REMARK    4  A    between atoms: N_19  and  C_20
REMARK    5  A    between atoms: C_20  and  N_22
REMARK    6  A    between atoms: N_22  and  C_23
REMARK                            x       y       z     vdW  Elec       q    Type
REMARK                         _______ _______ _______ _____ _____    ______ ____
ROOT
ATOM      1  C   UNL     1       3.385  -0.467   0.147  0.00  0.00    +0.229 C 
ATOM      2  C   UNL     1       3.712  -0.951   1.536  0.00  0.00    +0.047 C 
ATOM      3  C   UNL     1       3.625  -2.256   1.826  0.00  0.00    +0.055 C 
ATOM      4  C   UNL     1       3.216  -3.182   0.743  0.00  0.00    +0.039 A 
ATOM      5  C   UNL     1       2.777  -4.471   1.018  0.00  0.00    +0.013 A 
ATOM      6  C   UNL     1       2.404  -5.300  -0.022  0.00  0.00    +0.001 A 
ATOM      7  C   UNL     1       2.467  -4.851  -1.330  0.00  0.00    +0.004 A 
ATOM      8  C   UNL     1       2.902  -3.569  -1.612  0.00  0.00    +0.046 A 
ATOM      9  C   UNL     1       3.279  -2.728  -0.581  0.00  0.00    +0.131 A 
ATOM     10  O   UNL     1       3.711  -1.465  -0.821  0.00  0.00    -0.479 OA
ENDROOT
BRANCH   1  14
ATOM     11  C   UNL     1      -0.788   0.416  -0.091  0.00  0.00    +0.000 A 
ATOM     12  C   UNL     1       0.125   1.437   0.096  0.00  0.00    +0.000 A 
ATOM     13  C   UNL     1       1.476   1.151   0.174  0.00  0.00    +0.007 A 
ATOM     14  C   UNL     1       1.913  -0.156   0.064  0.00  0.00    -0.003 A 
ATOM     15  C   UNL     1       1.000  -1.177  -0.122  0.00  0.00    +0.007 A 
ATOM     16  C   UNL     1      -0.350  -0.890  -0.201  0.00  0.00    +0.000 A 
ENDBRANCH   1  14
BRANCH   3  17
ATOM     17  N   UNL     1       3.912  -2.729   3.107  0.00  0.00    -0.265 N 
ATOM     18  H   UNL     1       3.844  -3.677   3.300  0.00  0.00    +0.170 HD
BRANCH  17  19
ATOM     19  N   UNL     1       4.298  -1.834   4.113  0.00  0.00    -0.248 N 
ATOM     20  H   UNL     1       4.366  -0.886   3.920  0.00  0.00    +0.172 HD
BRANCH  19  21
ATOM     21  C   UNL     1       4.574  -2.291   5.351  0.00  0.00    +0.151 C 
ATOM     22  S   UNL     1       5.046  -1.198   6.581  0.00  0.00    -0.017 S 
BRANCH  21  23
ATOM     23  N   UNL     1       4.480  -3.608   5.620  0.00  0.00    -0.296 N 
ATOM     24  H   UNL     1       4.153  -4.220   4.941  0.00  0.00    +0.154 HD
BRANCH  23  25
ATOM     25  C   UNL     1       4.854  -4.095   6.878  0.00  0.00    +0.033 A 
ATOM     26  C   UNL     1       4.432  -3.442   8.029  0.00  0.00    +0.026 A 
ATOM     27  C   UNL     1       4.802  -3.923   9.270  0.00  0.00    +0.040 A 
ATOM     28  C   UNL     1       5.592  -5.056   9.367  0.00  0.00    +0.124 A 
ATOM     29  C   UNL     1       6.014  -5.708   8.220  0.00  0.00    +0.040 A 
ATOM     30  C   UNL     1       5.642  -5.233   6.978  0.00  0.00    +0.026 A 
ATOM     31  F   UNL     1       5.953  -5.524  10.581  0.00  0.00    -0.205 F 
ENDBRANCH  23  25
ENDBRANCH  21  23
ENDBRANCH  19  21
ENDBRANCH  17  19
ENDBRANCH   3  17
TORSDOF 6
