REMARK  Name = ZINC04545458
REMARK  4 active torsions:
REMARK  status: ('A' for Active; 'I' for Inactive)
REMARK    1  A    between atoms: C_1  and  C_2
REMARK    2  A    between atoms: C_2  and  C_3
REMARK    3  A    between atoms: C_12  and  O_22
REMARK    4  A    between atoms: C_14  and  C_17
REMARK                            x       y       z     vdW  Elec       q    Type
REMARK                         _______ _______ _______ _____ _____    ______ ____
ROOT
ATOM      1  C   UNL     1      -1.433  -0.534   0.013  0.00  0.00    -0.006 C 
ATOM      2  C   UNL     1      -1.416  -2.061   0.124  0.00  0.00    +0.008 C 
ATOM      3  C   UNL     1      -2.832  -2.580   0.383  0.00  0.00    +0.037 C 
ATOM      4  C   UNL     1      -3.765  -2.001  -0.670  0.00  0.00    -0.023 A 
ATOM      5  C   UNL     1      -3.414  -0.913  -1.394  0.00  0.00    -0.004 A 
ATOM      6  S   UNL     1      -4.792  -0.621  -2.469  0.00  0.00    -0.078 S 
ATOM      7  C   UNL     1      -5.778  -1.867  -1.995  0.00  0.00    +0.080 A 
ATOM      8  C   UNL     1      -5.074  -2.540  -0.990  0.00  0.00    +0.068 A 
ATOM      9  C   UNL     1      -5.734  -3.713  -0.359  0.00  0.00    +0.220 C 
ATOM     10  N   UNL     1      -6.800  -4.193  -0.940  0.00  0.00    -0.222 NA
ATOM     11  C   UNL     1      -7.350  -3.699  -2.196  0.00  0.00    +0.230 C 
ATOM     12  N   UNL     1      -7.026  -2.276  -2.409  0.00  0.00    -0.313 N 
ATOM     13  C   UNL     1      -2.138  -0.136  -1.292  0.00  0.00    +0.046 C 
ATOM     14  H   UNL     1      -7.657  -1.663  -2.818  0.00  0.00    +0.149 HD
ENDROOT
BRANCH  11  15
ATOM     15  C   UNL     1      -6.782  -4.507  -3.334  0.00  0.00    +0.032 A 
ATOM     16  C   UNL     1      -6.383  -5.802  -3.345  0.00  0.00    +0.015 A 
ATOM     17  C   UNL     1      -5.888  -6.341  -4.518  0.00  0.00    +0.008 A 
ATOM     18  C   UNL     1      -5.818  -5.559  -5.622  0.00  0.00    +0.045 A 
ATOM     19  S   UNL     1      -6.468  -4.009  -5.019  0.00  0.00    -0.098 S 
ENDBRANCH  11  15
BRANCH   1  21
ATOM     20  C   UNL     1      -0.019   1.526   0.010  0.00  0.00    +0.004 C 
ATOM     21  C   UNL     1       0.002  -0.004   0.002  0.00  0.00    +0.000 C 
ENDBRANCH   1  21
BRANCH   9  22
ATOM     22  O   UNL     1      -5.246  -4.264   0.776  0.00  0.00    -0.492 OA
ATOM     23  H   UNL     1      -5.755  -5.022   1.095  0.00  0.00    +0.294 HD
ENDBRANCH   9  22
TORSDOF 3
