REMARK  Name = ZINC22018305
REMARK  3 active torsions:
REMARK  status: ('A' for Active; 'I' for Inactive)
REMARK    1  A    between atoms: C_3  and  O_27
REMARK    2  A    between atoms: C_6  and  C_7
REMARK    3  A    between atoms: O_27  and  C_28
REMARK                            x       y       z     vdW  Elec       q    Type
REMARK                         _______ _______ _______ _____ _____    ______ ____
ROOT
ATOM      1  C   UNL     1      -1.293  -0.774   0.011  0.00  0.00    +0.209 C 
ATOM      2  N   UNL     1      -1.182  -1.950  -0.873  0.00  0.00    -0.294 N 
ATOM      3  C   UNL     1      -0.547  -3.078  -0.373  0.00  0.00    +0.159 C 
ATOM      4  N   UNL     1      -1.000  -3.553   0.859  0.00  0.00    -0.259 N 
ATOM      5  C   UNL     1      -1.424  -2.570   1.752  0.00  0.00    +0.205 A 
ATOM      6  N   UNL     1      -1.575  -1.259   1.366  0.00  0.00    -0.288 N 
ATOM      7  C   UNL     1      -2.015  -0.552   2.464  0.00  0.00    +0.076 A 
ATOM      8  C   UNL     1      -2.343   0.779   2.690  0.00  0.00    +0.077 A 
ATOM      9  C   UNL     1      -2.768   1.178   3.942  0.00  0.00    +0.164 A 
ATOM     10  C   UNL     1      -2.868   0.256   4.981  0.00  0.00    +0.164 A 
ATOM     11  C   UNL     1      -2.542  -1.068   4.774  0.00  0.00    +0.079 A 
ATOM     12  C   UNL     1      -2.112  -1.486   3.511  0.00  0.00    +0.095 A 
ATOM     13  N   UNL     1      -1.732  -2.698   3.008  0.00  0.00    -0.214 NA
ATOM     14  O   UNL     1      -3.293   0.670   6.211  0.00  0.00    -0.488 OA
ATOM     15  C   UNL     1      -2.403   1.531   6.923  0.00  0.00    +0.232 C 
ATOM     16  C   UNL     1      -2.594   2.977   6.495  0.00  0.00    +0.082 C 
ATOM     17  C   UNL     1      -2.218   3.205   5.039  0.00  0.00    +0.232 C 
ATOM     18  O   UNL     1      -3.093   2.485   4.170  0.00  0.00    -0.488 OA
ATOM     19  N   UNL     1       0.421  -3.663  -1.019  0.00  0.00    -0.375 N 
ATOM     20  H   UNL     1      -1.541  -1.935  -1.774  0.00  0.00    +0.151 HD
ATOM     21  H   UNL     1       0.715  -3.311  -1.874  0.00  0.00    +0.158 HD
ATOM     22  H   UNL     1      -1.020  -4.498   1.077  0.00  0.00    +0.158 HD
ATOM     23  H   UNL     1       0.847  -4.450  -0.646  0.00  0.00    +0.158 HD
ENDROOT
BRANCH   1  29
ATOM     24  C   UNL     1      -0.017   1.378   0.010  0.00  0.00    +0.011 A 
ATOM     25  C   UNL     1       1.169   2.087   0.002  0.00  0.00    +0.046 A 
ATOM     26  C   UNL     1       2.380   1.409  -0.013  0.00  0.00    +0.130 A 
ATOM     27  C   UNL     1       2.396   0.022  -0.021  0.00  0.00    +0.046 A 
ATOM     28  C   UNL     1       1.207  -0.681  -0.013  0.00  0.00    +0.011 A 
ATOM     29  C   UNL     1       0.002  -0.004   0.002  0.00  0.00    -0.007 A 
BRANCH  26  30
ATOM     30  O   UNL     1       3.548   2.104  -0.021  0.00  0.00    -0.406 OA
BRANCH  30  31
ATOM     31  C   UNL     1       4.756   1.341  -0.036  0.00  0.00    +0.575 C 
ATOM     32  F   UNL     1       4.787   0.540  -1.183  0.00  0.00    -0.133 F 
ATOM     33  F   UNL     1       5.855   2.207  -0.043  0.00  0.00    -0.133 F 
ATOM     34  F   UNL     1       4.810   0.528   1.101  0.00  0.00    -0.133 F 
ENDBRANCH  30  31
ENDBRANCH  26  30
ENDBRANCH   1  29
TORSDOF 3
