REMARK  Name = ZINC00222842
REMARK  3 active torsions:
REMARK  status: ('A' for Active; 'I' for Inactive)
REMARK    1  A    between atoms: C_1  and  C_2
REMARK    2  A    between atoms: C_7  and  C_8
REMARK    3  A    between atoms: C_11  and  C_19
REMARK                            x       y       z     vdW  Elec       q    Type
REMARK                         _______ _______ _______ _____ _____    ______ ____
ROOT
ATOM      1  C   UNL     1       0.243   0.050   2.492  0.00  0.00    +0.145 C 
ATOM      2  C   UNL     1       1.621  -0.212   3.115  0.00  0.00    +0.059 C 
ATOM      3  C   UNL     1       1.646   0.309   4.556  0.00  0.00    +0.106 C 
ATOM      4  N   UNL     1       0.646  -0.437   5.346  0.00  0.00    -0.305 N 
ATOM      5  C   UNL     1      -0.586  -0.639   4.740  0.00  0.00    +0.236 A 
ATOM      6  N   UNL     1      -0.789  -0.412   3.416  0.00  0.00    -0.206 N 
ATOM      7  N   UNL     1      -2.131  -0.715   3.184  0.00  0.00    -0.042 NA
ATOM      8  N   UNL     1      -2.626  -1.085   4.320  0.00  0.00    -0.021 NA
ATOM      9  N   UNL     1      -1.718  -1.047   5.241  0.00  0.00    -0.092 NA
ATOM     10  H   UNL     1       0.840  -0.766   6.237  0.00  0.00    +0.150 HD
ENDROOT
BRANCH   1  17
ATOM     11  C   UNL     1      -0.389   1.473   0.059  0.00  0.00    +0.044 C 
ATOM     12  C   UNL     1      -0.175  -0.018   0.025  0.00  0.00    -0.045 A 
ATOM     13  C   UNL     1      -0.276  -0.704  -1.171  0.00  0.00    +0.004 A 
ATOM     14  C   UNL     1      -0.080  -2.072  -1.202  0.00  0.00    +0.000 A 
ATOM     15  C   UNL     1       0.217  -2.754  -0.036  0.00  0.00    +0.000 A 
ATOM     16  C   UNL     1       0.319  -2.068   1.159  0.00  0.00    +0.006 A 
ATOM     17  C   UNL     1       0.127  -0.699   1.189  0.00  0.00    -0.020 A 
ENDBRANCH   1  17
BRANCH   3  18
ATOM     18  C   UNL     1       3.017   0.102   5.144  0.00  0.00    -0.027 A 
ATOM     19  C   UNL     1       3.384  -1.143   5.621  0.00  0.00    +0.007 A 
ATOM     20  C   UNL     1       4.642  -1.333   6.161  0.00  0.00    +0.020 A 
ATOM     21  C   UNL     1       5.534  -0.278   6.225  0.00  0.00    +0.041 A 
ATOM     22  C   UNL     1       5.167   0.968   5.748  0.00  0.00    +0.020 A 
ATOM     23  C   UNL     1       3.911   1.155   5.203  0.00  0.00    +0.007 A 
ATOM     24 CL   UNL     1       7.114  -0.517   6.903  0.00  0.00    -0.084 Cl
ENDBRANCH   3  18
TORSDOF 2
