REMARK  Name = ZINC31154553
REMARK  10 active torsions:
REMARK  status: ('A' for Active; 'I' for Inactive)
REMARK    1  A    between atoms: C_1  and  C_2
REMARK    2  A    between atoms: C_7  and  C_9
REMARK    3  A    between atoms: C_16  and  C_40
REMARK    4  A    between atoms: C_19  and  O_39
REMARK    5  A    between atoms: C_21  and  C_25
REMARK    6  A    between atoms: C_25  and  C_27
REMARK    7  A    between atoms: C_25  and  C_28
REMARK    8  A    between atoms: N_30  and  C_31
REMARK    9  A    between atoms: N_30  and  C_32
REMARK   10  A    between atoms: C_32  and  C_33
REMARK                            x       y       z     vdW  Elec       q    Type
REMARK                         _______ _______ _______ _____ _____    ______ ____
ROOT
ATOM      1  C   UNL     1      -2.439  -0.767  -0.196  0.00  0.00    +0.014 C 
ATOM      2  C   UNL     1      -1.000  -1.026   0.255  0.00  0.00    +0.039 C 
ATOM      3  C   UNL     1      -0.176   0.240   0.071  0.00  0.00    +0.030 A 
ATOM      4  C   UNL     1       1.091   0.164  -0.414  0.00  0.00    +0.011 A 
ATOM      5  S   UNL     1       1.602   1.862  -0.427  0.00  0.00    -0.079 S 
ATOM      6  C   UNL     1       0.124   2.531   0.198  0.00  0.00    +0.058 A 
ATOM      7  N   UNL     1      -0.615   1.460   0.362  0.00  0.00    -0.355 N 
ATOM      8  C   UNL     1       1.836  -1.056  -0.826  0.00  0.00    +0.051 C 
ATOM      9  C   UNL     1       1.099  -2.299  -0.289  0.00  0.00    -0.022 C 
ATOM     10  C   UNL     1      -0.396  -2.158  -0.586  0.00  0.00    +0.033 C 
ATOM     11  C   UNL     1      -1.131  -3.449  -0.213  0.00  0.00    +0.123 C 
ATOM     12  C   UNL     1      -0.548  -4.634  -0.980  0.00  0.00    +0.029 C 
ATOM     13  C   UNL     1       0.930  -4.784  -0.606  0.00  0.00    +0.007 C 
ATOM     14  C   UNL     1       1.672  -3.516  -1.021  0.00  0.00    +0.008 C 
ATOM     15  C   UNL     1       1.334  -2.436   1.217  0.00  0.00    +0.012 C 
ATOM     16  H   UNL     1      -1.632   1.600   0.757  0.00  0.00    +0.166 HD
ENDROOT
BRANCH   6  17
ATOM     17  C   UNL     1      -0.219   3.971   0.479  0.00  0.00    +0.039 C 
ATOM     18  C   UNL     1      -0.115   4.784  -0.814  0.00  0.00    -0.009 C 
ATOM     19  C   UNL     1      -0.403   6.256  -0.510  0.00  0.00    -0.082 C 
ATOM     20  N   UNL     1       0.560   6.752   0.482  0.00  0.00    +0.379 N 
ATOM     21  C   UNL     1       0.443   6.017   1.748  0.00  0.00    -0.082 C 
ATOM     22  C   UNL     1       0.759   4.538   1.512  0.00  0.00    -0.009 C 
ATOM     23  H   UNL     1       1.582   6.626   0.095  0.00  0.00    -0.086 HD
ATOM     24  H   UNL     1       0.370   7.818   0.676  0.00  0.00    -0.086 HD
ENDBRANCH   6  17
BRANCH  12  25
ATOM     25  C   UNL     1      -0.673  -4.387  -2.485  0.00  0.00    +0.078 C 
ATOM     26  C   UNL     1      -2.150  -4.236  -2.855  0.00  0.00    +0.017 C 
BRANCH  25  27
ATOM     27  C   UNL     1      -0.084  -5.553  -3.236  0.00  0.00    +0.219 C 
ATOM     28  O   UNL     1       0.279  -6.541  -2.634  0.00  0.00    -0.275 OA
ATOM     29  N   UNL     1       0.040  -5.497  -4.577  0.00  0.00    -0.300 N 
ATOM     30  C   UNL     1      -0.279  -4.259  -5.291  0.00  0.00    +0.132 C 
BRANCH  29  31
ATOM     31  C   UNL     1       0.494  -6.675  -5.320  0.00  0.00    +0.142 C 
BRANCH  31  32
ATOM     32  C   UNL     1      -0.697  -7.509  -5.717  0.00  0.00    -0.030 A 
ATOM     33  C   UNL     1      -1.153  -8.507  -4.877  0.00  0.00    +0.005 A 
ATOM     34  C   UNL     1      -2.248  -9.269  -5.240  0.00  0.00    +0.000 A 
ATOM     35  C   UNL     1      -2.882  -9.038  -6.446  0.00  0.00    +0.000 A 
ATOM     36  C   UNL     1      -2.423  -8.042  -7.288  0.00  0.00    +0.000 A 
ATOM     37  C   UNL     1      -1.330  -7.278  -6.924  0.00  0.00    +0.005 A 
ENDBRANCH  31  32
ENDBRANCH  29  31
ENDBRANCH  25  27
ENDBRANCH  12  25
BRANCH  11  38
ATOM     38  O   UNL     1      -2.517  -3.314  -0.535  0.00  0.00    -0.391 OA
ATOM     39  H   UNL     1      -3.211  -4.144  -0.338  0.00  0.00    +0.210 HD
ENDBRANCH  11  38
TORSDOF 6
