REMARK  Name = ZINC21891506
REMARK  2 active torsions:
REMARK  status: ('A' for Active; 'I' for Inactive)
REMARK    1  A    between atoms: C_9  and  C_16
REMARK    2  A    between atoms: N_23  and  C_24
REMARK                            x       y       z     vdW  Elec       q    Type
REMARK                         _______ _______ _______ _____ _____    ______ ____
ROOT
ATOM      1  C   UNL     1      -5.226   1.036  -0.129  0.00  0.00    +0.000 A 
ATOM      2  C   UNL     1      -4.375   0.373  -0.994  0.00  0.00    +0.002 A 
ATOM      3  C   UNL     1      -3.013   0.606  -0.939  0.00  0.00    +0.026 A 
ATOM      4  C   UNL     1      -2.509   1.507  -0.017  0.00  0.00    +0.051 A 
ATOM      5  C   UNL     1      -3.361   2.140   0.882  0.00  0.00    -0.006 A 
ATOM      6  C   UNL     1      -4.721   1.917   0.809  0.00  0.00    +0.007 A 
ATOM      7  C   UNL     1      -2.783   3.054   1.926  0.00  0.00    +0.147 C 
ATOM      8  N   UNL     1      -2.378   4.351   1.353  0.00  0.00    -0.268 N 
ATOM      9  C   UNL     1      -1.700   4.337   0.042  0.00  0.00    +0.162 C 
ATOM     10  C   UNL     1      -0.746   3.171   0.007  0.00  0.00    +0.049 A 
ATOM     11  N   UNL     1      -1.151   1.863  -0.023  0.00  0.00    -0.318 N 
ATOM     12  C   UNL     1      -0.055   1.063  -0.044  0.00  0.00    +0.091 A 
ATOM     13  C   UNL     1       1.040   1.855  -0.038  0.00  0.00    +0.020 A 
ATOM     14  C   UNL     1       0.596   3.194  -0.006  0.00  0.00    +0.025 A 
ATOM     15  C   UNL     1      -2.619   5.508   2.003  0.00  0.00    +0.304 C 
ATOM     16  O   UNL     1      -3.093   5.489   3.122  0.00  0.00    -0.253 OA
ATOM     17  N   UNL     1      -2.333   6.684   1.411  0.00  0.00    -0.296 N 
ATOM     18  H   UNL     1      -1.984   6.706   0.368  0.00  0.00    +0.151 HD
ENDROOT
BRANCH   9  19
ATOM     19  C   UNL     1      -2.723   4.186  -1.055  0.00  0.00    +0.016 A 
ATOM     20  C   UNL     1      -4.008   4.616  -1.089  0.00  0.00    +0.013 A 
ATOM     21  C   UNL     1      -4.770   4.363  -2.213  0.00  0.00    +0.008 A 
ATOM     22  C   UNL     1      -4.210   3.693  -3.250  0.00  0.00    +0.045 A 
ATOM     23  S   UNL     1      -2.554   3.403  -2.650  0.00  0.00    -0.099 S 
ENDBRANCH   9  19
BRANCH  17  24
ATOM     24  C   UNL     1      -2.489   7.936   2.157  0.00  0.00    +0.074 C 
ATOM     25  C   UNL     1      -3.938   8.451   2.027  0.00  0.00    +0.022 C 
ATOM     26  C   UNL     1      -3.786   9.991   1.941  0.00  0.00    +0.002 C 
ATOM     27  C   UNL     1      -2.506  10.162   1.085  0.00  0.00    +0.002 C 
ATOM     28  C   UNL     1      -1.580   9.023   1.558  0.00  0.00    +0.022 C 
ENDBRANCH  17  24
TORSDOF 2
