REMARK  Name = ZINC41600579
REMARK  4 active torsions:
REMARK  status: ('A' for Active; 'I' for Inactive)
REMARK    1  A    between atoms: C_1  and  C_2
REMARK    2  A    between atoms: C_7  and  C_23
REMARK    3  A    between atoms: N_9  and  S_10
REMARK    4  A    between atoms: S_10  and  C_13
REMARK                            x       y       z     vdW  Elec       q    Type
REMARK                         _______ _______ _______ _____ _____    ______ ____
ROOT
ATOM      1  S   UNL     1       1.660   0.565   2.077  0.00  0.00    +0.061 S 
ATOM      2  O   UNL     1       0.931   1.782   2.000  0.00  0.00    -0.153 OA
ATOM      3  O   UNL     1       1.954  -0.070   3.314  0.00  0.00    -0.153 OA
ENDROOT
BRANCH   1   4
ATOM      4  C   UNL     1       3.205   0.852   1.279  0.00  0.00    +0.107 A 
ATOM      5  C   UNL     1       4.258  -0.021   1.479  0.00  0.00    +0.032 A 
ATOM      6  C   UNL     1       5.473   0.198   0.857  0.00  0.00    +0.049 A 
ATOM      7  C   UNL     1       5.640   1.296   0.027  0.00  0.00    +0.141 A 
ATOM      8  C   UNL     1       4.577   2.172  -0.174  0.00  0.00    +0.071 A 
ATOM      9  C   UNL     1       3.361   1.947   0.449  0.00  0.00    +0.055 A 
ATOM     10  N   UNL     1       4.740   3.282  -1.020  0.00  0.00    -0.338 N 
ATOM     11  C   UNL     1       6.112   3.648  -1.412  0.00  0.00    +0.142 C 
ATOM     12  C   UNL     1       6.865   2.349  -1.731  0.00  0.00    +0.247 C 
ATOM     13  O   UNL     1       6.840   1.506  -0.577  0.00  0.00    -0.489 OA
ATOM     14  H   UNL     1       3.976   3.790  -1.334  0.00  0.00    +0.146 HD
ENDBRANCH   1   4
BRANCH   1  21
ATOM     15  C   UNL     1       0.106   1.409  -0.133  0.00  0.00    +0.026 C 
ATOM     16  C   UNL     1       0.095  -0.118  -0.035  0.00  0.00    +0.077 C 
ATOM     17  C   UNL     1      -1.350  -0.615   0.072  0.00  0.00    +0.020 C 
ATOM     18  C   UNL     1      -1.348  -2.127   0.309  0.00  0.00    +0.003 C 
ATOM     19  C   UNL     1      -0.631  -2.439   1.624  0.00  0.00    +0.020 C 
ATOM     20  C   UNL     1       0.822  -1.962   1.535  0.00  0.00    +0.077 C 
ATOM     21  N   UNL     1       0.834  -0.540   1.162  0.00  0.00    -0.171 NA
ATOM     22  C   UNL     1       1.564  -2.776   0.473  0.00  0.00    +0.026 C 
ENDBRANCH   1  21
TORSDOF 2
