REMARK  Name = ZINC64414951
REMARK  5 active torsions:
REMARK  status: ('A' for Active; 'I' for Inactive)
REMARK    1  A    between atoms: C_8  and  S_11
REMARK    2  A    between atoms: S_11  and  C_12
REMARK    3  A    between atoms: C_12  and  C_13
REMARK    4  A    between atoms: N_15  and  C_16
REMARK    5  A    between atoms: C_20  and  C_22
REMARK                            x       y       z     vdW  Elec       q    Type
REMARK                         _______ _______ _______ _____ _____    ______ ____
ROOT
ATOM      1  C   UNL     1       2.955  -3.138  -4.212  0.00  0.00    +0.227 C 
ATOM      2  O   UNL     1       3.250  -4.314  -4.242  0.00  0.00    -0.275 OA
ATOM      3  N   UNL     1       2.823  -2.446  -5.362  0.00  0.00    -0.285 N 
ATOM      4  H   UNL     1       2.522  -1.525  -5.341  0.00  0.00    +0.155 HD
ENDROOT
BRANCH   3   5
ATOM      5  C   UNL     1       3.121  -3.058  -6.584  0.00  0.00    +0.034 A 
ATOM      6  C   UNL     1       2.841  -4.405  -6.775  0.00  0.00    +0.023 A 
ATOM      7  C   UNL     1       3.137  -5.006  -7.983  0.00  0.00    +0.002 A 
ATOM      8  C   UNL     1       3.711  -4.268  -9.002  0.00  0.00    +0.006 A 
ATOM      9  C   UNL     1       3.991  -2.927  -8.815  0.00  0.00    -0.018 A 
ATOM     10  C   UNL     1       3.692  -2.319  -7.611  0.00  0.00    +0.029 A 
BRANCH   9  11
ATOM     11  C   UNL     1       4.618  -2.127  -9.928  0.00  0.00    +0.153 C 
ATOM     12  C   UNL     1       6.104  -2.420 -10.029  0.00  0.00    +0.025 C 
ATOM     13  C   UNL     1       6.248  -2.935 -11.252  0.00  0.00    +0.130 C 
ATOM     14  N   UNL     1       5.059  -2.990 -11.892  0.00  0.00    -0.186 NA
ATOM     15  N   UNL     1       4.101  -2.562 -11.236  0.00  0.00    -0.298 N 
ATOM     16  H   UNL     1       3.177  -2.521 -11.529  0.00  0.00    +0.183 HD
ENDBRANCH   9  11
ENDBRANCH   3   5
BRANCH   1  17
ATOM     17  C   UNL     1       2.735  -2.450  -2.889  0.00  0.00    +0.167 C 
BRANCH  17  18
ATOM     18  S   UNL     1       2.983  -3.638  -1.541  0.00  0.00    -0.118 S 
BRANCH  18  26
ATOM     19  C   UNL     1      -0.056   1.351   0.003  0.00  0.00    +0.002 A 
ATOM     20  C   UNL     1       1.114   2.089  -0.001  0.00  0.00    +0.001 A 
ATOM     21  C   UNL     1       2.328   1.422  -0.013  0.00  0.00    +0.016 A 
ATOM     22  C   UNL     1       2.354   0.046  -0.021  0.00  0.00    +0.031 A 
ATOM     23  C   UNL     1       1.189  -0.728  -0.017  0.00  0.00    +0.042 A 
ATOM     24  C   UNL     1      -0.028  -0.024  -0.005  0.00  0.00    +0.024 A 
ATOM     25  N   UNL     1       1.324  -2.116  -0.026  0.00  0.00    -0.323 N 
ATOM     26  C   UNL     1       2.686  -2.666  -0.039  0.00  0.00    +0.193 C 
ATOM     27  S   UNL     1       3.691  -1.127  -0.036  0.00  0.00    -0.090 S 
ATOM     28  H   UNL     1       0.547  -2.696  -0.024  0.00  0.00    +0.148 HD
ENDBRANCH  18  26
ENDBRANCH  17  18
ENDBRANCH   1  17
TORSDOF 5
