REMARK  Name = ZINC11532582
REMARK  9 active torsions:
REMARK  status: ('A' for Active; 'I' for Inactive)
REMARK    1  A    between atoms: C_1  and  C_2
REMARK    2  A    between atoms: C_2  and  C_3
REMARK    3  A    between atoms: C_8  and  N_9
REMARK    4  A    between atoms: C_11  and  C_16
REMARK    5  A    between atoms: C_16  and  O_18
REMARK    6  A    between atoms: O_18  and  C_19
REMARK    7  A    between atoms: C_19  and  C_20
REMARK    8  A    between atoms: N_22  and  C_23
REMARK    9  A    between atoms: C_24  and  C_32
REMARK                            x       y       z     vdW  Elec       q    Type
REMARK                         _______ _______ _______ _____ _____    ______ ____
ROOT
ATOM      1  C   UNL     1       3.197  -5.051   2.919  0.00  0.00    +0.328 C 
ENDROOT
BRANCH   1   2
ATOM      2  C   UNL     1       4.421  -5.247   3.776  0.00  0.00    +0.255 C 
ATOM      3  O   UNL     1       4.825  -4.341   4.474  0.00  0.00    -0.272 OA
ATOM      4  N   UNL     1       5.068  -6.429   3.765  0.00  0.00    -0.277 N 
ATOM      5  H   UNL     1       4.746  -7.154   3.206  0.00  0.00    +0.155 HD
BRANCH   4   6
ATOM      6  C   UNL     1       6.195  -6.610   4.553  0.00  0.00    +0.084 A 
ATOM      7  C   UNL     1       6.985  -7.744   4.681  0.00  0.00    +0.068 A 
ATOM      8  C   UNL     1       8.124  -7.671   5.580  0.00  0.00    -0.023 A 
ATOM      9  C   UNL     1       8.283  -6.488   6.212  0.00  0.00    -0.004 A 
ATOM     10  S   UNL     1       6.954  -5.478   5.623  0.00  0.00    -0.077 S 
ATOM     11  C   UNL     1       9.354  -6.125   7.193  0.00  0.00    +0.043 C 
ATOM     12  C   UNL     1      10.034  -7.418   7.667  0.00  0.00    +0.005 C 
ATOM     13  C   UNL     1      10.372  -8.275   6.443  0.00  0.00    +0.005 C 
ATOM     14  C   UNL     1       9.086  -8.827   5.824  0.00  0.00    +0.037 C 
BRANCH   7  15
ATOM     15  C   UNL     1       6.684  -8.969   3.933  0.00  0.00    +0.244 C 
ATOM     16  O   UNL     1       7.167  -9.143   2.830  0.00  0.00    -0.270 OA
ATOM     17  N   UNL     1       5.871  -9.902   4.467  0.00  0.00    -0.325 N 
ATOM     18  H   UNL     1       5.486  -9.763   5.347  0.00  0.00    +0.145 HD
ATOM     19  H   UNL     1       5.671 -10.712   3.973  0.00  0.00    +0.145 HD
ENDBRANCH   7  15
ENDBRANCH   4   6
ENDBRANCH   1   2
BRANCH   1  20
ATOM     20  O   UNL     1       2.687  -3.704   3.106  0.00  0.00    -0.455 OA
BRANCH  20  21
ATOM     21  C   UNL     1       1.591  -3.365   2.409  0.00  0.00    +0.313 C 
ATOM     22  O   UNL     1       1.075  -4.168   1.668  0.00  0.00    -0.250 OA
BRANCH  21  25
ATOM     23  N   UNL     1      -1.169  -0.980   2.431  0.00  0.00    -0.270 N 
ATOM     24  C   UNL     1      -0.247  -1.821   1.660  0.00  0.00    +0.128 C 
ATOM     25  C   UNL     1       1.004  -1.984   2.551  0.00  0.00    +0.124 C 
ATOM     26  C   UNL     1       0.414  -1.776   3.965  0.00  0.00    +0.112 C 
ATOM     27  C   UNL     1      -0.822  -0.936   3.729  0.00  0.00    +0.221 C 
ATOM     28  O   UNL     1      -1.415  -0.316   4.586  0.00  0.00    -0.275 OA
BRANCH  23  34
ATOM     29  C   UNL     1      -2.098   0.952   1.318  0.00  0.00    -0.026 A 
ATOM     30  C   UNL     1      -3.184   1.618   0.784  0.00  0.00    +0.005 A 
ATOM     31  C   UNL     1      -4.436   1.030   0.803  0.00  0.00    +0.000 A 
ATOM     32  C   UNL     1      -4.606  -0.221   1.367  0.00  0.00    +0.002 A 
ATOM     33  C   UNL     1      -3.526  -0.890   1.907  0.00  0.00    +0.024 A 
ATOM     34  C   UNL     1      -2.266  -0.304   1.884  0.00  0.00    +0.039 A 
BRANCH  29  36
ATOM     35  C   UNL     1      -0.497   2.344   2.602  0.00  0.00    +0.009 C 
ATOM     36  C   UNL     1      -0.734   1.591   1.291  0.00  0.00    +0.033 C 
ENDBRANCH  29  36
ENDBRANCH  23  34
ENDBRANCH  21  25
ENDBRANCH  20  21
ENDBRANCH   1  20
TORSDOF 8
