REMARK  Name = ZINC32124268
REMARK  11 active torsions:
REMARK  status: ('A' for Active; 'I' for Inactive)
REMARK    1  A    between atoms: C_1  and  O_2
REMARK    2  A    between atoms: O_2  and  C_3
REMARK    3  A    between atoms: C_8  and  C_9
REMARK    4  A    between atoms: N_22  and  C_23
REMARK    5  A    between atoms: C_23  and  C_25
REMARK    6  A    between atoms: C_23  and  C_30
REMARK    7  A    between atoms: C_25  and  C_26
REMARK    8  A    between atoms: C_26  and  O_28
REMARK    9  A    between atoms: O_28  and  C_29
REMARK   10  A    between atoms: C_30  and  O_32
REMARK   11  A    between atoms: O_32  and  C_33
REMARK                            x       y       z     vdW  Elec       q    Type
REMARK                         _______ _______ _______ _____ _____    ______ ____
ROOT
ATOM      1  C   UNL     1       0.052  -2.828  -0.035  0.00  0.00    +0.160 C 
ATOM      2  C   UNL     1      -1.438  -2.939  -0.239  0.00  0.00    +0.064 A 
ATOM      3  C   UNL     1      -2.067  -4.067  -0.633  0.00  0.00    +0.066 A 
ATOM      4  N   UNL     1      -3.374  -3.799  -0.713  0.00  0.00    -0.240 NA
ATOM      5  C   UNL     1      -3.579  -2.551  -0.382  0.00  0.00    +0.197 A 
ATOM      6  N   UNL     1      -2.390  -1.981  -0.078  0.00  0.00    -0.346 N 
ATOM      7  H   UNL     1      -2.244  -1.064   0.202  0.00  0.00    +0.167 HD
ATOM      8  C   UNL     1      -1.373  -5.376  -0.913  0.00  0.00    +0.076 C 
ATOM      9  C   UNL     1       0.123  -5.109  -1.123  0.00  0.00    +0.116 C 
ATOM     10  N   UNL     1       0.604  -4.195  -0.074  0.00  0.00    -0.273 N 
ATOM     11  C   UNL     1       1.522  -4.596   0.827  0.00  0.00    +0.304 C 
ATOM     12  O   UNL     1       1.836  -3.861   1.744  0.00  0.00    -0.253 OA
ATOM     13  N   UNL     1       2.093  -5.812   0.712  0.00  0.00    -0.286 N 
ATOM     14  H   UNL     1       1.899  -6.367  -0.059  0.00  0.00    +0.151 HD
ENDROOT
BRANCH   1  20
ATOM     15  C   UNL     1       1.948  -1.499  -0.999  0.00  0.00    +0.125 A 
ATOM     16  C   UNL     1       2.507  -0.739  -2.017  0.00  0.00    +0.046 A 
ATOM     17  C   UNL     1       1.779  -0.477  -3.160  0.00  0.00    +0.004 A 
ATOM     18  C   UNL     1       0.494  -0.970  -3.292  0.00  0.00    +0.001 A 
ATOM     19  C   UNL     1      -0.066  -1.727  -2.280  0.00  0.00    +0.009 A 
ATOM     20  C   UNL     1       0.661  -1.997  -1.136  0.00  0.00    +0.021 A 
BRANCH  15  22
ATOM     21  C   UNL     1       3.981  -1.214   0.200  0.00  0.00    +0.277 C 
ATOM     22  O   UNL     1       2.662  -1.759   0.127  0.00  0.00    -0.495 OA
ENDBRANCH  15  22
ENDBRANCH   1  20
BRANCH  13  23
ATOM     23  C   UNL     1       3.005  -6.294   1.752  0.00  0.00    +0.194 C 
BRANCH  23  24
ATOM     24  C   UNL     1       4.394  -5.776   1.481  0.00  0.00    +0.328 C 
ATOM     25  O   UNL     1       4.601  -5.076   0.518  0.00  0.00    -0.249 OA
BRANCH  24  26
ATOM     26  O   UNL     1       5.402  -6.092   2.309  0.00  0.00    -0.467 OA
ATOM     27  C   UNL     1       6.692  -5.566   1.992  0.00  0.00    +0.280 C 
ENDBRANCH  24  26
ENDBRANCH  23  24
BRANCH  23  28
ATOM     28  C   UNL     1       3.021  -7.824   1.747  0.00  0.00    +0.154 C 
BRANCH  28  29
ATOM     29  C   UNL     1       1.661  -8.342   2.138  0.00  0.00    +0.309 C 
ATOM     30  O   UNL     1       0.771  -7.567   2.395  0.00  0.00    -0.251 OA
BRANCH  29  31
ATOM     31  O   UNL     1       1.440  -9.664   2.201  0.00  0.00    -0.468 OA
ATOM     32  C   UNL     1       0.127 -10.085   2.579  0.00  0.00    +0.280 C 
ENDBRANCH  29  31
ENDBRANCH  28  29
ENDBRANCH  23  28
ENDBRANCH  13  23
TORSDOF 8
