REMARK  Name = ZINC15826370
REMARK  4 active torsions:
REMARK  status: ('A' for Active; 'I' for Inactive)
REMARK    1  A    between atoms: C_1  and  C_2
REMARK    2  A    between atoms: C_6  and  C_8
REMARK    3  A    between atoms: C_8  and  N_9
REMARK    4  A    between atoms: C_19  and  C_21
REMARK                            x       y       z     vdW  Elec       q    Type
REMARK                         _______ _______ _______ _____ _____    ______ ____
ROOT
ATOM      1  N   UNL     1       3.075   2.522   0.786  0.00  0.00    -0.310 N 
ATOM      2  C   UNL     1       4.402   2.122   0.667  0.00  0.00    +0.052 A 
ATOM      3  C   UNL     1       4.976   1.227   1.564  0.00  0.00    +0.025 A 
ATOM      4  C   UNL     1       6.317   0.910   1.409  0.00  0.00    +0.002 A 
ATOM      5  C   UNL     1       7.060   1.474   0.388  0.00  0.00    +0.002 A 
ATOM      6  C   UNL     1       6.468   2.353  -0.508  0.00  0.00    +0.025 A 
ATOM      7  C   UNL     1       5.120   2.643  -0.349  0.00  0.00    +0.052 A 
ATOM      8  N   UNL     1       4.426   3.436  -1.271  0.00  0.00    -0.316 N 
ATOM      9  C   UNL     1       3.496   2.866  -2.087  0.00  0.00    +0.017 C 
ATOM     10  C   UNL     1       2.463   2.148  -1.576  0.00  0.00    +0.040 C 
ATOM     11  C   UNL     1       2.139   1.878  -0.110  0.00  0.00    +0.175 C 
ATOM     12  C   UNL     1       1.540   1.551  -2.467  0.00  0.00    +0.163 C 
ATOM     13  O   UNL     1       0.616   0.911  -2.006  0.00  0.00    -0.292 OA
ATOM     14  C   UNL     1       1.656   1.675  -3.956  0.00  0.00    +0.080 C 
ATOM     15  C   UNL     1       3.131   1.856  -4.331  0.00  0.00    +0.014 C 
ATOM     16  C   UNL     1       3.658   3.076  -3.573  0.00  0.00    +0.051 C 
ATOM     17  H   UNL     1       4.608   4.387  -1.329  0.00  0.00    +0.152 HD
ENDROOT
BRANCH  11  18
ATOM     18  C   UNL     1       0.751   2.386   0.185  0.00  0.00    +0.130 A 
ATOM     19  C   UNL     1      -0.371   1.644   0.202  0.00  0.00    +0.047 A 
ATOM     20  C   UNL     1      -1.436   2.519   0.515  0.00  0.00    +0.041 A 
ATOM     21  C   UNL     1      -0.900   3.742   0.680  0.00  0.00    +0.195 A 
ATOM     22  O   UNL     1       0.424   3.656   0.476  0.00  0.00    -0.466 OA
ENDBRANCH  11  18
BRANCH   1  23
ATOM     23  C   UNL     1       2.619   2.427   2.180  0.00  0.00    +0.141 C 
BRANCH  23  29
ATOM     24  C   UNL     1       6.377   3.504   5.304  0.00  0.00    +0.044 C 
ATOM     25  C   UNL     1       5.168   3.940   4.518  0.00  0.00    -0.050 A 
ATOM     26  C   UNL     1       4.748   5.257   4.569  0.00  0.00    +0.003 A 
ATOM     27  C   UNL     1       3.639   5.657   3.848  0.00  0.00    +0.001 A 
ATOM     28  C   UNL     1       2.950   4.741   3.075  0.00  0.00    +0.005 A 
ATOM     29  C   UNL     1       3.370   3.426   3.022  0.00  0.00    -0.030 A 
ATOM     30  C   UNL     1       4.477   3.024   3.748  0.00  0.00    +0.008 A 
ENDBRANCH  23  29
ENDBRANCH   1  23
TORSDOF 3
