REMARK  Name = ZINC64309543
REMARK  9 active torsions:
REMARK  status: ('A' for Active; 'I' for Inactive)
REMARK    1  A    between atoms: C_1  and  C_2
REMARK    2  A    between atoms: N_5  and  C_8
REMARK    3  A    between atoms: C_8  and  C_9
REMARK    4  A    between atoms: C_8  and  C_24
REMARK    5  A    between atoms: C_9  and  N_10
REMARK    6  A    between atoms: C_11  and  C_13
REMARK    7  A    between atoms: C_13  and  O_14
REMARK    8  A    between atoms: O_14  and  C_15
REMARK    9  A    between atoms: C_18  and  C_21
REMARK                            x       y       z     vdW  Elec       q    Type
REMARK                         _______ _______ _______ _____ _____    ______ ____
ROOT
ATOM      1  N   UNL     1      -2.242  -5.869   1.705  0.00  0.00    -0.314 N 
ATOM      2  C   UNL     1      -3.428  -6.505   1.770  0.00  0.00    +0.251 C 
ATOM      3  O   UNL     1      -4.460  -5.869   1.742  0.00  0.00    -0.272 OA
ATOM      4  H   UNL     1      -1.417  -6.378   1.727  0.00  0.00    +0.149 HD
ENDROOT
BRANCH   1   5
ATOM      5  C   UNL     1      -2.199  -4.408   1.601  0.00  0.00    +0.093 C 
BRANCH   5   6
ATOM      6  C   UNL     1      -0.749  -3.951   1.434  0.00  0.00    -0.020 C 
BRANCH   6  11
ATOM      7  C   UNL     1      -0.069   1.426  -0.340  0.00  0.00    +0.007 C 
ATOM      8  C   UNL     1      -0.042  -0.101  -0.250  0.00  0.00    -0.018 C 
ATOM      9  C   UNL     1      -1.475  -0.634  -0.164  0.00  0.00    -0.015 C 
ATOM     10  C   UNL     1      -1.439  -2.154   0.005  0.00  0.00    -0.078 C 
ATOM     11  N   UNL     1      -0.714  -2.496   1.235  0.00  0.00    +0.385 N 
ATOM     12  C   UNL     1       0.681  -2.051   1.131  0.00  0.00    -0.078 C 
ATOM     13  C   UNL     1       0.727  -0.527   1.004  0.00  0.00    -0.015 C 
ATOM     14  H   UNL     1      -1.153  -2.040   2.021  0.00  0.00    -0.081 HD
ENDBRANCH   6  11
BRANCH   6  15
ATOM     15  C   UNL     1       0.036  -4.308   2.670  0.00  0.00    -0.059 A 
ATOM     16  C   UNL     1      -0.053  -3.514   3.799  0.00  0.00    +0.002 A 
ATOM     17  C   UNL     1       0.666  -3.841   4.933  0.00  0.00    +0.000 A 
ATOM     18  C   UNL     1       1.475  -4.962   4.938  0.00  0.00    +0.000 A 
ATOM     19  C   UNL     1       1.564  -5.756   3.810  0.00  0.00    +0.000 A 
ATOM     20  C   UNL     1       0.841  -5.431   2.678  0.00  0.00    +0.002 A 
ENDBRANCH   6  15
ENDBRANCH   5   6
ENDBRANCH   1   5
BRANCH   2  21
ATOM     21  C   UNL     1      -3.472  -8.008   1.877  0.00  0.00    +0.324 C 
BRANCH  21  22
ATOM     22  O   UNL     1      -4.832  -8.442   1.930  0.00  0.00    -0.483 OA
BRANCH  22  23
ATOM     23  C   UNL     1      -5.050  -9.778   2.028  0.00  0.00    +0.121 A 
ATOM     24  C   UNL     1      -3.971 -10.653   2.077  0.00  0.00    +0.046 A 
ATOM     25  C   UNL     1      -4.187 -12.010   2.176  0.00  0.00    +0.016 A 
ATOM     26  C   UNL     1      -5.492 -12.506   2.228  0.00  0.00    +0.037 A 
ATOM     27  C   UNL     1      -6.574 -11.622   2.179  0.00  0.00    +0.016 A 
ATOM     28  C   UNL     1      -6.349 -10.267   2.084  0.00  0.00    +0.046 A 
BRANCH  26  29
ATOM     29  C   UNL     1      -5.729 -13.959   2.334  0.00  0.00    +0.242 C 
ATOM     30  O   UNL     1      -4.786 -14.726   2.376  0.00  0.00    -0.270 OA
ATOM     31  N   UNL     1      -6.988 -14.435   2.384  0.00  0.00    -0.325 N 
ATOM     32  H   UNL     1      -7.740 -13.823   2.350  0.00  0.00    +0.145 HD
ATOM     33  H   UNL     1      -7.143 -15.390   2.453  0.00  0.00    +0.145 HD
ENDBRANCH  26  29
ENDBRANCH  22  23
ENDBRANCH  21  22
ENDBRANCH   2  21
TORSDOF 8
