REMARK  Name = ZINC02340216
REMARK  5 active torsions:
REMARK  status: ('A' for Active; 'I' for Inactive)
REMARK    1  A    between atoms: C_1  and  S_2
REMARK    2  A    between atoms: S_2  and  C_3
REMARK    3  A    between atoms: C_5  and  N_22
REMARK    4  A    between atoms: C_6  and  C_13
REMARK    5  A    between atoms: C_13  and  C_15
REMARK                            x       y       z     vdW  Elec       q    Type
REMARK                         _______ _______ _______ _____ _____    ______ ____
ROOT
ATOM      1  C   UNL     1      -1.206   3.340   0.454  0.00  0.00    +0.112 A 
ATOM      2  C   UNL     1      -0.044   4.115   0.158  0.00  0.00    +0.061 A 
ATOM      3  C   UNL     1       0.110   5.512   0.164  0.00  0.00    +0.055 A 
ATOM      4  C   UNL     1       1.344   6.055  -0.161  0.00  0.00    +0.083 A 
ATOM      5  S   UNL     1       2.340   4.611  -0.486  0.00  0.00    -0.063 S 
ATOM      6  C   UNL     1       1.108   3.369  -0.188  0.00  0.00    +0.117 A 
ATOM      7  N   UNL     1       1.090   2.052  -0.229  0.00  0.00    -0.207 NA
ATOM      8  C   UNL     1      -0.022   1.386   0.056  0.00  0.00    +0.215 A 
ATOM      9  N   UNL     1      -1.140   2.020   0.383  0.00  0.00    -0.208 NA
ATOM     10  N   UNL     1      -0.016   0.005   0.005  0.00  0.00    -0.327 N 
ATOM     11  H   UNL     1       0.796  -0.468  -0.237  0.00  0.00    +0.145 HD
ATOM     12  H   UNL     1      -0.823  -0.491   0.211  0.00  0.00    +0.145 HD
ENDROOT
BRANCH   3  13
ATOM     13  N   UNL     1      -0.956   6.335   0.488  0.00  0.00    -0.356 N 
ATOM     14  H   UNL     1      -1.712   5.977   0.979  0.00  0.00    +0.142 HD
ATOM     15  H   UNL     1      -0.947   7.268   0.223  0.00  0.00    +0.142 HD
ENDBRANCH   3  13
BRANCH   1  17
ATOM     16  C   UNL     1      -3.772   2.684   1.143  0.00  0.00    +0.091 C 
ATOM     17  S   UNL     1      -2.715   4.133   0.900  0.00  0.00    -0.108 S 
ENDBRANCH   1  17
BRANCH   4  18
ATOM     18  C   UNL     1       1.719   7.414  -0.218  0.00  0.00    +0.202 C 
ATOM     19  O   UNL     1       0.878   8.285  -0.074  0.00  0.00    -0.286 OA
BRANCH  18  20
ATOM     20  C   UNL     1       3.133   7.782  -0.453  0.00  0.00    +0.023 A 
ATOM     21  C   UNL     1       4.156   6.924  -0.046  0.00  0.00    +0.013 A 
ATOM     22  C   UNL     1       5.472   7.270  -0.273  0.00  0.00    +0.016 A 
ATOM     23  C   UNL     1       5.779   8.470  -0.891  0.00  0.00    +0.018 A 
ATOM     24  C   UNL     1       4.768   9.327  -1.292  0.00  0.00    +0.016 A 
ATOM     25  C   UNL     1       3.448   8.990  -1.076  0.00  0.00    +0.013 A 
ATOM     26 BR   UNL     1       7.586   8.940  -1.192  0.00  0.00    -0.050 Br
ENDBRANCH  18  20
ENDBRANCH   4  18
TORSDOF 4
