REMARK  Name = ZINC36271416
REMARK  8 active torsions:
REMARK  status: ('A' for Active; 'I' for Inactive)
REMARK    1  A    between atoms: C_1  and  C_2
REMARK    2  A    between atoms: C_2  and  O_3
REMARK    3  A    between atoms: O_3  and  C_4
REMARK    4  A    between atoms: C_9  and  C_10
REMARK    5  A    between atoms: C_11  and  C_20
REMARK    6  A    between atoms: C_14  and  N_19
REMARK    7  A    between atoms: C_20  and  N_21
REMARK    8  A    between atoms: C_25  and  C_28
REMARK                            x       y       z     vdW  Elec       q    Type
REMARK                         _______ _______ _______ _____ _____    ______ ____
ROOT
ATOM      1  C   UNL     1       1.710  -1.573  -3.541  0.00  0.00    +0.095 A 
ATOM      2  C   UNL     1       2.648  -1.841  -4.493  0.00  0.00    +0.035 A 
ATOM      3  N   UNL     1       3.121  -0.639  -4.940  0.00  0.00    -0.303 N 
ATOM      4  C   UNL     1       4.060  -0.312  -5.878  0.00  0.00    +0.115 A 
ATOM      5  C   UNL     1       4.350   0.986  -6.138  0.00  0.00    +0.041 A 
ATOM      6  C   UNL     1       3.684   2.014  -5.440  0.00  0.00    +0.028 A 
ATOM      7  C   UNL     1       2.749   1.696  -4.506  0.00  0.00    +0.048 A 
ATOM      8  C   UNL     1       2.459   0.341  -4.248  0.00  0.00    +0.138 A 
ATOM      9  N   UNL     1       1.609  -0.241  -3.413  0.00  0.00    -0.227 NA
ENDROOT
BRANCH   1  15
ATOM     10  C   UNL     1       0.825  -2.485  -1.390  0.00  0.00    +0.130 A 
ATOM     11  C   UNL     1       0.090  -3.427  -0.689  0.00  0.00    +0.046 A 
ATOM     12  C   UNL     1      -0.532  -4.461  -1.363  0.00  0.00    +0.004 A 
ATOM     13  C   UNL     1      -0.425  -4.562  -2.739  0.00  0.00    +0.001 A 
ATOM     14  C   UNL     1       0.304  -3.630  -3.449  0.00  0.00    +0.014 A 
ATOM     15  C   UNL     1       0.930  -2.581  -2.781  0.00  0.00    +0.044 A 
BRANCH  10  16
ATOM     16  O   UNL     1       1.438  -1.468  -0.729  0.00  0.00    -0.492 OA
BRANCH  16  18
ATOM     17  C   UNL     1       2.040  -0.228   1.256  0.00  0.00    +0.048 C 
ATOM     18  C   UNL     1       1.287  -1.434   0.692  0.00  0.00    +0.226 C 
ENDBRANCH  16  18
ENDBRANCH  10  16
ENDBRANCH   1  15
BRANCH   5  19
ATOM     19  N   UNL     1       5.314   1.308  -7.103  0.00  0.00    -0.357 N 
ATOM     20  H   UNL     1       5.774   0.602  -7.583  0.00  0.00    +0.142 HD
ATOM     21  H   UNL     1       5.523   2.237  -7.290  0.00  0.00    +0.142 HD
ENDBRANCH   5  19
BRANCH   2  22
ATOM     22  C   UNL     1       3.081  -3.205  -4.964  0.00  0.00    -0.022 C 
BRANCH  22  23
ATOM     23  N   UNL     1       4.306  -3.602  -4.255  0.00  0.00    +0.384 N 
ATOM     24  C   UNL     1       4.013  -3.758  -2.826  0.00  0.00    -0.078 C 
ATOM     25  C   UNL     1       5.302  -4.092  -2.071  0.00  0.00    -0.018 C 
ATOM     26  C   UNL     1       5.886  -5.396  -2.620  0.00  0.00    -0.001 C 
ATOM     27  C   UNL     1       6.118  -5.246  -4.127  0.00  0.00    -0.031 C 
ATOM     28  C   UNL     1       4.799  -4.870  -4.805  0.00  0.00    -0.075 C 
ATOM     29  C   UNL     1       6.629  -6.570  -4.699  0.00  0.00    +0.005 C 
ATOM     30  H   UNL     1       5.009  -2.888  -4.377  0.00  0.00    -0.081 HD
ENDBRANCH  22  23
ENDBRANCH   2  22
TORSDOF 6
