REMARK  Name = ZINC12151437
REMARK  7 active torsions:
REMARK  status: ('A' for Active; 'I' for Inactive)
REMARK    1  A    between atoms: C_1  and  N_2
REMARK    2  A    between atoms: C_10  and  C_11
REMARK    3  A    between atoms: C_11  and  C_12
REMARK    4  A    between atoms: C_12  and  N_13
REMARK    5  A    between atoms: C_14  and  C_16
REMARK    6  A    between atoms: C_24  and  C_25
REMARK    7  A    between atoms: C_24  and  N_63
REMARK                            x       y       z     vdW  Elec       q    Type
REMARK                         _______ _______ _______ _____ _____    ______ ____
ROOT
ATOM      1  C   UNL     1       0.061  -0.797  -2.494  0.00  0.00    +0.082 C 
ATOM      2  C   UNL     1       0.770  -1.777  -1.555  0.00  0.00    +0.020 C 
ATOM      3  C   UNL     1       0.717  -0.289  -1.212  0.00  0.00    -0.021 C 
ATOM      4  C   UNL     1      -0.200   0.148  -0.065  0.00  0.00    -0.011 C 
ATOM      5  C   UNL     1      -0.425   1.660  -0.168  0.00  0.00    -0.078 C 
ATOM      6  C   UNL     1       1.654   2.011  -1.371  0.00  0.00    -0.078 C 
ATOM      7  C   UNL     1       2.011   0.521  -1.343  0.00  0.00    -0.011 C 
ATOM      8  N   UNL     1       0.888   2.341  -0.148  0.00  0.00    +0.383 N 
ATOM      9  H   UNL     1       1.416   2.020   0.671  0.00  0.00    -0.081 HD
ENDROOT
BRANCH   1  11
ATOM     10  N   UNL     1       0.483   0.700  -4.418  0.00  0.00    -0.315 N 
ATOM     11  C   UNL     1       0.740  -0.470  -3.800  0.00  0.00    +0.217 C 
ATOM     12  O   UNL     1       1.516  -1.260  -4.294  0.00  0.00    -0.275 OA
ATOM     13  H   UNL     1      -0.138   1.331  -4.022  0.00  0.00    +0.149 HD
BRANCH  10  14
ATOM     14  C   UNL     1       1.143   1.017  -5.687  0.00  0.00    +0.112 C 
BRANCH  14  15
ATOM     15  C   UNL     1       0.681   2.393  -6.171  0.00  0.00    +0.093 C 
BRANCH  15  25
ATOM     16  C   UNL     1       3.378   3.870  -6.496  0.00  0.00    +0.150 C 
ATOM     17  N   UNL     1       2.547   3.372  -7.595  0.00  0.00    -0.331 N 
ATOM     18  C   UNL     1       2.826   3.474  -8.943  0.00  0.00    +0.069 A 
ATOM     19  C   UNL     1       3.871   4.021  -9.676  0.00  0.00    +0.028 A 
ATOM     20  C   UNL     1       3.845   3.961 -11.053  0.00  0.00    +0.002 A 
ATOM     21  C   UNL     1       2.781   3.359 -11.710  0.00  0.00    +0.002 A 
ATOM     22  C   UNL     1       1.745   2.815 -11.006  0.00  0.00    +0.030 A 
ATOM     23  C   UNL     1       1.750   2.864  -9.610  0.00  0.00    +0.089 A 
ATOM     24  N   UNL     1       0.891   2.425  -8.654  0.00  0.00    -0.232 NA
ATOM     25  C   UNL     1       1.359   2.720  -7.476  0.00  0.00    +0.112 A 
ENDBRANCH  15  25
ENDBRANCH  14  15
ENDBRANCH  10  14
ENDBRANCH   1  11
BRANCH   8  26
ATOM     26  C   UNL     1       0.696   3.802  -0.053  0.00  0.00    -0.036 C 
BRANCH  26  27
ATOM     27  C   UNL     1       2.036   4.451   0.182  0.00  0.00    -0.026 A 
ATOM     28  C   UNL     1       2.909   4.907  -0.728  0.00  0.00    +0.017 A 
ATOM     29  C   UNL     1       4.156   5.510  -0.280  0.00  0.00    -0.011 A 
ATOM     30  C   UNL     1       5.206   6.054  -1.057  0.00  0.00    +0.009 A 
ATOM     31  C   UNL     1       6.312   6.575  -0.463  0.00  0.00    +0.001 A 
ATOM     32  C   UNL     1       6.453   6.594   0.918  0.00  0.00    +0.001 A 
ATOM     33  C   UNL     1       5.451   6.072   1.712  0.00  0.00    +0.015 A 
ATOM     34  C   UNL     1       4.325   5.541   1.121  0.00  0.00    +0.020 A 
ATOM     35  S   UNL     1       2.840   4.789   1.737  0.00  0.00    -0.095 S 
ENDBRANCH  26  27
ENDBRANCH   8  26
TORSDOF 6
