REMARK  Name = ZINC20637703
REMARK  5 active torsions:
REMARK  status: ('A' for Active; 'I' for Inactive)
REMARK    1  A    between atoms: C_1  and  C_2
REMARK    2  A    between atoms: C_2  and  O_3
REMARK    3  A    between atoms: O_3  and  C_4
REMARK    4  A    between atoms: C_4  and  C_6
REMARK    5  A    between atoms: C_8  and  C_22
REMARK                            x       y       z     vdW  Elec       q    Type
REMARK                         _______ _______ _______ _____ _____    ______ ____
ROOT
ATOM      1  C   UNL     1      -0.543   7.275  -1.203  0.00  0.00    +0.211 C 
ATOM      2  C   UNL     1      -0.741   6.409   0.043  0.00  0.00    +0.145 C 
ATOM      3  N   UNL     1      -0.518   7.236   1.233  0.00  0.00    -0.303 N 
ATOM      4  C   UNL     1      -1.051   7.133   2.484  0.00  0.00    +0.071 A 
ATOM      5  C   UNL     1      -1.969   6.258   3.054  0.00  0.00    +0.028 A 
ATOM      6  C   UNL     1      -2.284   6.455   4.388  0.00  0.00    +0.002 A 
ATOM      7  C   UNL     1      -1.717   7.474   5.134  0.00  0.00    +0.002 A 
ATOM      8  C   UNL     1      -0.803   8.358   4.591  0.00  0.00    +0.030 A 
ATOM      9  C   UNL     1      -0.469   8.179   3.244  0.00  0.00    +0.091 A 
ATOM     10  N   UNL     1       0.366   8.852   2.428  0.00  0.00    -0.214 NA
ATOM     11  C   UNL     1       0.340   8.313   1.240  0.00  0.00    +0.204 A 
ATOM     12  N   UNL     1       1.032   8.699   0.100  0.00  0.00    -0.255 N 
ATOM     13  C   UNL     1       0.686   8.132  -1.075  0.00  0.00    +0.236 C 
ATOM     14  O   UNL     1       1.381   8.319  -2.051  0.00  0.00    -0.274 OA
ATOM     15  H   UNL     1       1.837   9.446   0.172  0.00  0.00    +0.158 HD
ENDROOT
BRANCH   2  16
ATOM     16  C   UNL     1       0.245   5.269   0.029  0.00  0.00    +0.002 A 
ATOM     17  C   UNL     1       1.583   5.371   0.017  0.00  0.00    +0.089 A 
ATOM     18  N   UNL     1       2.147   4.124   0.004  0.00  0.00    -0.360 N 
ATOM     19  H   UNL     1       3.241   4.015  -0.007  0.00  0.00    +0.165 HD
ATOM     20  C   UNL     1       1.159   3.165   0.008  0.00  0.00    +0.047 A 
ATOM     21  C   UNL     1      -0.075   3.840   0.023  0.00  0.00    +0.005 A 
ATOM     22  C   UNL     1      -1.267   3.112   0.031  0.00  0.00    +0.010 A 
ATOM     23  C   UNL     1      -1.228   1.746   0.017  0.00  0.00    +0.001 A 
ATOM     24  C   UNL     1      -0.013   1.076   0.008  0.00  0.00    +0.002 A 
ATOM     25  C   UNL     1       1.175   1.774   0.000  0.00  0.00    +0.026 A 
ENDBRANCH   2  16
BRANCH   1  26
ATOM     26  C   UNL     1      -0.400   6.383  -2.408  0.00  0.00    +0.322 C 
ATOM     27  O   UNL     1      -0.452   5.182  -2.281  0.00  0.00    -0.250 OA
BRANCH  26  28
ATOM     28  O   UNL     1      -0.215   6.921  -3.624  0.00  0.00    -0.464 OA
BRANCH  28  30
ATOM     29  C   UNL     1       0.117   6.793  -6.033  0.00  0.00    +0.048 C 
ATOM     30  C   UNL     1      -0.086   6.001  -4.740  0.00  0.00    +0.229 C 
ENDBRANCH  28  30
ENDBRANCH  26  28
ENDBRANCH   1  26
TORSDOF 4
