REMARK  Name = ZINC13127105
REMARK  5 active torsions:
REMARK  status: ('A' for Active; 'I' for Inactive)
REMARK    1  A    between atoms: C_4  and  C_7
REMARK    2  A    between atoms: C_10  and  C_24
REMARK    3  A    between atoms: N_17  and  C_18
REMARK    4  A    between atoms: C_18  and  C_19
REMARK    5  A    between atoms: C_29  and  O_30
REMARK                            x       y       z     vdW  Elec       q    Type
REMARK                         _______ _______ _______ _____ _____    ______ ____
ROOT
ATOM      1  C   UNL     1       3.232  -0.749   0.140  0.00  0.00    +0.142 C 
ATOM      2  C   UNL     1       3.901  -1.112   1.437  0.00  0.00    +0.035 A 
ATOM      3  C   UNL     1       4.431  -0.672   2.655  0.00  0.00    +0.102 A 
ATOM      4  N   UNL     1       4.873  -1.734   3.300  0.00  0.00    -0.173 NA
ATOM      5  N   UNL     1       4.675  -2.800   2.610  0.00  0.00    -0.272 N 
ATOM      6  H   UNL     1       4.920  -3.697   2.888  0.00  0.00    +0.189 HD
ATOM      7  C   UNL     1       4.068  -2.484   1.428  0.00  0.00    +0.126 A 
ATOM      8  C   UNL     1       3.529  -3.011   0.169  0.00  0.00    +0.266 C 
ATOM      9  O   UNL     1       3.525  -4.186  -0.146  0.00  0.00    -0.268 OA
ATOM     10  N   UNL     1       3.041  -2.010  -0.588  0.00  0.00    -0.278 N 
ENDROOT
BRANCH   1  14
ATOM     11  C   UNL     1      -0.544   1.097   0.901  0.00  0.00    +0.000 A 
ATOM     12  C   UNL     1      -0.362  -0.245   1.179  0.00  0.00    +0.000 A 
ATOM     13  C   UNL     1       0.860  -0.842   0.933  0.00  0.00    +0.006 A 
ATOM     14  C   UNL     1       1.900  -0.098   0.407  0.00  0.00    -0.022 A 
ATOM     15  C   UNL     1       1.718   1.244   0.128  0.00  0.00    +0.006 A 
ATOM     16  C   UNL     1       0.496   1.841   0.376  0.00  0.00    +0.000 A 
ENDBRANCH   1  14
BRANCH   3  17
ATOM     17  C   UNL     1       4.485   0.732   3.133  0.00  0.00    +0.044 A 
ATOM     18  C   UNL     1       4.091   1.772   2.295  0.00  0.00    +0.014 A 
ATOM     19  C   UNL     1       4.143   3.076   2.744  0.00  0.00    +0.001 A 
ATOM     20  C   UNL     1       4.586   3.355   4.025  0.00  0.00    +0.004 A 
ATOM     21  C   UNL     1       4.979   2.330   4.864  0.00  0.00    +0.046 A 
ATOM     22  C   UNL     1       4.926   1.016   4.428  0.00  0.00    +0.126 A 
BRANCH  22  23
ATOM     23  O   UNL     1       5.306   0.007   5.255  0.00  0.00    -0.506 OA
ATOM     24  H   UNL     1       6.245  -0.216   5.197  0.00  0.00    +0.292 HD
ENDBRANCH  22  23
ENDBRANCH   3  17
BRANCH  10  25
ATOM     25  C   UNL     1       2.425  -2.154  -1.910  0.00  0.00    +0.183 C 
BRANCH  25  26
ATOM     26  C   UNL     1       3.487  -2.043  -2.974  0.00  0.00    +0.122 A 
ATOM     27  C   UNL     1       4.194  -3.064  -3.489  0.00  0.00    +0.046 A 
ATOM     28  C   UNL     1       5.071  -2.512  -4.450  0.00  0.00    +0.041 A 
ATOM     29  C   UNL     1       4.848  -1.186  -4.464  0.00  0.00    +0.195 A 
ATOM     30  O   UNL     1       3.883  -0.908  -3.572  0.00  0.00    -0.466 OA
ENDBRANCH  25  26
ENDBRANCH  10  25
TORSDOF 5
