REMARK  Name = ZINC12567589
REMARK  9 active torsions:
REMARK  status: ('A' for Active; 'I' for Inactive)
REMARK    1  A    between atoms: C_1  and  C_2
REMARK    2  A    between atoms: C_2  and  C_32
REMARK    3  A    between atoms: N_5  and  N_9
REMARK    4  A    between atoms: C_10  and  C_12
REMARK    5  A    between atoms: C_12  and  O_13
REMARK    6  A    between atoms: O_13  and  C_14
REMARK    7  A    between atoms: C_14  and  C_16
REMARK    8  A    between atoms: C_18  and  C_27
REMARK    9  A    between atoms: N_20  and  C_21
REMARK                            x       y       z     vdW  Elec       q    Type
REMARK                         _______ _______ _______ _____ _____    ______ ____
ROOT
ATOM      1  C   UNL     1      -4.570   7.242   0.026  0.00  0.00    +0.329 C 
ENDROOT
BRANCH   1   3
ATOM      2  N   UNL     1      -6.640   8.591  -0.096  0.00  0.00    -0.221 N 
ATOM      3  C   UNL     1      -6.065   7.372  -0.108  0.00  0.00    +0.267 C 
ATOM      4  O   UNL     1      -6.752   6.379  -0.228  0.00  0.00    -0.271 OA
ATOM      5  H   UNL     1      -6.091   9.384  -0.000  0.00  0.00    +0.174 HD
BRANCH   2  10
ATOM      6  C   UNL     1     -10.879  10.417   0.358  0.00  0.00    +0.047 C 
ATOM      7  C   UNL     1     -10.252   9.030   0.204  0.00  0.00    +0.137 C 
ATOM      8  C   UNL     1      -8.860   9.004   0.801  0.00  0.00    +0.267 C 
ATOM      9  O   UNL     1      -8.555   9.206   1.957  0.00  0.00    -0.271 OA
ATOM     10  N   UNL     1      -8.030   8.711  -0.220  0.00  0.00    -0.137 N 
ATOM     11  C   UNL     1      -8.698   8.554  -1.369  0.00  0.00    +0.327 C 
ATOM     12  O   UNL     1      -8.167   8.290  -2.429  0.00  0.00    -0.251 OA
ATOM     13  N   UNL     1     -10.025   8.719  -1.218  0.00  0.00    -0.280 N 
ATOM     14  H   UNL     1     -10.700   8.651  -1.911  0.00  0.00    +0.152 HD
BRANCH   7  15
ATOM     15  C   UNL     1     -11.123   7.979   0.844  0.00  0.00    -0.015 A 
ATOM     16  C   UNL     1     -10.898   7.598   2.153  0.00  0.00    +0.006 A 
ATOM     17  C   UNL     1     -11.700   6.638   2.741  0.00  0.00    +0.000 A 
ATOM     18  C   UNL     1     -12.721   6.052   2.017  0.00  0.00    +0.000 A 
ATOM     19  C   UNL     1     -12.943   6.429   0.706  0.00  0.00    +0.000 A 
ATOM     20  C   UNL     1     -12.144   7.393   0.119  0.00  0.00    +0.006 A 
ENDBRANCH   7  15
ENDBRANCH   2  10
ENDBRANCH   1   3
BRANCH   1  21
ATOM     21  O   UNL     1      -4.200   5.839  -0.017  0.00  0.00    -0.451 OA
BRANCH  21  22
ATOM     22  C   UNL     1      -2.888   5.548   0.091  0.00  0.00    +0.358 C 
ATOM     23  O   UNL     1      -2.075   6.444   0.217  0.00  0.00    -0.243 OA
BRANCH  22  24
ATOM     24  C   UNL     1      -2.440   4.149   0.057  0.00  0.00    +0.152 A 
ATOM     25  C   UNL     1      -1.157   3.696   0.280  0.00  0.00    +0.065 A 
ATOM     26  C   UNL     1      -1.172   2.297   0.150  0.00  0.00    +0.100 A 
ATOM     27  N   UNL     1      -2.401   1.918  -0.145  0.00  0.00    -0.165 NA
ATOM     28  N   UNL     1      -3.219   3.052  -0.205  0.00  0.00    -0.225 N 
BRANCH  28  29
ATOM     29  C   UNL     1      -4.589   3.065  -0.488  0.00  0.00    +0.066 A 
ATOM     30  C   UNL     1      -5.438   2.163   0.142  0.00  0.00    +0.028 A 
ATOM     31  C   UNL     1      -6.791   2.181  -0.136  0.00  0.00    +0.002 A 
ATOM     32  C   UNL     1      -7.299   3.089  -1.048  0.00  0.00    +0.000 A 
ATOM     33  C   UNL     1      -6.456   3.984  -1.680  0.00  0.00    +0.002 A 
ATOM     34  C   UNL     1      -5.103   3.975  -1.403  0.00  0.00    +0.028 A 
ENDBRANCH  28  29
BRANCH  26  35
ATOM     35  C   UNL     1      -0.005   1.402   0.309  0.00  0.00    +0.039 A 
ATOM     36  C   UNL     1       0.058   0.040   0.197  0.00  0.00    +0.018 A 
ATOM     37  C   UNL     1       1.272  -0.585   0.385  0.00  0.00    +0.008 A 
ATOM     38  C   UNL     1       2.365   0.166   0.674  0.00  0.00    +0.046 A 
ATOM     39  S   UNL     1       1.689   1.819   0.688  0.00  0.00    -0.095 S 
ENDBRANCH  26  35
ENDBRANCH  22  24
ENDBRANCH  21  22
ENDBRANCH   1  21
TORSDOF 8
