REMARK  Name = ZINC02405487
REMARK  9 active torsions:
REMARK  status: ('A' for Active; 'I' for Inactive)
REMARK    1  A    between atoms: C_1  and  C_2
REMARK    2  A    between atoms: C_2  and  C_30
REMARK    3  A    between atoms: C_6  and  C_23
REMARK    4  A    between atoms: C_13  and  N_17
REMARK    5  A    between atoms: N_17  and  C_18
REMARK    6  A    between atoms: N_17  and  C_21
REMARK    7  A    between atoms: C_18  and  C_19
REMARK    8  A    between atoms: C_19  and  O_20
REMARK    9  A    between atoms: C_21  and  O_22
REMARK                            x       y       z     vdW  Elec       q    Type
REMARK                         _______ _______ _______ _____ _____    ______ ____
ROOT
ATOM      1  C   UNL     1      -6.357   1.206  -5.471  0.00  0.00    +0.041 C 
ATOM      2  C   UNL     1      -6.479   2.538  -4.729  0.00  0.00    +0.068 C 
ATOM      3  C   UNL     1      -5.335   2.672  -3.720  0.00  0.00    +0.070 C 
ATOM      4  C   UNL     1      -5.551   1.715  -2.579  0.00  0.00    -0.025 A 
ATOM      5  C   UNL     1      -6.760   1.141  -2.339  0.00  0.00    +0.011 A 
ATOM      6  C   UNL     1      -6.914   0.265  -1.252  0.00  0.00    +0.113 A 
ATOM      7  N   UNL     1      -5.883  -0.010  -0.460  0.00  0.00    -0.236 NA
ATOM      8  C   UNL     1      -4.702   0.526  -0.671  0.00  0.00    +0.112 A 
ATOM      9  C   UNL     1      -4.455   1.416  -1.733  0.00  0.00    +0.037 A 
ATOM     10  C   UNL     1      -3.078   1.932  -1.834  0.00  0.00    +0.093 A 
ATOM     11  C   UNL     1      -2.179   1.474  -0.862  0.00  0.00    +0.080 A 
ATOM     12  S   UNL     1      -3.137   0.389   0.159  0.00  0.00    -0.064 S 
ATOM     13  C   UNL     1      -0.856   1.893  -0.860  0.00  0.00    +0.141 A 
ATOM     14  N   UNL     1      -0.463   2.748  -1.804  0.00  0.00    -0.220 NA
ATOM     15  C   UNL     1      -1.321   3.166  -2.717  0.00  0.00    +0.224 A 
ATOM     16  N   UNL     1      -2.575   2.792  -2.749  0.00  0.00    -0.234 NA
ATOM     17  C   UNL     1      -7.951   1.416  -3.220  0.00  0.00    +0.198 C 
ATOM     18  O   UNL     1      -7.720   2.580  -4.014  0.00  0.00    -0.369 OA
ATOM     19  C   UNL     1      -6.422   3.693  -5.730  0.00  0.00    +0.041 C 
ENDROOT
BRANCH   6  20
ATOM     20  C   UNL     1      -8.227  -0.353  -0.989  0.00  0.00    +0.153 A 
ATOM     21  C   UNL     1      -8.437  -1.607  -0.505  0.00  0.00    +0.051 A 
ATOM     22  C   UNL     1      -9.831  -1.778  -0.410  0.00  0.00    +0.042 A 
ATOM     23  C   UNL     1     -10.399  -0.632  -0.837  0.00  0.00    +0.196 A 
ATOM     24  O   UNL     1      -9.428   0.228  -1.181  0.00  0.00    -0.461 OA
ENDBRANCH   6  20
BRANCH  13  25
ATOM     25  N   UNL     1       0.033   1.438   0.102  0.00  0.00    -0.289 N 
BRANCH  25  26
ATOM     26  C   UNL     1       1.368   2.017  -0.099  0.00  0.00    +0.136 C 
BRANCH  26  27
ATOM     27  C   UNL     1       1.348   3.495   0.295  0.00  0.00    +0.175 C 
BRANCH  27  28
ATOM     28  O   UNL     1       1.099   3.610   1.698  0.00  0.00    -0.393 OA
ATOM     29  H   UNL     1       1.073   4.522   2.019  0.00  0.00    +0.209 HD
ENDBRANCH  27  28
ENDBRANCH  26  27
ENDBRANCH  25  26
BRANCH  25  30
ATOM     30  C   UNL     1       0.091  -0.030   0.114  0.00  0.00    +0.265 C 
BRANCH  30  31
ATOM     31  O   UNL     1      -0.998  -0.543   0.883  0.00  0.00    -0.377 OA
ATOM     32  H   UNL     1      -1.023  -1.509   0.934  0.00  0.00    +0.211 HD
ENDBRANCH  30  31
ENDBRANCH  25  30
ENDBRANCH  13  25
TORSDOF 7
