REMARK  Name = ZINC08430147
REMARK  4 active torsions:
REMARK  status: ('A' for Active; 'I' for Inactive)
REMARK    1  A    between atoms: C_6  and  N_7
REMARK    2  A    between atoms: C_11  and  N_12
REMARK    3  A    between atoms: N_12  and  N_13
REMARK    4  A    between atoms: C_14  and  C_16
REMARK                            x       y       z     vdW  Elec       q    Type
REMARK                         _______ _______ _______ _____ _____    ______ ____
ROOT
ATOM      1  N   UNL     1       3.587   2.122  -0.101  0.00  0.00    -0.190 N 
ATOM      2  C   UNL     1       3.555   3.467  -0.193  0.00  0.00    +0.265 C 
ATOM      3  O   UNL     1       2.499   4.060  -0.315  0.00  0.00    -0.269 OA
ATOM      4  C   UNL     1       4.832   4.200  -0.136  0.00  0.00    +0.115 C 
ATOM      5  C   UNL     1       4.876   5.580  -0.219  0.00  0.00    +0.106 C 
ATOM      6  C   UNL     1       6.060   3.398   0.007  0.00  0.00    +0.258 C 
ATOM      7  O   UNL     1       7.152   3.932   0.057  0.00  0.00    -0.270 OA
ATOM      8  N   UNL     1       5.940   2.057   0.082  0.00  0.00    -0.235 N 
ATOM      9  C   UNL     1       4.743   1.456   0.028  0.00  0.00    +0.320 C 
ATOM     10  O   UNL     1       4.704   0.243   0.100  0.00  0.00    -0.251 OA
ATOM     11  H   UNL     1       6.739   1.514   0.176  0.00  0.00    +0.159 HD
ENDROOT
BRANCH   1  17
ATOM     12  C   UNL     1       2.117   0.565  -1.222  0.00  0.00    +0.025 A 
ATOM     13  C   UNL     1       0.932  -0.142  -1.266  0.00  0.00    +0.022 A 
ATOM     14  C   UNL     1       0.010  -0.015  -0.242  0.00  0.00    +0.041 A 
ATOM     15  C   UNL     1       0.274   0.821   0.829  0.00  0.00    +0.022 A 
ATOM     16  C   UNL     1       1.458   1.529   0.878  0.00  0.00    +0.025 A 
ATOM     17  C   UNL     1       2.384   1.403  -0.149  0.00  0.00    +0.046 A 
ATOM     18 CL   UNL     1      -1.480  -0.905  -0.301  0.00  0.00    -0.084 Cl
ENDBRANCH   1  17
BRANCH   5  19
ATOM     19  N   UNL     1       3.733   6.293  -0.207  0.00  0.00    -0.271 N 
ATOM     20  H   UNL     1       2.884   5.847  -0.058  0.00  0.00    +0.169 HD
BRANCH  19  21
ATOM     21  N   UNL     1       3.769   7.679  -0.409  0.00  0.00    -0.237 N 
ATOM     22  C   UNL     1       2.626   8.392  -0.397  0.00  0.00    +0.235 C 
ATOM     23  O   UNL     1       1.565   7.834  -0.211  0.00  0.00    -0.274 OA
ATOM     24  H   UNL     1       4.617   8.125  -0.557  0.00  0.00    +0.173 HD
BRANCH  22  25
ATOM     25  C   UNL     1       2.665   9.883  -0.614  0.00  0.00    +0.049 C 
ATOM     26  C   UNL     1       3.273  10.183  -1.985  0.00  0.00    +0.019 C 
ATOM     27  C   UNL     1       3.313  11.696  -2.206  0.00  0.00    -0.009 C 
ATOM     28  C   UNL     1       1.891  12.258  -2.144  0.00  0.00    +0.007 C 
ATOM     29  C   UNL     1       1.283  11.958  -0.772  0.00  0.00    -0.009 C 
ATOM     30  C   UNL     1       1.243  10.445  -0.552  0.00  0.00    +0.019 C 
ATOM     31  C   UNL     1       2.137  12.610   0.317  0.00  0.00    +0.007 C 
ATOM     32  C   UNL     1       3.559  12.048   0.256  0.00  0.00    -0.009 C 
ATOM     33  C   UNL     1       4.167  12.348  -1.116  0.00  0.00    +0.007 C 
ATOM     34  C   UNL     1       3.519  10.535   0.476  0.00  0.00    +0.019 C 
ENDBRANCH  22  25
ENDBRANCH  19  21
ENDBRANCH   5  19
TORSDOF 4
