REMARK  Name = ZINC33306651
REMARK  8 active torsions:
REMARK  status: ('A' for Active; 'I' for Inactive)
REMARK    1  A    between atoms: C_1  and  C_2
REMARK    2  A    between atoms: C_3  and  N_28
REMARK    3  A    between atoms: C_4  and  C_7
REMARK    4  A    between atoms: C_8  and  C_9
REMARK    5  A    between atoms: C_12  and  S_14
REMARK    6  A    between atoms: S_14  and  N_17
REMARK    7  A    between atoms: N_17  and  C_18
REMARK    8  A    between atoms: C_29  and  C_31
REMARK                            x       y       z     vdW  Elec       q    Type
REMARK                         _______ _______ _______ _____ _____    ______ ____
ROOT
ATOM      1  C   UNL     1       1.281   3.744  -5.416  0.00  0.00    +0.014 A 
ATOM      2  C   UNL     1       2.102   4.806  -5.067  0.00  0.00    +0.017 A 
ATOM      3  C   UNL     1       1.949   5.366  -3.821  0.00  0.00    +0.037 A 
ATOM      4  C   UNL     1       1.016   4.859  -2.973  0.00  0.00    +0.146 A 
ATOM      5  S   UNL     1       0.293   3.545  -3.942  0.00  0.00    -0.069 S 
ENDROOT
BRANCH   4   6
ATOM      6  S   UNL     1       0.616   5.372  -1.336  0.00  0.00    +0.079 S 
ATOM      7  O   UNL     1       1.770   6.022  -0.821  0.00  0.00    -0.149 OA
ATOM      8  O   UNL     1       0.021   4.253  -0.693  0.00  0.00    -0.149 OA
BRANCH   6   9
ATOM      9  N   UNL     1      -0.563   6.529  -1.459  0.00  0.00    -0.216 N 
ATOM     10  H   UNL     1      -0.355   7.562  -1.144  0.00  0.00    +0.174 HD
BRANCH   9  11
ATOM     11  C   UNL     1      -1.823   6.192  -1.965  0.00  0.00    +0.052 A 
ATOM     12  C   UNL     1      -2.458   5.034  -1.535  0.00  0.00    +0.028 A 
ATOM     13  C   UNL     1      -3.702   4.701  -2.035  0.00  0.00    +0.051 A 
ATOM     14  C   UNL     1      -4.320   5.521  -2.968  0.00  0.00    +0.162 A 
ATOM     15  C   UNL     1      -3.689   6.681  -3.398  0.00  0.00    +0.164 A 
ATOM     16  C   UNL     1      -2.440   7.015  -2.897  0.00  0.00    +0.074 A 
ATOM     17  O   UNL     1      -4.284   7.502  -4.307  0.00  0.00    -0.485 OA
ATOM     18  C   UNL     1      -5.364   6.948  -5.065  0.00  0.00    +0.270 C 
ATOM     19  C   UNL     1      -6.298   6.205  -4.100  0.00  0.00    +0.270 C 
ATOM     20  O   UNL     1      -5.543   5.171  -3.455  0.00  0.00    -0.485 OA
ENDBRANCH   9  11
ENDBRANCH   6   9
ENDBRANCH   4   6
BRANCH   1  22
ATOM     21  C   UNL     1       0.351   1.972  -6.810  0.00  0.00    +0.052 C 
ATOM     22  C   UNL     1       1.236   2.985  -6.666  0.00  0.00    +0.019 C 
BRANCH  21  26
ATOM     23  C   UNL     1      -0.932  -1.408 -10.375  0.00  0.00    +0.071 C 
ATOM     24  C   UNL     1      -0.249  -0.277  -9.650  0.00  0.00    +0.102 A 
ATOM     25  C   UNL     1      -0.541   0.158  -8.347  0.00  0.00    +0.103 A 
ATOM     26  C   UNL     1       0.306   1.213  -8.059  0.00  0.00    +0.182 A 
ATOM     27  O   UNL     1       1.079   1.416  -9.146  0.00  0.00    -0.353 OA
ATOM     28  N   UNL     1       0.713   0.463 -10.127  0.00  0.00    -0.081 NA
BRANCH  25  29
ATOM     29  N   UNL     1      -1.516  -0.379  -7.493  0.00  0.00    -0.281 N 
ATOM     30  C   UNL     1      -2.819  -0.105  -7.701  0.00  0.00    +0.220 C 
ATOM     31  O   UNL     1      -3.157   0.526  -8.680  0.00  0.00    -0.275 OA
ATOM     32  H   UNL     1      -1.216  -1.023  -6.653  0.00  0.00    +0.155 HD
BRANCH  30  33
ATOM     33  C   UNL     1      -3.856  -0.584  -6.718  0.00  0.00    +0.075 C 
ATOM     34  C   UNL     1      -4.819  -1.678  -7.184  0.00  0.00    +0.013 C 
ATOM     35  C   UNL     1      -5.318  -0.242  -7.010  0.00  0.00    +0.013 C 
ENDBRANCH  30  33
ENDBRANCH  25  29
ENDBRANCH  21  26
ENDBRANCH   1  22
TORSDOF 7
