REMARK  Name = ZINC34714507
REMARK  10 active torsions:
REMARK  status: ('A' for Active; 'I' for Inactive)
REMARK    1  A    between atoms: C_1  and  C_2
REMARK    2  A    between atoms: C_2  and  O_3
REMARK    3  A    between atoms: O_3  and  C_4
REMARK    4  A    between atoms: C_4  and  C_6
REMARK    5  A    between atoms: C_8  and  C_25
REMARK    6  A    between atoms: C_10  and  C_23
REMARK    7  A    between atoms: C_11  and  S_21
REMARK    8  A    between atoms: C_13  and  C_14
REMARK    9  A    between atoms: C_13  and  O_20
REMARK   10  A    between atoms: S_21  and  C_22
REMARK                            x       y       z     vdW  Elec       q    Type
REMARK                         _______ _______ _______ _____ _____    ______ ____
ROOT
ATOM      1  C   UNL     1       1.080  -2.271  -2.597  0.00  0.00    +0.165 C 
ATOM      2  C   UNL     1       0.555  -1.765  -3.942  0.00  0.00    +0.080 C 
ATOM      3  C   UNL     1      -0.765  -2.410  -4.260  0.00  0.00    +0.065 C 
ATOM      4  C   UNL     1      -1.169  -3.565  -3.669  0.00  0.00    +0.077 C 
ATOM      5  N   UNL     1      -0.389  -4.201  -2.732  0.00  0.00    -0.306 N 
ATOM      6  C   UNL     1       1.022  -3.804  -2.588  0.00  0.00    +0.171 C 
ATOM      7  H   UNL     1      -0.762  -4.902  -2.174  0.00  0.00    +0.150 HD
ENDROOT
BRANCH   2   8
ATOM      8  C   UNL     1       0.373  -0.270  -3.877  0.00  0.00    -0.038 A 
ATOM      9  C   UNL     1      -0.704   0.266  -3.197  0.00  0.00    +0.006 A 
ATOM     10  C   UNL     1      -0.871   1.637  -3.137  0.00  0.00    +0.020 A 
ATOM     11  C   UNL     1       0.040   2.472  -3.758  0.00  0.00    +0.041 A 
ATOM     12  C   UNL     1       1.118   1.935  -4.438  0.00  0.00    +0.020 A 
ATOM     13  C   UNL     1       1.288   0.564  -4.493  0.00  0.00    +0.006 A 
ATOM     14 CL   UNL     1      -0.169   4.194  -3.683  0.00  0.00    -0.084 Cl
ENDBRANCH   2   8
BRANCH   6  15
ATOM     15  C   UNL     1       1.574  -4.328  -1.287  0.00  0.00    +0.003 A 
ATOM     16  C   UNL     1       2.936  -4.508  -1.136  0.00  0.00    +0.008 A 
ATOM     17  C   UNL     1       3.442  -4.988   0.057  0.00  0.00    +0.000 A 
ATOM     18  C   UNL     1       2.586  -5.287   1.100  0.00  0.00    +0.000 A 
ATOM     19  C   UNL     1       1.224  -5.106   0.950  0.00  0.00    +0.000 A 
ATOM     20  C   UNL     1       0.719  -4.622  -0.242  0.00  0.00    +0.008 A 
ENDBRANCH   6  15
BRANCH   1  21
ATOM     21  C   UNL     1       0.224  -1.726  -1.483  0.00  0.00    +0.316 C 
ATOM     22  O   UNL     1      -0.826  -2.260  -1.212  0.00  0.00    -0.250 OA
BRANCH  21  23
ATOM     23  O   UNL     1       0.627  -0.649  -0.791  0.00  0.00    -0.465 OA
BRANCH  23  25
ATOM     24  C   UNL     1       0.369   1.050   0.908  0.00  0.00    +0.048 C 
ATOM     25  C   UNL     1      -0.178  -0.253   0.321  0.00  0.00    +0.229 C 
ENDBRANCH  23  25
ENDBRANCH  21  23
ENDBRANCH   1  21
BRANCH   6  26
ATOM     26  O   UNL     1       1.784  -4.323  -3.680  0.00  0.00    -0.367 OA
ATOM     27  H   UNL     1       1.789  -5.289  -3.733  0.00  0.00    +0.212 HD
ENDBRANCH   6  26
BRANCH   4  28
ATOM     28  S   UNL     1      -2.726  -4.260  -4.110  0.00  0.00    -0.113 S 
ATOM     29  C   UNL     1      -2.842  -5.758  -3.094  0.00  0.00    +0.091 C 
ENDBRANCH   4  28
BRANCH   3  30
ATOM     30  C   UNL     1      -1.626  -1.787  -5.219  0.00  0.00    +0.098 C 
ATOM     31  N   UNL     1      -2.309  -1.292  -5.980  0.00  0.00    -0.191 NA
ENDBRANCH   3  30
TORSDOF 8
