REMARK  Name = ZINC20894807
REMARK  7 active torsions:
REMARK  status: ('A' for Active; 'I' for Inactive)
REMARK    1  A    between atoms: C_1  and  C_2
REMARK    2  A    between atoms: C_5  and  N_9
REMARK    3  A    between atoms: C_6  and  C_8
REMARK    4  A    between atoms: C_18  and  S_19
REMARK    5  A    between atoms: S_19  and  C_20
REMARK    6  A    between atoms: C_20  and  C_22
REMARK    7  A    between atoms: C_20  and  C_23
REMARK                            x       y       z     vdW  Elec       q    Type
REMARK                         _______ _______ _______ _____ _____    ______ ____
ROOT
ATOM      1  N   UNL     1       0.803   1.712  -4.643  0.00  0.00    -0.255 N 
ATOM      2  C   UNL     1       0.725   1.478  -3.320  0.00  0.00    +0.268 A 
ATOM      3  O   UNL     1       1.677   1.012  -2.716  0.00  0.00    -0.267 OA
ATOM      4  C   UNL     1      -0.490   1.785  -2.633  0.00  0.00    +0.076 A 
ATOM      5  C   UNL     1      -0.791   1.612  -1.202  0.00  0.00    -0.023 A 
ATOM      6  C   UNL     1      -2.014   1.979  -0.789  0.00  0.00    -0.004 A 
ATOM      7  S   UNL     1      -2.837   2.567  -2.252  0.00  0.00    -0.073 S 
ATOM      8  C   UNL     1      -1.524   2.317  -3.417  0.00  0.00    +0.117 A 
ATOM      9  N   UNL     1      -1.385   2.524  -4.723  0.00  0.00    -0.215 NA
ATOM     10  C   UNL     1      -0.254   2.235  -5.334  0.00  0.00    +0.178 A 
ATOM     11  C   UNL     1      -2.206   1.760   0.688  0.00  0.00    +0.043 C 
ATOM     12  C   UNL     1      -0.772   1.602   1.246  0.00  0.00    +0.010 C 
ATOM     13  C   UNL     1      -0.013   1.086   0.008  0.00  0.00    +0.037 C 
ENDROOT
BRANCH   1  18
ATOM     14  C   UNL     1       5.612   0.509  -7.407  0.00  0.00    +0.044 C 
ATOM     15  C   UNL     1       4.335   0.828  -6.673  0.00  0.00    -0.050 A 
ATOM     16  C   UNL     1       3.347  -0.133  -6.556  0.00  0.00    +0.005 A 
ATOM     17  C   UNL     1       2.176   0.157  -5.884  0.00  0.00    +0.027 A 
ATOM     18  C   UNL     1       1.991   1.415  -5.325  0.00  0.00    +0.055 A 
ATOM     19  C   UNL     1       2.982   2.379  -5.449  0.00  0.00    -0.026 A 
ATOM     20  C   UNL     1       4.153   2.081  -6.118  0.00  0.00    +0.008 A 
ATOM     21  C   UNL     1       2.782   3.747  -4.849  0.00  0.00    +0.046 C 
ENDBRANCH   1  18
BRANCH  10  22
ATOM     22  S   UNL     1      -0.104   2.523  -7.066  0.00  0.00    -0.075 S 
BRANCH  22  23
ATOM     23  C   UNL     1      -1.749   3.192  -7.417  0.00  0.00    +0.137 C 
ATOM     24  C   UNL     1      -1.922   4.527  -6.689  0.00  0.00    +0.029 C 
BRANCH  23  25
ATOM     25  C   UNL     1      -1.898   3.406  -8.901  0.00  0.00    +0.233 C 
ATOM     26  O   UNL     1      -0.913   3.488  -9.603  0.00  0.00    -0.274 OA
ATOM     27  N   UNL     1      -3.126   3.506  -9.447  0.00  0.00    -0.239 N 
ATOM     28  C   UNL     1      -3.259   3.698 -10.775  0.00  0.00    +0.303 C 
ATOM     29  O   UNL     1      -2.272   3.780 -11.479  0.00  0.00    -0.253 OA
ATOM     30  N   UNL     1      -4.487   3.798 -11.321  0.00  0.00    -0.313 N 
ATOM     31  H   UNL     1      -4.019   3.432  -8.810  0.00  0.00    +0.159 HD
ATOM     32  H   UNL     1      -4.596   3.954 -12.405  0.00  0.00    +0.146 HD
ATOM     33  H   UNL     1      -5.380   3.723 -10.684  0.00  0.00    +0.146 HD
ENDBRANCH  23  25
ENDBRANCH  22  23
ENDBRANCH  10  22
TORSDOF 4
