REMARK  Name = ZINC55975708
REMARK  7 active torsions:
REMARK  status: ('A' for Active; 'I' for Inactive)
REMARK    1  A    between atoms: C_1  and  C_2
REMARK    2  A    between atoms: C_2  and  C_3
REMARK    3  A    between atoms: C_2  and  C_4
REMARK    4  A    between atoms: C_2  and  C_5
REMARK    5  A    between atoms: C_11  and  C_13
REMARK    6  A    between atoms: C_13  and  C_14
REMARK    7  A    between atoms: N_23  and  C_25
REMARK                            x       y       z     vdW  Elec       q    Type
REMARK                         _______ _______ _______ _____ _____    ______ ____
ROOT
ATOM      1  C   UNL     1       0.707  -0.490  -1.238  0.00  0.00    +0.109 A 
ATOM      2  N   UNL     1       1.944  -0.281  -1.644  0.00  0.00    -0.144 NA
ATOM      3  N   UNL     1       2.329  -0.794  -2.732  0.00  0.00    -0.126 NA
ATOM      4  C   UNL     1       1.528  -1.534  -3.475  0.00  0.00    +0.188 A 
ATOM      5  S   UNL     1       0.106  -1.520  -2.570  0.00  0.00    -0.035 S 
ATOM      6  N   UNL     1       1.791  -2.166  -4.686  0.00  0.00    -0.263 N 
ATOM      7  C   UNL     1       3.010  -2.059  -5.251  0.00  0.00    +0.225 C 
ATOM      8  O   UNL     1       3.878  -1.413  -4.704  0.00  0.00    -0.275 OA
ATOM      9  H   UNL     1       1.097  -2.683  -5.123  0.00  0.00    +0.157 HD
ENDROOT
BRANCH   1  11
ATOM     10  C   UNL     1      -0.019   1.526   0.010  0.00  0.00    +0.018 C 
ATOM     11  C   UNL     1       0.002  -0.004   0.002  0.00  0.00    +0.013 C 
ATOM     12  C   UNL     1       0.742  -0.511   1.242  0.00  0.00    +0.018 C 
ATOM     13  C   UNL     1      -1.433  -0.534   0.013  0.00  0.00    +0.018 C 
ENDBRANCH   1  11
BRANCH   7  14
ATOM     14  C   UNL     1       3.294  -2.744  -6.563  0.00  0.00    +0.154 C 
BRANCH  14  15
ATOM     15  C   UNL     1       4.718  -2.470  -6.974  0.00  0.00    +0.078 A 
ATOM     16  C   UNL     1       5.237  -3.024  -8.225  0.00  0.00    +0.011 A 
ATOM     17  C   UNL     1       4.449  -3.811  -9.066  0.00  0.00    +0.010 A 
ATOM     18  C   UNL     1       4.980  -4.306 -10.225  0.00  0.00    +0.001 A 
ATOM     19  C   UNL     1       6.296  -4.037 -10.578  0.00  0.00    +0.001 A 
ATOM     20  C   UNL     1       7.098  -3.264  -9.767  0.00  0.00    +0.014 A 
ATOM     21  C   UNL     1       6.577  -2.748  -8.581  0.00  0.00    +0.050 A 
ATOM     22  C   UNL     1       7.380  -1.917  -7.675  0.00  0.00    +0.275 A 
ATOM     23  O   UNL     1       8.539  -1.652  -7.940  0.00  0.00    -0.266 OA
ATOM     24  N   UNL     1       6.809  -1.453  -6.544  0.00  0.00    -0.232 N 
ATOM     25  N   UNL     1       5.482  -1.737  -6.221  0.00  0.00    -0.172 NA
ATOM     26  C   UNL     1       7.603  -0.623  -5.634  0.00  0.00    +0.176 C 
ENDBRANCH  14  15
ENDBRANCH   7  14
TORSDOF 3
