REMARK  Name = ZINC63339746
REMARK  13 active torsions:
REMARK  status: ('A' for Active; 'I' for Inactive)
REMARK    1  A    between atoms: C_1  and  C_2
REMARK    2  A    between atoms: C_6  and  C_8
REMARK    3  A    between atoms: C_8  and  S_9
REMARK    4  A    between atoms: S_9  and  C_10
REMARK    5  A    between atoms: C_14  and  C_17
REMARK    6  A    between atoms: C_17  and  C_19
REMARK    7  A    between atoms: C_17  and  N_29
REMARK    8  A    between atoms: C_19  and  C_20
REMARK    9  A    between atoms: C_30  and  O_32
REMARK   10  A    between atoms: O_32  and  C_33
REMARK   11  A    between atoms: C_33  and  C_34
REMARK   12  A    between atoms: C_33  and  C_35
REMARK   13  A    between atoms: C_33  and  C_36
REMARK                            x       y       z     vdW  Elec       q    Type
REMARK                         _______ _______ _______ _____ _____    ______ ____
ROOT
ATOM      1  C   UNL     1      -0.629  -3.832   7.347  0.00  0.00    +0.125 C 
ENDROOT
BRANCH   1   5
ATOM      2  C   UNL     1       1.732  -3.475   4.676  0.00  0.00    +0.263 C 
ATOM      3  N   UNL     1       1.087  -4.739   4.252  0.00  0.00    -0.218 NA
ATOM      4  N   UNL     1       0.235  -5.096   5.399  0.00  0.00    -0.225 NA
ATOM      5  C   UNL     1      -0.236  -3.767   5.870  0.00  0.00    +0.223 C 
ATOM      6  O   UNL     1       0.899  -2.893   5.689  0.00  0.00    -0.330 OA
ATOM      7  H   UNL     1       0.535  -4.602   3.420  0.00  0.00    +0.144 HD
ATOM      8  H   UNL     1      -0.541  -5.671   5.107  0.00  0.00    +0.143 HD
BRANCH   2   9
ATOM      9  S   UNL     1       1.866  -2.345   3.263  0.00  0.00    -0.108 S 
BRANCH   9  10
ATOM     10  C   UNL     1       0.153  -2.133   2.707  0.00  0.00    +0.108 C 
BRANCH  10  16
ATOM     11  C   UNL     1      -0.197   2.495   0.834  0.00  0.00    +0.044 C 
ATOM     12  C   UNL     1      -0.047   1.010   0.624  0.00  0.00    -0.050 A 
ATOM     13  C   UNL     1       0.062   0.500  -0.656  0.00  0.00    +0.003 A 
ATOM     14  C   UNL     1       0.200  -0.862  -0.848  0.00  0.00    +0.001 A 
ATOM     15  C   UNL     1       0.229  -1.714   0.240  0.00  0.00    +0.004 A 
ATOM     16  C   UNL     1       0.121  -1.204   1.520  0.00  0.00    -0.037 A 
ATOM     17  C   UNL     1      -0.013   0.159   1.713  0.00  0.00    +0.007 A 
ENDBRANCH  10  16
ENDBRANCH   9  10
ENDBRANCH   2   9
ENDBRANCH   1   5
BRANCH   1  18
ATOM     18  N   UNL     1       0.535  -4.225   8.145  0.00  0.00    -0.274 N 
ATOM     19  C   UNL     1       0.782  -5.529   8.380  0.00  0.00    +0.401 C 
ATOM     20  O   UNL     1       0.095  -6.382   7.855  0.00  0.00    -0.226 OA
ATOM     21  H   UNL     1       1.128  -3.546   8.504  0.00  0.00    +0.152 HD
BRANCH  19  22
ATOM     22  O   UNL     1       1.791  -5.886   9.197  0.00  0.00    -0.445 OA
BRANCH  22  23
ATOM     23  C   UNL     1       1.996  -7.286   9.400  0.00  0.00    +0.107 C 
ATOM     24  C   UNL     1       2.296  -7.958   8.059  0.00  0.00    +0.055 C 
ATOM     25  C   UNL     1       3.177  -7.495  10.351  0.00  0.00    +0.055 C 
ATOM     26  C   UNL     1       0.736  -7.902  10.010  0.00  0.00    +0.055 C 
ENDBRANCH  22  23
ENDBRANCH  19  22
ENDBRANCH   1  18
BRANCH   1  27
ATOM     27  C   UNL     1      -1.122  -2.458   7.805  0.00  0.00    +0.059 C 
BRANCH  27  28
ATOM     28  C   UNL     1      -1.624  -2.552   9.223  0.00  0.00    -0.040 C 
ATOM     29  C   UNL     1      -0.931  -2.273  10.351  0.00  0.00    -0.001 A 
ATOM     30  C   UNL     1       0.445  -1.818  10.586  0.00  0.00    +0.010 A 
ATOM     31  C   UNL     1       0.862  -1.622  11.857  0.00  0.00    +0.001 A 
ATOM     32  C   UNL     1       0.016  -1.842  12.953  0.00  0.00    +0.002 A 
ATOM     33  C   UNL     1      -1.260  -2.260  12.817  0.00  0.00    +0.026 A 
ATOM     34  C   UNL     1      -1.804  -2.498  11.525  0.00  0.00    +0.043 A 
ATOM     35  N   UNL     1      -2.991  -2.900  11.138  0.00  0.00    -0.380 N 
ATOM     36  C   UNL     1      -3.006  -2.970   9.673  0.00  0.00    +0.144 C 
ATOM     37  H   UNL     1      -3.735  -3.112  11.723  0.00  0.00    +0.160 HD
ENDBRANCH  27  28
ENDBRANCH   1  27
TORSDOF 9
