REMARK  Name = ZINC08136052
REMARK  6 active torsions:
REMARK  status: ('A' for Active; 'I' for Inactive)
REMARK    1  A    between atoms: C_4  and  S_7
REMARK    2  A    between atoms: S_7  and  C_8
REMARK    3  A    between atoms: C_8  and  C_9
REMARK    4  A    between atoms: C_9  and  N_10
REMARK    5  A    between atoms: C_11  and  C_13
REMARK    6  A    between atoms: C_13  and  N_14
REMARK                            x       y       z     vdW  Elec       q    Type
REMARK                         _______ _______ _______ _____ _____    ______ ____
ROOT
ATOM      1  N   UNL     1       4.342  -4.861  -0.067  0.00  0.00    -0.313 N 
ATOM      2  C   UNL     1       5.292  -5.816  -0.082  0.00  0.00    +0.235 C 
ATOM      3  O   UNL     1       6.464  -5.505  -0.092  0.00  0.00    -0.274 OA
ATOM      4  H   UNL     1       3.404  -5.109  -0.059  0.00  0.00    +0.149 HD
ENDROOT
BRANCH   1   5
ATOM      5  C   UNL     1       4.724  -3.447  -0.064  0.00  0.00    +0.115 C 
BRANCH   5   6
ATOM      6  C   UNL     1       3.465  -2.578  -0.046  0.00  0.00    +0.093 C 
BRANCH   6   7
ATOM      7  S   UNL     1       3.939  -0.827  -0.042  0.00  0.00    -0.124 S 
BRANCH   7  11
ATOM      8  C   UNL     1      -0.017   1.379   0.010  0.00  0.00    +0.000 A 
ATOM      9  C   UNL     1       1.169   2.090   0.002  0.00  0.00    +0.001 A 
ATOM     10  C   UNL     1       2.377   1.421  -0.013  0.00  0.00    +0.015 A 
ATOM     11  C   UNL     1       2.400   0.031  -0.021  0.00  0.00    +0.008 A 
ATOM     12  C   UNL     1       1.206  -0.680  -0.013  0.00  0.00    +0.015 A 
ATOM     13  C   UNL     1       0.002  -0.004   0.002  0.00  0.00    +0.001 A 
ENDBRANCH   7  11
ENDBRANCH   6   7
ENDBRANCH   5   6
ENDBRANCH   1   5
BRANCH   2  14
ATOM     14  C   UNL     1       4.899  -7.271  -0.086  0.00  0.00    +0.243 C 
BRANCH  14  15
ATOM     15  N   UNL     1       6.104  -8.103  -0.102  0.00  0.00    -0.217 N 
ATOM     16  C   UNL     1       6.653  -8.486   1.069  0.00  0.00    +0.276 A 
ATOM     17  O   UNL     1       6.155  -8.147   2.127  0.00  0.00    -0.266 OA
ATOM     18  C   UNL     1       7.862  -9.320   1.045  0.00  0.00    +0.053 A 
ATOM     19  C   UNL     1       8.481  -9.753   2.217  0.00  0.00    +0.014 A 
ATOM     20  C   UNL     1       9.613 -10.534   2.138  0.00  0.00    +0.001 A 
ATOM     21  C   UNL     1      10.141 -10.894   0.904  0.00  0.00    +0.001 A 
ATOM     22  C   UNL     1       9.545 -10.478  -0.265  0.00  0.00    +0.014 A 
ATOM     23  C   UNL     1       8.398  -9.686  -0.209  0.00  0.00    +0.055 A 
ATOM     24  C   UNL     1       7.724  -9.215  -1.424  0.00  0.00    +0.295 A 
ATOM     25  O   UNL     1       8.213  -9.549  -2.645  0.00  0.00    -0.264 OA
ATOM     26  N   UNL     1       6.650  -8.482  -1.329  0.00  0.00    -0.125 NA
ENDBRANCH  14  15
ENDBRANCH   2  14
TORSDOF 6
