REMARK  Name = ZINC53620056
REMARK  6 active torsions:
REMARK  status: ('A' for Active; 'I' for Inactive)
REMARK    1  A    between atoms: C_1  and  C_2
REMARK    2  A    between atoms: C_6  and  C_8
REMARK    3  A    between atoms: C_8  and  O_9
REMARK    4  A    between atoms: O_9  and  C_10
REMARK    5  A    between atoms: C_18  and  C_20
REMARK    6  A    between atoms: C_23  and  C_27
REMARK                            x       y       z     vdW  Elec       q    Type
REMARK                         _______ _______ _______ _____ _____    ______ ____
ROOT
ATOM      1  C   UNL     1      -0.013   1.086   0.008  0.00  0.00    +0.066 C 
ATOM      2  C   UNL     1      -0.742   1.585  -1.213  0.00  0.00    +0.054 A 
ATOM      3  N   UNL     1      -2.044   1.798  -1.199  0.00  0.00    -0.229 NA
ATOM      4  C   UNL     1      -2.674   2.233  -2.269  0.00  0.00    +0.165 A 
ATOM      5  N   UNL     1      -4.027   2.507  -2.424  0.00  0.00    -0.262 N 
ATOM      6  C   UNL     1      -4.873   2.328  -1.390  0.00  0.00    +0.256 C 
ATOM      7  O   UNL     1      -4.453   1.928  -0.325  0.00  0.00    -0.272 OA
ATOM      8  S   UNL     1      -1.441   2.380  -3.405  0.00  0.00    -0.053 S 
ATOM      9  C   UNL     1      -0.088   1.841  -2.373  0.00  0.00    +0.059 A 
ATOM     10  H   UNL     1      -4.364   2.827  -3.275  0.00  0.00    +0.157 HD
ENDROOT
BRANCH   9  11
ATOM     11  C   UNL     1       1.377   1.706  -2.700  0.00  0.00    +0.250 C 
ATOM     12  N   UNL     1       1.544   1.382  -4.135  0.00  0.00    -0.265 NA
ATOM     13  C   UNL     1       2.684   0.427  -4.159  0.00  0.00    +0.180 C 
ATOM     14  N   UNL     1       2.461  -0.362  -2.917  0.00  0.00    -0.177 NA
ATOM     15  O   UNL     1       1.948   0.626  -1.946  0.00  0.00    -0.274 OA
ATOM     16  H   UNL     1       0.709   0.958  -4.509  0.00  0.00    +0.127 HD
ATOM     17  H   UNL     1       1.790  -1.099  -3.073  0.00  0.00    +0.156 HD
BRANCH  13  18
ATOM     18  C   UNL     1       2.619  -0.455  -5.379  0.00  0.00    -0.014 A 
ATOM     19  C   UNL     1       2.054   0.022  -6.547  0.00  0.00    +0.009 A 
ATOM     20  C   UNL     1       1.994  -0.786  -7.666  0.00  0.00    +0.039 A 
ATOM     21  C   UNL     1       2.500  -2.074  -7.618  0.00  0.00    +0.123 A 
ATOM     22  C   UNL     1       3.066  -2.551  -6.448  0.00  0.00    +0.039 A 
ATOM     23  C   UNL     1       3.129  -1.739  -5.331  0.00  0.00    +0.009 A 
ATOM     24  F   UNL     1       2.442  -2.865  -8.712  0.00  0.00    -0.205 F 
ENDBRANCH  13  18
ENDBRANCH   9  11
BRANCH   6  25
ATOM     25  C   UNL     1      -6.341   2.624  -1.557  0.00  0.00    +0.325 C 
BRANCH  25  26
ATOM     26  O   UNL     1      -7.024   2.358  -0.331  0.00  0.00    -0.481 OA
BRANCH  26  27
ATOM     27  C   UNL     1      -8.366   2.576  -0.311  0.00  0.00    +0.139 A 
ATOM     28  C   UNL     1      -9.012   3.030  -1.451  0.00  0.00    +0.047 A 
ATOM     29  C   UNL     1     -10.376   3.250  -1.429  0.00  0.00    +0.004 A 
ATOM     30  C   UNL     1     -11.097   3.018  -0.272  0.00  0.00    +0.002 A 
ATOM     31  C   UNL     1     -10.456   2.565   0.866  0.00  0.00    +0.023 A 
ATOM     32  C   UNL     1      -9.092   2.338   0.848  0.00  0.00    +0.083 A 
ATOM     33 CL   UNL     1      -8.288   1.762   2.275  0.00  0.00    -0.080 Cl
ENDBRANCH  26  27
ENDBRANCH  25  26
ENDBRANCH   6  25
TORSDOF 5
