REMARK  Name = ZINC59108878
REMARK  5 active torsions:
REMARK  status: ('A' for Active; 'I' for Inactive)
REMARK    1  A    between atoms: C_1  and  N_2
REMARK    2  A    between atoms: C_3  and  C_5
REMARK    3  A    between atoms: N_10  and  C_21
REMARK    4  A    between atoms: N_12  and  C_13
REMARK    5  A    between atoms: C_21  and  C_22
REMARK                            x       y       z     vdW  Elec       q    Type
REMARK                         _______ _______ _______ _____ _____    ______ ____
ROOT
ATOM      1  C   UNL     1       0.606  -2.171  -1.026  0.00  0.00    +0.148 C 
ATOM      2  C   UNL     1       0.617  -2.681  -2.469  0.00  0.00    +0.120 C 
ATOM      3  C   UNL     1       0.849  -4.150  -2.552  0.00  0.00    +0.223 C 
ATOM      4  O   UNL     1       0.374  -4.703  -3.521  0.00  0.00    -0.275 OA
ATOM      5  N   UNL     1       1.506  -4.933  -1.708  0.00  0.00    -0.246 N 
ATOM      6  C   UNL     1       1.994  -4.518  -0.483  0.00  0.00    +0.164 C 
ATOM      7  N   UNL     1       2.351  -5.383   0.438  0.00  0.00    -0.226 NA
ATOM      8  S   UNL     1       2.118  -2.772  -0.205  0.00  0.00    -0.077 S 
ENDROOT
BRANCH   7   9
ATOM      9  C   UNL     1       2.832  -4.941   1.642  0.00  0.00    +0.068 A 
ATOM     10  C   UNL     1       3.772  -3.910   1.686  0.00  0.00    +0.028 A 
ATOM     11  C   UNL     1       4.253  -3.470   2.902  0.00  0.00    +0.003 A 
ATOM     12  C   UNL     1       3.805  -4.048   4.077  0.00  0.00    +0.020 A 
ATOM     13  C   UNL     1       2.873  -5.071   4.041  0.00  0.00    +0.043 A 
ATOM     14  C   UNL     1       2.379  -5.517   2.831  0.00  0.00    +0.047 A 
ATOM     15 CL   UNL     1       2.318  -5.790   5.520  0.00  0.00    -0.083 Cl
ENDBRANCH   7   9
BRANCH   1  18
ATOM     16  C   UNL     1      -0.018   1.461   0.010  0.00  0.00    +0.128 C 
ATOM     17  N   UNL     1       0.002  -0.004   0.002  0.00  0.00    -0.317 N 
ATOM     18  C   UNL     1       0.585  -0.664  -1.018  0.00  0.00    +0.227 C 
ATOM     19  O   UNL     1       1.093  -0.046  -1.929  0.00  0.00    -0.275 OA
ATOM     20  H   UNL     1      -0.404  -0.499   0.731  0.00  0.00    +0.148 HD
ENDBRANCH   1  18
BRANCH   5  21
ATOM     21  C   UNL     1       1.728  -6.327  -2.099  0.00  0.00    +0.150 C 
BRANCH  21  22
ATOM     22  C   UNL     1       3.031  -6.437  -2.847  0.00  0.00    -0.026 A 
ATOM     23  C   UNL     1       3.053  -6.285  -4.221  0.00  0.00    +0.009 A 
ATOM     24  C   UNL     1       4.247  -6.385  -4.912  0.00  0.00    +0.050 A 
ATOM     25  C   UNL     1       5.424  -6.639  -4.228  0.00  0.00    +0.166 A 
ATOM     26  C   UNL     1       5.402  -6.792  -2.844  0.00  0.00    +0.167 A 
ATOM     27  C   UNL     1       4.204  -6.685  -2.158  0.00  0.00    +0.054 A 
ATOM     28  O   UNL     1       6.675  -7.032  -2.411  0.00  0.00    -0.453 OA
ATOM     29  C   UNL     1       7.411  -7.429  -3.583  0.00  0.00    +0.466 C 
ATOM     30  O   UNL     1       6.710  -6.782  -4.662  0.00  0.00    -0.453 OA
ENDBRANCH  21  22
ENDBRANCH   5  21
TORSDOF 4
