REMARK  Name = ZINC34007762
REMARK  10 active torsions:
REMARK  status: ('A' for Active; 'I' for Inactive)
REMARK    1  A    between atoms: C_1  and  C_2
REMARK    2  A    between atoms: C_2  and  C_3
REMARK    3  A    between atoms: C_3  and  C_5
REMARK    4  A    between atoms: C_3  and  N_6
REMARK    5  A    between atoms: C_9  and  C_26
REMARK    6  A    between atoms: C_14  and  C_25
REMARK    7  A    between atoms: C_15  and  C_16
REMARK    8  A    between atoms: C_19  and  O_23
REMARK    9  A    between atoms: C_21  and  C_22
REMARK   10  A    between atoms: O_23  and  C_24
REMARK                            x       y       z     vdW  Elec       q    Type
REMARK                         _______ _______ _______ _____ _____    ______ ____
ROOT
ATOM      1  N   UNL     1      -0.055  -0.114  -2.441  0.00  0.00    -0.311 N 
ATOM      2  C   UNL     1       0.571   0.030  -3.651  0.00  0.00    +0.220 A 
ATOM      3  N   UNL     1       1.871  -0.180  -3.759  0.00  0.00    -0.200 NA
ATOM      4  C   UNL     1       2.491  -0.044  -4.928  0.00  0.00    +0.132 A 
ATOM      5  N   UNL     1       1.836   0.304  -6.012  0.00  0.00    -0.213 NA
ATOM      6  C   UNL     1       0.516   0.530  -5.957  0.00  0.00    +0.169 A 
ATOM      7  N   UNL     1      -0.144   0.388  -4.761  0.00  0.00    -0.183 N 
ATOM      8  N   UNL     1      -1.494   0.671  -4.980  0.00  0.00    -0.167 NA
ATOM      9  C   UNL     1      -1.673   0.967  -6.244  0.00  0.00    +0.070 A 
ATOM     10  C   UNL     1      -0.438   0.903  -6.903  0.00  0.00    +0.051 A 
ATOM     11  C   UNL     1      -2.990   1.331  -6.881  0.00  0.00    +0.068 C 
ATOM     12  C   UNL     1       3.975  -0.293  -5.010  0.00  0.00    +0.088 C 
ATOM     13  H   UNL     1      -1.010   0.038  -2.368  0.00  0.00    +0.149 HD
ENDROOT
BRANCH  10  14
ATOM     14  C   UNL     1      -0.194   1.165  -8.341  0.00  0.00    +0.009 A 
ATOM     15  C   UNL     1      -0.292   0.130  -9.279  0.00  0.00    +0.015 A 
ATOM     16  C   UNL     1      -0.056   0.424 -10.608  0.00  0.00    +0.068 A 
ATOM     17  C   UNL     1       0.268   1.726 -10.969  0.00  0.00    +0.215 A 
ATOM     18  N   UNL     1       0.353   2.682 -10.059  0.00  0.00    -0.218 NA
ATOM     19  C   UNL     1       0.130   2.446  -8.781  0.00  0.00    +0.050 A 
ATOM     20  C   UNL     1       0.234   3.573  -7.785  0.00  0.00    +0.066 C 
BRANCH  17  21
ATOM     21  O   UNL     1       0.501   2.022 -12.273  0.00  0.00    -0.480 OA
ATOM     22  C   UNL     1       0.829   3.377 -12.583  0.00  0.00    +0.279 C 
ENDBRANCH  17  21
ENDBRANCH  10  14
BRANCH   1  23
ATOM     23  C   UNL     1       0.718  -0.497  -1.257  0.00  0.00    +0.070 C 
ATOM     24  C   UNL     1       0.849  -2.021  -1.205  0.00  0.00    +0.028 C 
BRANCH  23  26
ATOM     25  C   UNL     1      -0.019   1.526   0.010  0.00  0.00    +0.005 C 
ATOM     26  C   UNL     1       0.002  -0.004   0.002  0.00  0.00    +0.018 C 
ENDBRANCH  23  26
ENDBRANCH   1  23
TORSDOF 4
