REMARK  Name = ZINC67129211
REMARK  6 active torsions:
REMARK  status: ('A' for Active; 'I' for Inactive)
REMARK    1  A    between atoms: C_1  and  C_2
REMARK    2  A    between atoms: C_3  and  C_13
REMARK    3  A    between atoms: C_5  and  C_7
REMARK    4  A    between atoms: N_15  and  N_16
REMARK    5  A    between atoms: C_17  and  C_19
REMARK    6  A    between atoms: C_22  and  C_24
REMARK                            x       y       z     vdW  Elec       q    Type
REMARK                         _______ _______ _______ _____ _____    ______ ____
ROOT
ATOM      1  C   UNL     1      -0.008  -0.258  -2.570  0.00  0.00    +0.269 C 
ATOM      2  O   UNL     1      -0.026   0.936  -2.807  0.00  0.00    -0.268 OA
ATOM      3  N   UNL     1      -0.001  -1.145  -3.584  0.00  0.00    -0.230 N 
ATOM      4  H   UNL     1       0.014  -2.097  -3.396  0.00  0.00    +0.173 HD
ENDROOT
BRANCH   1   7
ATOM      5  C   UNL     1      -0.018   1.503   0.010  0.00  0.00    +0.067 C 
ATOM      6  C   UNL     1       0.002  -0.004   0.002  0.00  0.00    +0.058 A 
ATOM      7  C   UNL     1       0.006  -0.730  -1.183  0.00  0.00    +0.098 A 
ATOM      8  S   UNL     1       0.033  -2.398  -0.546  0.00  0.00    -0.062 S 
ATOM      9  C   UNL     1       0.036  -2.021   1.095  0.00  0.00    +0.109 A 
ATOM     10  N   UNL     1       0.022  -0.699   1.109  0.00  0.00    -0.243 NA
BRANCH   9  11
ATOM     11  C   UNL     1       0.054  -2.948   2.246  0.00  0.00    +0.007 A 
ATOM     12  C   UNL     1       0.048  -2.447   3.549  0.00  0.00    +0.010 A 
ATOM     13  C   UNL     1       0.064  -3.318   4.619  0.00  0.00    +0.001 A 
ATOM     14  C   UNL     1       0.088  -4.684   4.403  0.00  0.00    +0.000 A 
ATOM     15  C   UNL     1       0.094  -5.187   3.114  0.00  0.00    +0.001 A 
ATOM     16  C   UNL     1       0.072  -4.328   2.035  0.00  0.00    +0.010 A 
ENDBRANCH   9  11
ENDBRANCH   1   7
BRANCH   3  17
ATOM     17  N   UNL     1      -0.014  -0.694  -4.911  0.00  0.00    -0.234 N 
ATOM     18  C   UNL     1      -0.007  -1.581  -5.925  0.00  0.00    +0.233 C 
ATOM     19  O   UNL     1       0.011  -2.771  -5.689  0.00  0.00    -0.274 OA
ATOM     20  H   UNL     1      -0.029   0.258  -5.099  0.00  0.00    +0.173 HD
BRANCH  18  21
ATOM     21  C   UNL     1      -0.021  -1.096  -7.351  0.00  0.00    +0.084 C 
ATOM     22  C   UNL     1      -1.287  -1.352  -8.172  0.00  0.00    +0.022 C 
ATOM     23  C   UNL     1      -0.014  -2.153  -8.457  0.00  0.00    +0.032 C 
BRANCH  23  24
ATOM     24  C   UNL     1       0.741  -1.832  -9.722  0.00  0.00    -0.041 A 
ATOM     25  C   UNL     1       0.386  -0.730 -10.478  0.00  0.00    +0.004 A 
ATOM     26  C   UNL     1       1.078  -0.434 -11.637  0.00  0.00    +0.003 A 
ATOM     27  C   UNL     1       2.124  -1.241 -12.043  0.00  0.00    +0.038 A 
ATOM     28  C   UNL     1       2.481  -2.344 -11.287  0.00  0.00    +0.124 A 
ATOM     29  C   UNL     1       1.791  -2.636 -10.122  0.00  0.00    +0.042 A 
ATOM     30  F   UNL     1       3.503  -3.133 -11.682  0.00  0.00    -0.205 F 
ENDBRANCH  23  24
ENDBRANCH  18  21
ENDBRANCH   3  17
TORSDOF 5
