REMARK  Name = ZINC55649142
REMARK  8 active torsions:
REMARK  status: ('A' for Active; 'I' for Inactive)
REMARK    1  A    between atoms: C_1  and  C_2
REMARK    2  A    between atoms: C_3  and  N_11
REMARK    3  A    between atoms: C_4  and  C_10
REMARK    4  A    between atoms: N_5  and  C_7
REMARK    5  A    between atoms: C_7  and  C_8
REMARK    6  A    between atoms: C_7  and  C_9
REMARK    7  A    between atoms: N_11  and  S_12
REMARK    8  A    between atoms: S_12  and  C_15
REMARK                            x       y       z     vdW  Elec       q    Type
REMARK                         _______ _______ _______ _____ _____    ______ ____
ROOT
ATOM      1  N   UNL     1      -0.235  -0.258  -2.540  0.00  0.00    -0.213 N 
ATOM      2  H   UNL     1      -0.921   0.356  -2.847  0.00  0.00    +0.174 HD
ENDROOT
BRANCH   1   5
ATOM      3  C   UNL     1       0.098   1.758  -0.190  0.00  0.00    +0.069 C 
ATOM      4  C   UNL     1      -0.023   0.259  -0.098  0.00  0.00    +0.082 A 
ATOM      5  C   UNL     1      -0.172  -0.620  -1.181  0.00  0.00    +0.091 A 
ATOM      6  C   UNL     1      -0.246  -1.882  -0.686  0.00  0.00    +0.059 A 
ATOM      7  N   UNL     1      -0.145  -1.798   0.668  0.00  0.00    -0.264 N 
ATOM      8  N   UNL     1      -0.001  -0.446   1.005  0.00  0.00    -0.174 NA
ATOM      9  C   UNL     1      -0.409  -3.146  -1.490  0.00  0.00    +0.067 C 
BRANCH   7  10
ATOM     10  C   UNL     1      -0.176  -2.922   1.607  0.00  0.00    +0.101 C 
ATOM     11  C   UNL     1       1.132  -2.961   2.399  0.00  0.00    +0.032 C 
ATOM     12  C   UNL     1      -1.352  -2.749   2.570  0.00  0.00    +0.032 C 
ENDBRANCH   7  10
ENDBRANCH   1   5
BRANCH   1  13
ATOM     13  S   UNL     1       0.861  -0.879  -3.614  0.00  0.00    +0.075 S 
ATOM     14  O   UNL     1       0.832  -2.291  -3.453  0.00  0.00    -0.150 OA
ATOM     15  O   UNL     1       0.608  -0.250  -4.862  0.00  0.00    -0.150 OA
BRANCH  13  16
ATOM     16  C   UNL     1       2.458  -0.346  -3.095  0.00  0.00    +0.137 A 
ATOM     17  C   UNL     1       3.373  -1.255  -2.684  0.00  0.00    +0.031 A 
ATOM     18  C   UNL     1       4.647  -0.869  -2.267  0.00  0.00    +0.004 A 
ATOM     19  C   UNL     1       5.024   0.431  -2.256  0.00  0.00    +0.031 A 
ATOM     20  C   UNL     1       4.115   1.441  -2.674  0.00  0.00    +0.102 A 
ATOM     21  C   UNL     1       2.785   1.037  -3.115  0.00  0.00    +0.126 A 
ATOM     22  N   UNL     1       2.022   2.065  -3.489  0.00  0.00    -0.189 NA
ATOM     23  S   UNL     1       2.934   3.376  -3.293  0.00  0.00    +0.117 S 
ATOM     24  N   UNL     1       4.308   2.759  -2.729  0.00  0.00    -0.191 NA
ENDBRANCH  13  16
ENDBRANCH   1  13
TORSDOF 4
