REMARK  Name = ZINC36660401
REMARK  13 active torsions:
REMARK  status: ('A' for Active; 'I' for Inactive)
REMARK    1  A    between atoms: C_1  and  C_2
REMARK    2  A    between atoms: C_2  and  C_3
REMARK    3  A    between atoms: N_12  and  C_13
REMARK    4  A    between atoms: C_13  and  C_14
REMARK    5  A    between atoms: C_14  and  C_15
REMARK    6  A    between atoms: C_15  and  N_16
REMARK    7  A    between atoms: N_16  and  C_17
REMARK    8  A    between atoms: N_16  and  C_18
REMARK    9  A    between atoms: C_19  and  C_21
REMARK   10  A    between atoms: N_26  and  S_27
REMARK   11  A    between atoms: S_27  and  C_30
REMARK   12  A    between atoms: C_33  and  O_36
REMARK   13  A    between atoms: O_36  and  C_37
REMARK                            x       y       z     vdW  Elec       q    Type
REMARK                         _______ _______ _______ _____ _____    ______ ____
ROOT
ATOM      1  C   UNL     1      -2.104   0.890   0.089  0.00  0.00    -0.046 A 
ATOM      2  C   UNL     1      -2.835   0.732   1.258  0.00  0.00    +0.006 A 
ATOM      3  C   UNL     1      -4.020   0.044   1.274  0.00  0.00    +0.029 A 
ATOM      4  C   UNL     1      -4.538  -0.531   0.091  0.00  0.00    +0.080 A 
ATOM      5  C   UNL     1      -3.767  -0.350  -1.080  0.00  0.00    +0.041 A 
ATOM      6  C   UNL     1      -2.584   0.346  -1.088  0.00  0.00    +0.021 A 
ATOM      7  S   UNL     1      -4.735  -1.197  -2.305  0.00  0.00    -0.052 S 
ATOM      8  C   UNL     1      -6.058  -1.721  -1.223  0.00  0.00    +0.168 A 
ATOM      9  N   UNL     1      -5.681  -1.234  -0.064  0.00  0.00    -0.224 NA
ATOM     10  N   UNL     1      -7.193  -2.454  -1.530  0.00  0.00    -0.249 N 
ATOM     11  C   UNL     1      -7.471  -2.760  -2.812  0.00  0.00    +0.240 C 
ATOM     12  O   UNL     1      -8.505  -3.330  -3.089  0.00  0.00    -0.273 OA
ENDROOT
BRANCH  11  13
ATOM     13  C   UNL     1      -6.498  -2.393  -3.903  0.00  0.00    +0.166 C 
ATOM     14  C   UNL     1      -5.298  -3.362  -3.883  0.00  0.00    +0.031 C 
ATOM     15  C   UNL     1      -5.671  -4.400  -4.975  0.00  0.00    +0.019 C 
ATOM     16  C   UNL     1      -6.392  -3.509  -6.017  0.00  0.00    +0.110 C 
ATOM     17  N   UNL     1      -7.147  -2.523  -5.216  0.00  0.00    -0.165 NA
BRANCH  17  18
ATOM     18  S   UNL     1      -8.497  -1.702  -5.711  0.00  0.00    +0.062 S 
ATOM     19  O   UNL     1      -9.094  -2.483  -6.737  0.00  0.00    -0.153 OA
ATOM     20  O   UNL     1      -9.199  -1.327  -4.534  0.00  0.00    -0.153 OA
BRANCH  18  21
ATOM     21  C   UNL     1      -7.951  -0.208  -6.469  0.00  0.00    +0.106 A 
ATOM     22  C   UNL     1      -7.782   0.931  -5.704  0.00  0.00    +0.032 A 
ATOM     23  C   UNL     1      -7.354   2.104  -6.296  0.00  0.00    +0.047 A 
ATOM     24  C   UNL     1      -7.093   2.138  -7.658  0.00  0.00    +0.120 A 
ATOM     25  C   UNL     1      -7.263   0.993  -8.423  0.00  0.00    +0.047 A 
ATOM     26  C   UNL     1      -7.686  -0.179  -7.825  0.00  0.00    +0.032 A 
BRANCH  24  27
ATOM     27  O   UNL     1      -6.673   3.290  -8.242  0.00  0.00    -0.495 OA
ATOM     28  C   UNL     1      -6.423   3.251  -9.649  0.00  0.00    +0.277 C 
ENDBRANCH  24  27
ENDBRANCH  18  21
ENDBRANCH  17  18
ENDBRANCH  11  13
BRANCH   1  30
ATOM     29  C   UNL     1      -1.079   3.133  -0.169  0.00  0.00    +0.009 C 
ATOM     30  C   UNL     1      -0.804   1.653   0.101  0.00  0.00    +0.032 C 
ENDBRANCH   1  30
BRANCH  10  31
ATOM     31  C   UNL     1      -8.089  -2.898  -0.460  0.00  0.00    +0.114 C 
BRANCH  31  32
ATOM     32  C   UNL     1      -9.139  -1.817  -0.193  0.00  0.00    +0.001 C 
BRANCH  32  33
ATOM     33  C   UNL     1     -10.129  -2.316   0.861  0.00  0.00    -0.078 C 
BRANCH  33  34
ATOM     34  N   UNL     1     -11.137  -1.279   1.117  0.00  0.00    +0.376 N 
ATOM     35  C   UNL     1     -12.155  -1.801   2.038  0.00  0.00    -0.097 C 
ATOM     36  C   UNL     1     -10.489  -0.105   1.718  0.00  0.00    -0.097 C 
ATOM     37  H   UNL     1     -11.574  -1.013   0.247  0.00  0.00    -0.083 HD
ENDBRANCH  33  34
ENDBRANCH  32  33
ENDBRANCH  31  32
ENDBRANCH  10  31
TORSDOF 9
