REMARK  Name = ZINC59876074
REMARK  13 active torsions:
REMARK  status: ('A' for Active; 'I' for Inactive)
REMARK    1  A    between atoms: C_1  and  C_2
REMARK    2  A    between atoms: C_2  and  C_3
REMARK    3  A    between atoms: C_6  and  C_9
REMARK    4  A    between atoms: C_9  and  C_11
REMARK    5  A    between atoms: C_9  and  N_31
REMARK    6  A    between atoms: C_11  and  N_12
REMARK    7  A    between atoms: C_13  and  C_15
REMARK    8  A    between atoms: C_15  and  C_16
REMARK    9  A    between atoms: C_16  and  C_17
REMARK   10  A    between atoms: C_17  and  C_18
REMARK   11  A    between atoms: C_18  and  C_19
REMARK   12  A    between atoms: N_31  and  C_32
REMARK   13  A    between atoms: N_31  and  C_33
REMARK                            x       y       z     vdW  Elec       q    Type
REMARK                         _______ _______ _______ _____ _____    ______ ____
ROOT
ATOM      1  N   UNL     1       3.266  -3.747   6.205  0.00  0.00    -0.317 N 
ATOM      2  C   UNL     1       3.276  -5.034   6.607  0.00  0.00    +0.213 C 
ATOM      3  O   UNL     1       2.687  -5.875   5.963  0.00  0.00    -0.276 OA
ATOM      4  H   UNL     1       3.737  -3.074   6.720  0.00  0.00    +0.149 HD
ENDROOT
BRANCH   1   5
ATOM      5  C   UNL     1       2.543  -3.366   4.989  0.00  0.00    +0.093 C 
BRANCH   5   6
ATOM      6  C   UNL     1       2.798  -1.888   4.687  0.00  0.00    -0.021 C 
BRANCH   6  10
ATOM      7  C   UNL     1       6.931  -1.317   3.769  0.00  0.00    -0.048 A 
ATOM      8  C   UNL     1       6.454  -1.011   5.030  0.00  0.00    +0.004 A 
ATOM      9  C   UNL     1       5.117  -1.195   5.327  0.00  0.00    +0.002 A 
ATOM     10  C   UNL     1       4.256  -1.685   4.363  0.00  0.00    -0.059 A 
ATOM     11  C   UNL     1       4.732  -1.990   3.101  0.00  0.00    +0.002 A 
ATOM     12  C   UNL     1       6.069  -1.802   2.803  0.00  0.00    +0.004 A 
BRANCH   7  14
ATOM     13  C   UNL     1       8.601   0.302   2.909  0.00  0.00    +0.009 C 
ATOM     14  C   UNL     1       8.389  -1.115   3.445  0.00  0.00    +0.032 C 
ENDBRANCH   7  14
ENDBRANCH   6  10
BRANCH   6  15
ATOM     15  N   UNL     1       1.980  -1.474   3.539  0.00  0.00    +0.382 N 
ATOM     16  C   UNL     1       0.558  -1.655   3.861  0.00  0.00    -0.096 C 
ATOM     17  C   UNL     1       2.238  -0.060   3.238  0.00  0.00    -0.096 C 
ATOM     18  H   UNL     1       2.217  -2.038   2.736  0.00  0.00    -0.082 HD
ENDBRANCH   6  15
ENDBRANCH   5   6
ENDBRANCH   1   5
BRANCH   2  19
ATOM     19  C   UNL     1       4.019  -5.426   7.858  0.00  0.00    +0.096 C 
BRANCH  19  20
ATOM     20  C   UNL     1       3.872  -6.932   8.087  0.00  0.00    +0.009 C 
BRANCH  20  21
ATOM     21  C   UNL     1       4.627  -7.330   9.357  0.00  0.00    +0.002 C 
BRANCH  21  22
ATOM     22  C   UNL     1       4.480  -8.836   9.586  0.00  0.00    +0.016 C 
BRANCH  22  23
ATOM     23  C   UNL     1       5.235  -9.234  10.856  0.00  0.00    +0.069 C 
ATOM     24  C   UNL     1       5.075 -10.742  11.146  0.00  0.00    +0.108 C 
ATOM     25  C   UNL     1       6.358 -11.412  11.646  0.00  0.00    +0.105 C 
ATOM     26  C   UNL     1       7.560 -10.449  11.752  0.00  0.00    +0.093 C 
ATOM     27  S   UNL     1       7.059  -9.101  10.612  0.00  0.00    -0.154 S 
ATOM     28  N   UNL     1       6.654 -12.427  10.622  0.00  0.00    -0.294 N 
ATOM     29  C   UNL     1       5.711 -12.375   9.671  0.00  0.00    +0.300 C 
ATOM     30  O   UNL     1       5.708 -13.106   8.700  0.00  0.00    -0.253 OA
ATOM     31  N   UNL     1       4.782 -11.445   9.887  0.00  0.00    -0.294 N 
ATOM     32  H   UNL     1       7.410 -13.035  10.634  0.00  0.00    +0.151 HD
ATOM     33  H   UNL     1       4.029 -11.265   9.303  0.00  0.00    +0.151 HD
ENDBRANCH  22  23
ENDBRANCH  21  22
ENDBRANCH  20  21
ENDBRANCH  19  20
ENDBRANCH   2  19
TORSDOF 10
