REMARK  Name = ZINC61720182
REMARK  6 active torsions:
REMARK  status: ('A' for Active; 'I' for Inactive)
REMARK    1  A    between atoms: C_6  and  C_7
REMARK    2  A    between atoms: N_12  and  C_14
REMARK    3  A    between atoms: C_14  and  C_15
REMARK    4  A    between atoms: N_17  and  C_18
REMARK    5  A    between atoms: C_18  and  C_19
REMARK    6  A    between atoms: C_22  and  C_25
REMARK                            x       y       z     vdW  Elec       q    Type
REMARK                         _______ _______ _______ _____ _____    ______ ____
ROOT
ATOM      1  C   UNL     1      -4.781   0.049   0.039  0.00  0.00    +0.243 C 
ENDROOT
BRANCH   1   7
ATOM      2  C   UNL     1      -1.271  -0.766   0.011  0.00  0.00    +0.092 A 
ATOM      3  C   UNL     1      -1.246  -2.180   0.009  0.00  0.00    +0.035 A 
ATOM      4  C   UNL     1      -2.435  -2.847   0.017  0.00  0.00    +0.074 A 
ATOM      5  C   UNL     1      -3.622  -2.081   0.027  0.00  0.00    +0.268 A 
ATOM      6  O   UNL     1      -4.710  -2.634   0.036  0.00  0.00    -0.266 OA
ATOM      7  N   UNL     1      -3.545  -0.737   0.028  0.00  0.00    -0.220 N 
ATOM      8  N   UNL     1      -2.416  -0.125   0.025  0.00  0.00    -0.168 NA
BRANCH   2  14
ATOM      9  C   UNL     1      -0.017   1.389   0.010  0.00  0.00    +0.011 A 
ATOM     10  C   UNL     1       1.170   2.093   0.002  0.00  0.00    +0.016 A 
ATOM     11  C   UNL     1       2.378   1.417  -0.013  0.00  0.00    +0.018 A 
ATOM     12  C   UNL     1       2.402   0.034  -0.021  0.00  0.00    +0.016 A 
ATOM     13  C   UNL     1       1.221  -0.680  -0.014  0.00  0.00    +0.011 A 
ATOM     14  C   UNL     1       0.002  -0.004   0.002  0.00  0.00    +0.002 A 
ATOM     15 BR   UNL     1       4.001   2.388  -0.024  0.00  0.00    -0.050 Br
ENDBRANCH   2  14
ENDBRANCH   1   7
BRANCH   1  16
ATOM     16  C   UNL     1      -5.194   0.316   1.463  0.00  0.00    +0.235 C 
ATOM     17  O   UNL     1      -4.522  -0.107   2.379  0.00  0.00    -0.274 OA
ATOM     18  N   UNL     1      -6.311   1.026   1.718  0.00  0.00    -0.314 N 
ATOM     19  H   UNL     1      -6.849   1.365   0.986  0.00  0.00    +0.149 HD
BRANCH  18  20
ATOM     20  C   UNL     1      -6.713   1.286   3.103  0.00  0.00    +0.107 C 
BRANCH  20  21
ATOM     21  C   UNL     1      -8.005   2.107   3.114  0.00  0.00    +0.006 C 
ATOM     22  C   UNL     1      -9.140   1.277   2.511  0.00  0.00    +0.006 C 
ATOM     23  C   UNL     1     -10.432   2.098   2.522  0.00  0.00    +0.015 C 
ATOM     24  C   UNL     1     -10.784   2.475   3.962  0.00  0.00    +0.102 C 
ATOM     25  C   UNL     1      -9.648   3.305   4.564  0.00  0.00    +0.015 C 
ATOM     26  C   UNL     1      -8.357   2.485   4.554  0.00  0.00    +0.006 C 
BRANCH  24  27
ATOM     27  C   UNL     1     -12.056   3.284   3.973  0.00  0.00    +0.359 C 
ATOM     28  O   UNL     1     -12.889   3.098   4.843  0.00  0.00    -0.246 OA
ATOM     29  O   UNL     1     -12.253   4.123   3.110  0.00  0.00    -0.246 OA
ENDBRANCH  24  27
ENDBRANCH  20  21
ENDBRANCH  18  20
ENDBRANCH   1  16
TORSDOF 6
