REMARK  Name = ZINC15612244
REMARK  2 active torsions:
REMARK  status: ('A' for Active; 'I' for Inactive)
REMARK    1  A    between atoms: C_1  and  C_2
REMARK    2  A    between atoms: C_12  and  C_14
REMARK                            x       y       z     vdW  Elec       q    Type
REMARK                         _______ _______ _______ _____ _____    ______ ____
ROOT
ATOM      1  C   UNL     1      -0.223   0.841   2.493  0.00  0.00    +0.008 C 
ATOM      2  C   UNL     1      -0.744   1.587   1.264  0.00  0.00    -0.009 C 
ATOM      3  C   UNL     1      -2.244   1.322   1.096  0.00  0.00    +0.010 C 
ATOM      4  C   UNL     1      -2.827   2.248   0.028  0.00  0.00    +0.056 C 
ATOM      5  C   UNL     1      -1.996   2.113  -1.243  0.00  0.00    +0.054 A 
ATOM      6  C   UNL     1      -0.745   1.585  -1.191  0.00  0.00    +0.015 A 
ATOM      7  S   UNL     1      -0.226   1.646  -2.884  0.00  0.00    -0.057 S 
ATOM      8  C   UNL     1      -1.677   2.355  -3.526  0.00  0.00    +0.165 A 
ATOM      9  N   UNL     1      -2.420   2.487  -2.448  0.00  0.00    -0.229 NA
ATOM     10  N   UNL     1      -1.976   2.694  -4.841  0.00  0.00    -0.262 N 
ATOM     11  C   UNL     1      -3.171   3.240  -5.141  0.00  0.00    +0.260 C 
ATOM     12  O   UNL     1      -3.986   3.436  -4.263  0.00  0.00    -0.271 OA
ATOM     13  C   UNL     1      -0.013   1.086   0.008  0.00  0.00    +0.047 C 
ATOM     14  H   UNL     1      -1.325   2.538  -5.542  0.00  0.00    +0.157 HD
ENDROOT
BRANCH  11  15
ATOM     15  C   UNL     1      -3.496   3.608  -6.565  0.00  0.00    +0.263 C 
ATOM     16  C   UNL     1      -3.623   2.341  -7.443  0.00  0.00    +0.093 C 
ATOM     17  C   UNL     1      -5.118   2.064  -7.370  0.00  0.00    -0.000 A 
ATOM     18  C   UNL     1      -5.867   0.951  -7.679  0.00  0.00    +0.027 A 
ATOM     19  C   UNL     1      -7.239   0.967  -7.495  0.00  0.00    +0.041 A 
ATOM     20  C   UNL     1      -7.851   2.105  -7.000  0.00  0.00    +0.023 A 
ATOM     21  C   UNL     1      -7.102   3.222  -6.693  0.00  0.00    +0.047 A 
ATOM     22  C   UNL     1      -5.722   3.215  -6.880  0.00  0.00    +0.125 A 
ATOM     23  O   UNL     1      -4.805   4.196  -6.654  0.00  0.00    -0.479 OA
ATOM     24 CL   UNL     1      -8.188  -0.434  -7.883  0.00  0.00    -0.084 Cl
ENDBRANCH  11  15
TORSDOF 1
