REMARK  Name = ZINC05927348
REMARK  9 active torsions:
REMARK  status: ('A' for Active; 'I' for Inactive)
REMARK    1  A    between atoms: C_1  and  C_2
REMARK    2  A    between atoms: C_2  and  C_3
REMARK    3  A    between atoms: C_3  and  C_4
REMARK    4  A    between atoms: C_4  and  C_5
REMARK    5  A    between atoms: C_8  and  N_11
REMARK    6  A    between atoms: N_11  and  C_12
REMARK    7  A    between atoms: C_12  and  N_14
REMARK    8  A    between atoms: N_14  and  N_15
REMARK    9  A    between atoms: C_16  and  C_18
REMARK                            x       y       z     vdW  Elec       q    Type
REMARK                         _______ _______ _______ _____ _____    ______ ____
ROOT
ATOM      1  C   UNL     1       3.276  -3.171  -7.088  0.00  0.00    +0.151 C 
ATOM      2  S   UNL     1       2.430  -1.683  -7.118  0.00  0.00    -0.017 S 
ENDROOT
BRANCH   1   3
ATOM      3  N   UNL     1       3.394  -3.856  -5.933  0.00  0.00    -0.296 N 
ATOM      4  H   UNL     1       3.940  -4.657  -5.898  0.00  0.00    +0.154 HD
BRANCH   3   8
ATOM      5  C   UNL     1       1.417  -2.532  -2.514  0.00  0.00    -0.047 A 
ATOM      6  C   UNL     1       0.772  -2.508  -3.737  0.00  0.00    +0.005 A 
ATOM      7  C   UNL     1       1.425  -2.946  -4.872  0.00  0.00    +0.023 A 
ATOM      8  C   UNL     1       2.730  -3.411  -4.785  0.00  0.00    +0.033 A 
ATOM      9  C   UNL     1       3.375  -3.435  -3.555  0.00  0.00    +0.023 A 
ATOM     10  C   UNL     1       2.718  -2.990  -2.424  0.00  0.00    +0.005 A 
BRANCH   5  11
ATOM     11  C   UNL     1       0.701  -2.053  -1.277  0.00  0.00    +0.035 C 
BRANCH  11  12
ATOM     12  C   UNL     1       0.946  -0.554  -1.095  0.00  0.00    +0.004 C 
BRANCH  12  14
ATOM     13  C   UNL     1       0.464   1.432   0.343  0.00  0.00    +0.004 C 
ATOM     14  C   UNL     1       0.220  -0.068   0.161  0.00  0.00    -0.003 C 
ENDBRANCH  12  14
ENDBRANCH  11  12
ENDBRANCH   5  11
ENDBRANCH   3   8
ENDBRANCH   1   3
BRANCH   1  15
ATOM     15  N   UNL     1       3.822  -3.659  -8.219  0.00  0.00    -0.245 N 
ATOM     16  H   UNL     1       3.737  -3.166  -9.050  0.00  0.00    +0.172 HD
BRANCH  15  17
ATOM     17  N   UNL     1       4.514  -4.877  -8.195  0.00  0.00    -0.231 N 
ATOM     18  C   UNL     1       5.061  -5.364  -9.326  0.00  0.00    +0.261 C 
ATOM     19  O   UNL     1       4.953  -4.747 -10.368  0.00  0.00    -0.269 OA
ATOM     20  H   UNL     1       4.599  -5.369  -7.363  0.00  0.00    +0.173 HD
BRANCH  18  21
ATOM     21  C   UNL     1       5.790  -6.649  -9.300  0.00  0.00    +0.052 A 
ATOM     22  C   UNL     1       5.910  -7.364  -8.107  0.00  0.00    +0.014 A 
ATOM     23  C   UNL     1       6.592  -8.562  -8.090  0.00  0.00    +0.001 A 
ATOM     24  C   UNL     1       7.158  -9.057  -9.252  0.00  0.00    +0.001 A 
ATOM     25  C   UNL     1       7.044  -8.356 -10.438  0.00  0.00    +0.016 A 
ATOM     26  C   UNL     1       6.358  -7.157 -10.471  0.00  0.00    +0.030 A 
ATOM     27 BR   UNL     1       6.196  -6.202 -12.095  0.00  0.00    -0.050 Br
ENDBRANCH  18  21
ENDBRANCH  15  17
ENDBRANCH   1  15
TORSDOF 8
