REMARK  Name = ZINC28379966
REMARK  3 active torsions:
REMARK  status: ('A' for Active; 'I' for Inactive)
REMARK    1  A    between atoms: C_5  and  C_7
REMARK    2  A    between atoms: N_8  and  N_9
REMARK    3  A    between atoms: C_10  and  C_15
REMARK                            x       y       z     vdW  Elec       q    Type
REMARK                         _______ _______ _______ _____ _____    ______ ____
ROOT
ATOM      1  N   UNL     1       2.195   5.546  -0.271  0.00  0.00    -0.186 N 
ATOM      2  C   UNL     1       0.914   5.125   0.020  0.00  0.00    +0.192 A 
ATOM      3  N   UNL     1       0.212   6.201   0.306  0.00  0.00    -0.126 NA
ATOM      4  N   UNL     1       0.952   7.247   0.210  0.00  0.00    -0.119 NA
ATOM      5  C   UNL     1       2.172   6.910  -0.141  0.00  0.00    +0.223 A 
ATOM      6  S   UNL     1       3.529   8.006  -0.393  0.00  0.00    -0.007 SA
ENDROOT
BRANCH   2   7
ATOM      7  C   UNL     1       0.426   3.737   0.017  0.00  0.00    +0.058 A 
ATOM      8  C   UNL     1      -0.866   3.275   0.027  0.00  0.00    +0.019 A 
ATOM      9  C   UNL     1      -1.081   1.915   0.017  0.00  0.00    +0.008 A 
ATOM     10  C   UNL     1      -0.013   1.076   0.008  0.00  0.00    +0.046 A 
ATOM     11  S   UNL     1       1.361   2.216   0.001  0.00  0.00    -0.093 S 
ENDBRANCH   2   7
BRANCH   1  13
ATOM     12  C   UNL     1       3.517   4.476  -1.875  0.00  0.00    +0.142 C 
ATOM     13  N   UNL     1       3.289   4.746  -0.627  0.00  0.00    -0.170 NA
BRANCH  12  18
ATOM     14  C   UNL     1       5.995   2.553  -3.935  0.00  0.00    +0.001 A 
ATOM     15  C   UNL     1       6.831   2.052  -2.953  0.00  0.00    +0.001 A 
ATOM     16  C   UNL     1       6.593   2.338  -1.620  0.00  0.00    +0.016 A 
ATOM     17  C   UNL     1       5.517   3.126  -1.262  0.00  0.00    +0.027 A 
ATOM     18  C   UNL     1       4.668   3.634  -2.249  0.00  0.00    +0.009 A 
ATOM     19  C   UNL     1       4.913   3.337  -3.592  0.00  0.00    +0.010 A 
ATOM     20 BR   UNL     1       5.192   3.515   0.560  0.00  0.00    -0.050 Br
ENDBRANCH  12  18
ENDBRANCH   1  13
TORSDOF 3
