REMARK  Name = ZINC55490631
REMARK  6 active torsions:
REMARK  status: ('A' for Active; 'I' for Inactive)
REMARK    1  A    between atoms: C_1  and  C_2
REMARK    2  A    between atoms: C_2  and  C_4
REMARK    3  A    between atoms: C_2  and  N_10
REMARK    4  A    between atoms: C_11  and  C_13
REMARK    5  A    between atoms: C_13  and  C_14
REMARK    6  A    between atoms: C_20  and  C_25
REMARK                            x       y       z     vdW  Elec       q    Type
REMARK                         _______ _______ _______ _____ _____    ______ ____
ROOT
ATOM      1  C   UNL     1       4.223  -1.105  -2.207  0.00  0.00    +0.120 A 
ATOM      2  N   UNL     1       5.056  -1.509  -3.200  0.00  0.00    -0.310 N 
ATOM      3  H   UNL     1       4.683  -1.772  -4.056  0.00  0.00    +0.170 HD
ATOM      4  C   UNL     1       6.389  -1.552  -3.020  0.00  0.00    +0.260 A 
ATOM      5  O   UNL     1       7.124  -1.917  -3.922  0.00  0.00    -0.267 OA
ATOM      6  C   UNL     1       6.931  -1.161  -1.755  0.00  0.00    +0.080 A 
ATOM      7  C   UNL     1       8.323  -1.121  -1.320  0.00  0.00    +0.010 A 
ATOM      8  C   UNL     1       8.598  -0.710  -0.056  0.00  0.00    +0.057 A 
ATOM      9  S   UNL     1       6.989  -0.353   0.622  0.00  0.00    -0.076 S 
ATOM     10  C   UNL     1       5.994  -0.758  -0.790  0.00  0.00    +0.116 A 
ATOM     11  N   UNL     1       4.688  -0.738  -1.043  0.00  0.00    -0.226 NA
ENDROOT
BRANCH   7  12
ATOM     12  C   UNL     1       9.411  -1.520  -2.237  0.00  0.00    +0.021 A 
ATOM     13  C   UNL     1      10.568  -0.855  -2.543  0.00  0.00    +0.016 A 
ATOM     14  C   UNL     1      11.445  -1.431  -3.438  0.00  0.00    +0.008 A 
ATOM     15  C   UNL     1      11.136  -2.633  -3.986  0.00  0.00    +0.046 A 
ATOM     16  S   UNL     1       9.562  -2.997  -3.228  0.00  0.00    -0.097 S 
ENDBRANCH   7  12
BRANCH   1  17
ATOM     17  C   UNL     1       2.736  -1.073  -2.455  0.00  0.00    +0.170 C 
BRANCH  17  19
ATOM     18  N   UNL     1       0.688  -0.476  -1.203  0.00  0.00    -0.308 N 
ATOM     19  C   UNL     1       2.031  -0.587  -1.215  0.00  0.00    +0.221 C 
ATOM     20  O   UNL     1       2.672  -0.295  -0.228  0.00  0.00    -0.275 OA
ATOM     21  H   UNL     1       0.175  -0.710  -1.993  0.00  0.00    +0.149 HD
BRANCH  18  23
ATOM     22  C   UNL     1      -0.019   1.526   0.010  0.00  0.00    +0.033 C 
ATOM     23  C   UNL     1       0.002  -0.004   0.002  0.00  0.00    +0.100 C 
BRANCH  23  24
ATOM     24  C   UNL     1      -1.412  -0.526   0.013  0.00  0.00    -0.027 A 
ATOM     25  C   UNL     1      -2.141  -0.569  -1.161  0.00  0.00    +0.005 A 
ATOM     26  C   UNL     1      -3.438  -1.047  -1.151  0.00  0.00    +0.000 A 
ATOM     27  C   UNL     1      -4.005  -1.483   0.032  0.00  0.00    +0.000 A 
ATOM     28  C   UNL     1      -3.275  -1.441   1.205  0.00  0.00    +0.000 A 
ATOM     29  C   UNL     1      -1.977  -0.966   1.195  0.00  0.00    +0.005 A 
ENDBRANCH  23  24
ENDBRANCH  18  23
ENDBRANCH  17  19
ENDBRANCH   1  17
TORSDOF 5
