REMARK  Name = ZINC63547132
REMARK  8 active torsions:
REMARK  status: ('A' for Active; 'I' for Inactive)
REMARK    1  A    between atoms: C_1  and  O_2
REMARK    2  A    between atoms: O_2  and  C_3
REMARK    3  A    between atoms: C_9  and  C_12
REMARK    4  A    between atoms: C_12  and  C_13
REMARK    5  A    between atoms: C_13  and  N_14
REMARK    6  A    between atoms: C_15  and  C_17
REMARK    7  A    between atoms: C_22  and  C_31
REMARK    8  A    between atoms: C_24  and  C_27
REMARK                            x       y       z     vdW  Elec       q    Type
REMARK                         _______ _______ _______ _____ _____    ______ ____
ROOT
ATOM      1  C   UNL     1       2.187  -8.518  -1.720  0.00  0.00    +0.185 C 
ATOM      2  C   UNL     1       1.877  -9.686  -0.812  0.00  0.00    +0.045 C 
ATOM      3  C   UNL     1       2.722 -10.682  -1.157  0.00  0.00    +0.116 C 
ATOM      4  N   UNL     1       2.826 -11.925  -0.626  0.00  0.00    -0.339 N 
ATOM      5  C   UNL     1       3.715 -12.788  -1.082  0.00  0.00    +0.085 C 
ATOM      6  C   UNL     1       4.604 -12.396  -2.178  0.00  0.00    +0.058 C 
ATOM      7  C   UNL     1       4.492 -11.159  -2.697  0.00  0.00    +0.133 C 
ATOM      8  N   UNL     1       3.552 -10.288  -2.195  0.00  0.00    -0.215 N 
ATOM      9  N   UNL     1       3.281  -8.998  -2.582  0.00  0.00    -0.218 NA
ATOM     10  H   UNL     1       3.019  -8.958  -3.555  0.00  0.00    +0.146 HD
ATOM     11  H   UNL     1       2.237 -12.185   0.100  0.00  0.00    +0.167 HD
ENDROOT
BRANCH   5  12
ATOM     12  C   UNL     1       3.813 -14.133  -0.494  0.00  0.00    +0.151 A 
ATOM     13  C   UNL     1       4.688 -15.110  -0.868  0.00  0.00    +0.051 A 
ATOM     14  C   UNL     1       4.430 -16.220  -0.046  0.00  0.00    +0.042 A 
ATOM     15  C   UNL     1       3.422 -15.875   0.783  0.00  0.00    +0.196 A 
ATOM     16  O   UNL     1       3.057 -14.613   0.514  0.00  0.00    -0.461 OA
ENDBRANCH   5  12
BRANCH   1  18
ATOM     17  N   UNL     1       1.793  -6.755  -0.031  0.00  0.00    -0.313 N 
ATOM     18  C   UNL     1       2.636  -7.328  -0.912  0.00  0.00    +0.236 C 
ATOM     19  O   UNL     1       3.756  -6.886  -1.055  0.00  0.00    -0.274 OA
ATOM     20  H   UNL     1       0.897  -7.108   0.083  0.00  0.00    +0.149 HD
BRANCH  17  21
ATOM     21  C   UNL     1       2.230  -5.598   0.754  0.00  0.00    +0.108 C 
BRANCH  21  22
ATOM     22  C   UNL     1       1.092  -5.144   1.671  0.00  0.00    +0.052 C 
BRANCH  22  29
ATOM     23  C   UNL     1       0.626  -0.619   1.042  0.00  0.00    +0.121 A 
ATOM     24  C   UNL     1       1.202   0.173   2.051  0.00  0.00    +0.047 A 
ATOM     25  C   UNL     1       1.839  -0.358   3.116  0.00  0.00    +0.029 A 
ATOM     26  C   UNL     1       1.947  -1.815   3.248  0.00  0.00    +0.043 A 
ATOM     27  N   UNL     1       2.500  -2.573   4.161  0.00  0.00    -0.380 N 
ATOM     28  C   UNL     1       2.308  -3.978   3.782  0.00  0.00    +0.144 C 
ATOM     29  C   UNL     1       1.541  -3.954   2.479  0.00  0.00    -0.040 C 
ATOM     30  C   UNL     1       1.340  -2.650   2.185  0.00  0.00    +0.002 A 
ATOM     31  C   UNL     1       0.667  -1.972   1.072  0.00  0.00    +0.055 A 
ATOM     32  H   UNL     1       2.961  -2.259   4.955  0.00  0.00    +0.160 HD
BRANCH  23  34
ATOM     33  C   UNL     1      -0.017   1.425   0.010  0.00  0.00    +0.277 C 
ATOM     34  O   UNL     1       0.002  -0.004   0.002  0.00  0.00    -0.495 OA
ENDBRANCH  23  34
ENDBRANCH  22  29
ENDBRANCH  21  22
ENDBRANCH  17  21
ENDBRANCH   1  18
BRANCH   7  35
ATOM     35  C   UNL     1       5.394 -10.729  -3.826  0.00  0.00    +0.432 C 
ATOM     36  F   UNL     1       6.257 -11.778  -4.159  0.00  0.00    -0.165 F 
ATOM     37  F   UNL     1       4.619 -10.391  -4.940  0.00  0.00    -0.165 F 
ATOM     38  F   UNL     1       6.144  -9.618  -3.425  0.00  0.00    -0.165 F 
ENDBRANCH   7  35
TORSDOF 7
