REMARK  Name = ZINC22854369
REMARK  9 active torsions:
REMARK  status: ('A' for Active; 'I' for Inactive)
REMARK    1  A    between atoms: C_1  and  C_2
REMARK    2  A    between atoms: C_2  and  C_3
REMARK    3  A    between atoms: C_8  and  O_30
REMARK    4  A    between atoms: C_9  and  C_11
REMARK    5  A    between atoms: C_11  and  C_13
REMARK    6  A    between atoms: C_11  and  N_20
REMARK    7  A    between atoms: C_16  and  C_19
REMARK    8  A    between atoms: C_22  and  C_29
REMARK    9  A    between atoms: C_25  and  C_28
REMARK                            x       y       z     vdW  Elec       q    Type
REMARK                         _______ _______ _______ _____ _____    ______ ____
ROOT
ATOM      1  C   UNL     1       0.002  -0.004   0.002  0.00  0.00    +0.129 C 
ENDROOT
BRANCH   1   8
ATOM      2  C   UNL     1      -0.303   5.946  -0.248  0.00  0.00    +0.152 A 
ATOM      3  N   UNL     1      -1.448   5.272  -0.155  0.00  0.00    -0.205 NA
ATOM      4  C   UNL     1      -1.193   3.993  -0.112  0.00  0.00    +0.199 A 
ATOM      5  N   UNL     1       0.152   3.792  -0.176  0.00  0.00    -0.173 N 
ATOM      6  N   UNL     1       0.693   5.101  -0.265  0.00  0.00    -0.147 NA
ATOM      7  C   UNL     1       0.597   2.493  -0.142  0.00  0.00    +0.228 A 
ATOM      8  C   UNL     1      -0.270   1.477  -0.049  0.00  0.00    +0.076 A 
ATOM      9  S   UNL     1      -1.834   2.339  -0.010  0.00  0.00    -0.047 S 
BRANCH   2  11
ATOM     10  C   UNL     1      -0.212   7.890  -1.784  0.00  0.00    +0.012 C 
ATOM     11  C   UNL     1      -0.177   7.446  -0.321  0.00  0.00    +0.075 C 
ENDBRANCH   2  11
BRANCH   7  12
ATOM     12  O   UNL     1       1.931   2.236  -0.204  0.00  0.00    -0.492 OA
ATOM     13  H   UNL     1       2.293   1.197  -0.177  0.00  0.00    +0.294 HD
ENDBRANCH   7  12
ENDBRANCH   1   8
BRANCH   1  14
ATOM     14  N   UNL     1      -0.905  -0.701  -0.919  0.00  0.00    -0.286 NA
ATOM     15  C   UNL     1      -0.644  -2.147  -0.923  0.00  0.00    +0.116 C 
ATOM     16  C   UNL     1      -1.649  -2.840  -1.848  0.00  0.00    +0.130 C 
ATOM     17  O   UNL     1      -1.555  -2.270  -3.156  0.00  0.00    -0.371 OA
ATOM     18  C   UNL     1      -1.804  -0.862  -3.190  0.00  0.00    +0.130 C 
ATOM     19  C   UNL     1      -0.801  -0.149  -2.278  0.00  0.00    +0.116 C 
ATOM     20  C   UNL     1      -1.647  -0.349  -4.623  0.00  0.00    +0.039 C 
ATOM     21  C   UNL     1      -1.333  -4.335  -1.918  0.00  0.00    +0.039 C 
ENDBRANCH   1  14
BRANCH   1  22
ATOM     22  C   UNL     1      -0.222  -0.508   1.405  0.00  0.00    -0.025 A 
ATOM     23  C   UNL     1      -1.509  -0.657   1.888  0.00  0.00    +0.006 A 
ATOM     24  C   UNL     1      -1.715  -1.124   3.172  0.00  0.00    +0.004 A 
ATOM     25  C   UNL     1      -0.634  -1.431   3.978  0.00  0.00    -0.050 A 
ATOM     26  C   UNL     1       0.652  -1.276   3.497  0.00  0.00    +0.004 A 
ATOM     27  C   UNL     1       0.858  -0.815   2.210  0.00  0.00    +0.006 A 
ATOM     28  C   UNL     1      -0.859  -1.934   5.381  0.00  0.00    +0.044 C 
ENDBRANCH   1  22
TORSDOF 5
