REMARK  Name = ZINC36635445
REMARK  7 active torsions:
REMARK  status: ('A' for Active; 'I' for Inactive)
REMARK    1  A    between atoms: C_1  and  C_2
REMARK    2  A    between atoms: C_5  and  C_25
REMARK    3  A    between atoms: C_6  and  N_8
REMARK    4  A    between atoms: N_8  and  C_9
REMARK    5  A    between atoms: N_14  and  C_17
REMARK    6  A    between atoms: C_20  and  C_24
REMARK    7  A    between atoms: C_21  and  C_23
REMARK                            x       y       z     vdW  Elec       q    Type
REMARK                         _______ _______ _______ _____ _____    ______ ____
ROOT
ATOM      1  C   UNL     1       0.105  -1.950   3.756  0.00  0.00    +0.166 C 
ATOM      2  C   UNL     1       0.568  -3.079   4.699  0.00  0.00    +0.128 C 
ATOM      3  C   UNL     1      -0.610  -3.270   5.629  0.00  0.00    +0.228 C 
ATOM      4  O   UNL     1      -0.666  -4.073   6.535  0.00  0.00    -0.275 OA
ATOM      5  N   UNL     1      -1.580  -2.411   5.292  0.00  0.00    -0.209 N 
ATOM      6  C   UNL     1      -1.285  -1.617   4.251  0.00  0.00    +0.247 C 
ATOM      7  O   UNL     1      -2.014  -0.769   3.782  0.00  0.00    -0.273 OA
ENDROOT
BRANCH   5   8
ATOM      8  C   UNL     1      -2.805  -2.346   5.972  0.00  0.00    +0.044 A 
ATOM      9  C   UNL     1      -2.848  -1.895   7.285  0.00  0.00    +0.024 A 
ATOM     10  C   UNL     1      -4.056  -1.832   7.952  0.00  0.00    +0.005 A 
ATOM     11  C   UNL     1      -5.221  -2.216   7.314  0.00  0.00    -0.047 A 
ATOM     12  C   UNL     1      -5.181  -2.665   6.007  0.00  0.00    -0.046 A 
ATOM     13  C   UNL     1      -3.977  -2.725   5.332  0.00  0.00    +0.027 A 
ATOM     14  C   UNL     1      -6.453  -3.083   5.315  0.00  0.00    +0.044 C 
ATOM     15  C   UNL     1      -6.537  -2.146   8.045  0.00  0.00    +0.044 C 
ENDBRANCH   5   8
BRANCH   1  16
ATOM     16  N   UNL     1       0.060  -2.421   2.370  0.00  0.00    -0.332 N 
ATOM     17  H   UNL     1      -0.026  -3.369   2.182  0.00  0.00    +0.147 HD
BRANCH  16  23
ATOM     18  C   UNL     1       0.476   2.228   0.830  0.00  0.00    +0.044 C 
ATOM     19  C   UNL     1       0.343   0.754   0.542  0.00  0.00    -0.049 A 
ATOM     20  C   UNL     1       0.300   0.308  -0.766  0.00  0.00    +0.004 A 
ATOM     21  C   UNL     1       0.177  -1.043  -1.035  0.00  0.00    +0.005 A 
ATOM     22  C   UNL     1       0.098  -1.951   0.003  0.00  0.00    -0.030 A 
ATOM     23  C   UNL     1       0.141  -1.506   1.318  0.00  0.00    +0.031 A 
ATOM     24  C   UNL     1       0.269  -0.148   1.584  0.00  0.00    +0.026 A 
ATOM     25  C   UNL     1      -0.036  -3.423  -0.291  0.00  0.00    +0.045 C 
ENDBRANCH  16  23
ENDBRANCH   1  16
TORSDOF 3
