REMARK  Name = ZINC21601000
REMARK  10 active torsions:
REMARK  status: ('A' for Active; 'I' for Inactive)
REMARK    1  A    between atoms: C_1  and  C_2
REMARK    2  A    between atoms: C_2  and  C_28
REMARK    3  A    between atoms: N_5  and  C_9
REMARK    4  A    between atoms: C_9  and  C_10
REMARK    5  A    between atoms: N_12  and  C_13
REMARK    6  A    between atoms: C_13  and  C_15
REMARK    7  A    between atoms: C_13  and  C_22
REMARK    8  A    between atoms: N_26  and  C_27
REMARK    9  A    between atoms: C_31  and  O_34
REMARK   10  A    between atoms: O_34  and  C_35
REMARK                            x       y       z     vdW  Elec       q    Type
REMARK                         _______ _______ _______ _____ _____    ______ ____
ROOT
ATOM      1  C   UNL     1       0.206   3.461  -3.138  0.00  0.00    +0.213 C 
ENDROOT
BRANCH   1   6
ATOM      2  C   UNL     1      -0.791   2.022   1.224  0.00  0.00    +0.047 C 
ATOM      3  C   UNL     1      -0.018   1.503   0.010  0.00  0.00    +0.135 C 
ATOM      4  C   UNL     1      -0.619   2.035  -1.276  0.00  0.00    +0.251 C 
ATOM      5  O   UNL     1      -1.742   1.847  -1.692  0.00  0.00    -0.272 OA
ATOM      6  N   UNL     1       0.355   2.760  -1.860  0.00  0.00    -0.215 N 
ATOM      7  C   UNL     1       1.476   2.759  -1.130  0.00  0.00    +0.310 C 
ATOM      8  O   UNL     1       2.492   3.344  -1.451  0.00  0.00    -0.252 OA
ATOM      9  N   UNL     1       1.353   2.040   0.000  0.00  0.00    -0.281 N 
ATOM     10  H   UNL     1       2.039   1.812   0.829  0.00  0.00    +0.152 HD
BRANCH   3  11
ATOM     11  C   UNL     1       0.002  -0.004   0.002  0.00  0.00    -0.015 A 
ATOM     12  C   UNL     1      -1.019  -0.705  -0.612  0.00  0.00    +0.010 A 
ATOM     13  C   UNL     1      -1.000  -2.086  -0.626  0.00  0.00    +0.046 A 
ATOM     14  C   UNL     1       0.040  -2.770  -0.014  0.00  0.00    +0.120 A 
ATOM     15  C   UNL     1       1.061  -2.065   0.607  0.00  0.00    +0.046 A 
ATOM     16  C   UNL     1       1.039  -0.684   0.614  0.00  0.00    +0.010 A 
BRANCH  14  17
ATOM     17  O   UNL     1       0.058  -4.129  -0.021  0.00  0.00    -0.495 OA
ATOM     18  C   UNL     1      -1.025  -4.789  -0.679  0.00  0.00    +0.277 C 
ENDBRANCH  14  17
ENDBRANCH   3  11
ENDBRANCH   1   6
BRANCH   1  19
ATOM     19  C   UNL     1       0.603   2.542  -4.264  0.00  0.00    +0.232 C 
ATOM     20  O   UNL     1       0.975   1.413  -4.024  0.00  0.00    -0.274 OA
ATOM     21  N   UNL     1       0.546   2.975  -5.539  0.00  0.00    -0.300 N 
ATOM     22  H   UNL     1       0.209   3.999  -5.758  0.00  0.00    +0.150 HD
BRANCH  21  23
ATOM     23  C   UNL     1       0.932   2.082  -6.635  0.00  0.00    +0.169 C 
BRANCH  23  24
ATOM     24  C   UNL     1       1.371   2.902  -7.820  0.00  0.00    -0.020 A 
ATOM     25  C   UNL     1       0.684   4.053  -8.157  0.00  0.00    +0.007 A 
ATOM     26  C   UNL     1       1.090   4.808  -9.241  0.00  0.00    +0.020 A 
ATOM     27  C   UNL     1       2.178   4.406  -9.996  0.00  0.00    +0.041 A 
ATOM     28  C   UNL     1       2.862   3.251  -9.661  0.00  0.00    +0.020 A 
ATOM     29  C   UNL     1       2.458   2.500  -8.574  0.00  0.00    +0.007 A 
ATOM     30 CL   UNL     1       2.684   5.351 -11.361  0.00  0.00    -0.084 Cl
ENDBRANCH  23  24
BRANCH  23  31
ATOM     31  C   UNL     1      -0.246   1.226  -7.024  0.00  0.00    +0.134 A 
ATOM     32  N   UNL     1      -1.469   1.648  -7.193  0.00  0.00    -0.238 NA
ATOM     33  C   UNL     1      -2.250   0.613  -7.536  0.00  0.00    +0.130 A 
ATOM     34  C   UNL     1      -1.482  -0.492  -7.581  0.00  0.00    +0.106 A 
ATOM     35  N   UNL     1      -0.209  -0.102  -7.262  0.00  0.00    -0.336 N 
ATOM     36  C   UNL     1       0.972  -0.966  -7.189  0.00  0.00    +0.150 C 
ENDBRANCH  23  31
ENDBRANCH  21  23
ENDBRANCH   1  19
TORSDOF 7
