REMARK  Name = ZINC33522762
REMARK  9 active torsions:
REMARK  status: ('A' for Active; 'I' for Inactive)
REMARK    1  A    between atoms: C_1  and  C_2
REMARK    2  A    between atoms: C_8  and  C_28
REMARK    3  A    between atoms: C_10  and  C_15
REMARK    4  A    between atoms: C_15  and  C_17
REMARK    5  A    between atoms: C_23  and  O_26
REMARK    6  A    between atoms: O_26  and  C_27
REMARK    7  A    between atoms: C_32  and  O_34
REMARK    8  A    between atoms: O_34  and  C_35
REMARK    9  A    between atoms: C_35  and  C_36
REMARK                            x       y       z     vdW  Elec       q    Type
REMARK                         _______ _______ _______ _____ _____    ______ ____
ROOT
ATOM      1  C   UNL     1       3.607   4.378   5.853  0.00  0.00    +0.075 C 
ATOM      2  C   UNL     1       3.138   4.230   4.429  0.00  0.00    +0.101 A 
ATOM      3  N   UNL     1       2.027   3.702   3.954  0.00  0.00    -0.145 NA
ATOM      4  N   UNL     1       1.779   3.660   2.718  0.00  0.00    -0.125 NA
ATOM      5  C   UNL     1       2.628   4.135   1.817  0.00  0.00    +0.191 A 
ATOM      6  S   UNL     1       3.929   4.721   2.900  0.00  0.00    -0.035 S 
ATOM      7  N   UNL     1       2.534   4.173   0.432  0.00  0.00    -0.230 N 
ATOM      8  C   UNL     1       1.417   3.662  -0.371  0.00  0.00    +0.152 C 
ATOM      9  C   UNL     1       1.777   3.933  -1.814  0.00  0.00    +0.080 C 
ATOM     10  C   UNL     1       2.989   4.540  -1.805  0.00  0.00    +0.250 C 
ATOM     11  C   UNL     1       3.450   4.685  -0.410  0.00  0.00    +0.293 C 
ATOM     12  O   UNL     1       4.501   5.192  -0.072  0.00  0.00    -0.266 OA
ATOM     13  O   UNL     1       3.669   4.949  -2.901  0.00  0.00    -0.282 OA
ENDROOT
BRANCH   8  14
ATOM     14  C   UNL     1       1.253   2.180  -0.148  0.00  0.00    -0.019 A 
ATOM     15  C   UNL     1       2.365   1.360  -0.109  0.00  0.00    +0.006 A 
ATOM     16  C   UNL     1       2.218   0.001   0.096  0.00  0.00    +0.004 A 
ATOM     17  C   UNL     1       0.958  -0.541   0.262  0.00  0.00    +0.045 A 
ATOM     18  C   UNL     1      -0.160   0.280   0.223  0.00  0.00    +0.121 A 
ATOM     19  C   UNL     1      -0.009   1.644   0.018  0.00  0.00    +0.051 A 
BRANCH  18  20
ATOM     20  O   UNL     1      -1.400  -0.251   0.386  0.00  0.00    -0.488 OA
BRANCH  20  21
ATOM     21  C   UNL     1      -1.491  -1.675   0.472  0.00  0.00    +0.256 C 
BRANCH  21  22
ATOM     22  C   UNL     1      -2.940  -2.083   0.529  0.00  0.00    +0.006 C 
ATOM     23  C   UNL     1      -3.369  -3.080  -0.206  0.00  0.00    +0.007 C 
ENDBRANCH  21  22
ENDBRANCH  20  21
ENDBRANCH  18  20
ENDBRANCH   8  14
BRANCH   9  24
ATOM     24  C   UNL     1       0.971   3.602  -2.994  0.00  0.00    +0.230 C 
ATOM     25  O   UNL     1       1.376   2.781  -3.797  0.00  0.00    -0.283 OA
BRANCH  24  26
ATOM     26  C   UNL     1      -0.324   4.262  -3.206  0.00  0.00    +0.176 A 
ATOM     27  C   UNL     1      -1.197   3.970  -4.208  0.00  0.00    +0.062 A 
ATOM     28  C   UNL     1      -2.338   4.865  -4.025  0.00  0.00    +0.025 A 
ATOM     29  C   UNL     1      -3.543   5.059  -4.708  0.00  0.00    +0.012 A 
ATOM     30  C   UNL     1      -4.423   6.010  -4.275  0.00  0.00    +0.004 A 
ATOM     31  C   UNL     1      -4.131   6.785  -3.161  0.00  0.00    +0.049 A 
ATOM     32  C   UNL     1      -2.946   6.610  -2.471  0.00  0.00    +0.163 A 
ATOM     33  C   UNL     1      -2.033   5.646  -2.896  0.00  0.00    +0.177 A 
ATOM     34  O   UNL     1      -0.826   5.253  -2.441  0.00  0.00    -0.448 OA
BRANCH  32  35
ATOM     35  O   UNL     1      -2.671   7.376  -1.382  0.00  0.00    -0.491 OA
ATOM     36  C   UNL     1      -3.698   8.267  -0.939  0.00  0.00    +0.277 C 
ENDBRANCH  32  35
ENDBRANCH  24  26
ENDBRANCH   9  24
TORSDOF 7
