REMARK  Name = ZINC35868010
REMARK  5 active torsions:
REMARK  status: ('A' for Active; 'I' for Inactive)
REMARK    1  A    between atoms: C_1  and  C_2
REMARK    2  A    between atoms: C_2  and  N_3
REMARK    3  A    between atoms: C_11  and  N_22
REMARK    4  A    between atoms: C_13  and  C_15
REMARK    5  A    between atoms: C_15  and  C_16
REMARK                            x       y       z     vdW  Elec       q    Type
REMARK                         _______ _______ _______ _____ _____    ______ ____
ROOT
ATOM      1  N   UNL     1       0.751  -0.459   1.193  0.00  0.00    -0.298 NA
ATOM      2  C   UNL     1       0.978  -1.908   1.105  0.00  0.00    +0.089 C 
ATOM      3  C   UNL     1       2.016  -2.341   2.142  0.00  0.00    +0.052 C 
ATOM      4  C   UNL     1       1.582  -1.808   3.506  0.00  0.00    -0.022 A 
ATOM      5  C   UNL     1       0.672  -0.808   3.575  0.00  0.00    +0.010 A 
ATOM      6  S   UNL     1       0.453  -0.496   5.308  0.00  0.00    -0.072 S 
ATOM      7  C   UNL     1       1.576  -1.702   5.937  0.00  0.00    +0.114 A 
ATOM      8  C   UNL     1       2.093  -2.316   4.766  0.00  0.00    +0.051 A 
ATOM      9  C   UNL     1       3.048  -3.355   4.954  0.00  0.00    +0.133 A 
ATOM     10  N   UNL     1       3.355  -3.640   6.218  0.00  0.00    -0.216 NA
ATOM     11  C   UNL     1       2.832  -3.025   7.260  0.00  0.00    +0.137 A 
ATOM     12  N   UNL     1       1.938  -2.049   7.155  0.00  0.00    -0.224 NA
ATOM     13  C   UNL     1       0.007  -0.124   2.422  0.00  0.00    +0.127 C 
ENDROOT
BRANCH   9  14
ATOM     14  N   UNL     1       3.621  -4.027   3.890  0.00  0.00    -0.318 N 
ATOM     15  C   UNL     1       4.801  -3.484   3.199  0.00  0.00    +0.087 C 
ATOM     16  C   UNL     1       5.862  -4.586   3.110  0.00  0.00    -0.063 C 
ATOM     17  N   UNL     1       5.280  -5.774   2.472  0.00  0.00    +0.381 N 
ATOM     18  C   UNL     1       4.212  -6.322   3.317  0.00  0.00    -0.063 C 
ATOM     19  C   UNL     1       3.072  -5.309   3.420  0.00  0.00    +0.087 C 
ATOM     20  H   UNL     1       4.900  -5.519   1.573  0.00  0.00    -0.086 HD
ATOM     21  H   UNL     1       5.998  -6.471   2.345  0.00  0.00    -0.086 HD
ENDBRANCH   9  14
BRANCH   1  23
ATOM     22  C   UNL     1       0.040   1.567   0.016  0.00  0.00    +0.020 C 
ATOM     23  C   UNL     1       0.050   0.038   0.001  0.00  0.00    +0.081 C 
ENDBRANCH   1  23
BRANCH  11  24
ATOM     24  C   UNL     1       3.271  -3.450   8.637  0.00  0.00    +0.111 C 
BRANCH  24  25
ATOM     25  C   UNL     1       4.467  -2.635   9.057  0.00  0.00    -0.040 A 
ATOM     26  C   UNL     1       5.743  -3.075   8.761  0.00  0.00    +0.004 A 
ATOM     27  C   UNL     1       6.840  -2.328   9.147  0.00  0.00    +0.000 A 
ATOM     28  C   UNL     1       6.660  -1.138   9.828  0.00  0.00    +0.000 A 
ATOM     29  C   UNL     1       5.384  -0.697  10.124  0.00  0.00    +0.000 A 
ATOM     30  C   UNL     1       4.287  -1.443   9.735  0.00  0.00    +0.004 A 
ENDBRANCH  24  25
ENDBRANCH  11  24
TORSDOF 4
