REMARK  Name = ZINC35747115
REMARK  15 active torsions:
REMARK  status: ('A' for Active; 'I' for Inactive)
REMARK    1  A    between atoms: C_1  and  C_2
REMARK    2  A    between atoms: C_8  and  C_19
REMARK    3  A    between atoms: C_12  and  C_13
REMARK    4  A    between atoms: C_13  and  O_15
REMARK    5  A    between atoms: O_15  and  C_16
REMARK    6  A    between atoms: C_16  and  C_17
REMARK    7  A    between atoms: C_16  and  C_18
REMARK    8  A    between atoms: C_19  and  N_20
REMARK    9  A    between atoms: N_20  and  C_21
REMARK   10  A    between atoms: N_20  and  C_22
REMARK   11  A    between atoms: C_22  and  C_23
REMARK   12  A    between atoms: C_23  and  C_25
REMARK   13  A    between atoms: C_23  and  O_34
REMARK   14  A    between atoms: C_25  and  O_26
REMARK   15  A    between atoms: O_26  and  C_27
REMARK                            x       y       z     vdW  Elec       q    Type
REMARK                         _______ _______ _______ _____ _____    ______ ____
ROOT
ATOM      1  C   UNL     1      -0.018   1.503   0.010  0.00  0.00    +0.046 C 
ATOM      2  C   UNL     1       0.002  -0.004   0.002  0.00  0.00    -0.015 A 
ATOM      3  C   UNL     1       0.005  -0.697  -1.210  0.00  0.00    +0.076 A 
ATOM      4  C   UNL     1      -0.009  -0.166  -2.592  0.00  0.00    +0.260 A 
ATOM      5  O   UNL     1      -0.025   1.034  -2.800  0.00  0.00    -0.267 OA
ATOM      6  N   UNL     1      -0.002  -1.044  -3.614  0.00  0.00    -0.312 N 
ATOM      7  H   UNL     1      -0.010  -0.712  -4.525  0.00  0.00    +0.170 HD
ATOM      8  C   UNL     1       0.018  -2.382  -3.394  0.00  0.00    +0.094 A 
ATOM      9  N   UNL     1       0.030  -2.883  -2.189  0.00  0.00    -0.229 NA
ATOM     10  C   UNL     1       0.025  -2.108  -1.113  0.00  0.00    +0.116 A 
ATOM     11  S   UNL     1       0.037  -2.396   0.639  0.00  0.00    -0.062 S 
ATOM     12  C   UNL     1       0.023  -0.695   1.179  0.00  0.00    +0.102 A 
ENDROOT
BRANCH  12  13
ATOM     13  C   UNL     1       0.030  -0.170   2.547  0.00  0.00    +0.346 C 
ATOM     14  O   UNL     1       0.015   1.031   2.737  0.00  0.00    -0.244 OA
BRANCH  13  15
ATOM     15  O   UNL     1       0.051  -1.019   3.595  0.00  0.00    -0.458 OA
BRANCH  15  16
ATOM     16  C   UNL     1       0.057  -0.438   4.900  0.00  0.00    +0.171 C 
ATOM     17  C   UNL     1      -0.642  -1.381   5.881  0.00  0.00    +0.052 C 
ATOM     18  C   UNL     1       1.501  -0.211   5.352  0.00  0.00    +0.052 C 
ENDBRANCH  15  16
ENDBRANCH  13  15
ENDBRANCH  12  13
BRANCH   8  19
ATOM     19  C   UNL     1       0.024  -3.317  -4.576  0.00  0.00    -0.003 C 
BRANCH  19  20
ATOM     20  N   UNL     1       0.045  -4.707  -4.101  0.00  0.00    +0.384 N 
ATOM     21  C   UNL     1      -1.202  -4.997  -3.382  0.00  0.00    -0.095 C 
ATOM     22  H   UNL     1       0.830  -4.838  -3.479  0.00  0.00    -0.082 HD
BRANCH  20  23
ATOM     23  C   UNL     1       0.172  -5.615  -5.248  0.00  0.00    -0.044 C 
BRANCH  23  24
ATOM     24  C   UNL     1       0.320  -7.053  -4.747  0.00  0.00    +0.135 C 
BRANCH  24  25
ATOM     25  O   UNL     1       1.486  -7.154  -3.927  0.00  0.00    -0.390 OA
ATOM     26  H   UNL     1       2.308  -6.925  -4.383  0.00  0.00    +0.210 HD
ENDBRANCH  24  25
BRANCH  24  27
ATOM     27  C   UNL     1       0.452  -7.999  -5.942  0.00  0.00    +0.258 C 
BRANCH  27  28
ATOM     28  O   UNL     1       0.473  -9.351  -5.479  0.00  0.00    -0.489 OA
BRANCH  28  29
ATOM     29  C   UNL     1       0.587 -10.324  -6.421  0.00  0.00    +0.121 A 
ATOM     30  C   UNL     1       0.682  -9.983  -7.763  0.00  0.00    +0.047 A 
ATOM     31  C   UNL     1       0.798 -10.974  -8.719  0.00  0.00    +0.023 A 
ATOM     32  C   UNL     1       0.818 -12.304  -8.340  0.00  0.00    +0.041 A 
ATOM     33  C   UNL     1       0.722 -12.645  -7.002  0.00  0.00    +0.023 A 
ATOM     34  C   UNL     1       0.613 -11.658  -6.043  0.00  0.00    +0.047 A 
ATOM     35 CL   UNL     1       0.962 -13.547  -9.543  0.00  0.00    -0.084 Cl
ENDBRANCH  28  29
ENDBRANCH  27  28
ENDBRANCH  24  27
ENDBRANCH  23  24
ENDBRANCH  20  23
ENDBRANCH  19  20
ENDBRANCH   8  19
TORSDOF 11
