REMARK  Name = ZINC63627314
REMARK  6 active torsions:
REMARK  status: ('A' for Active; 'I' for Inactive)
REMARK    1  A    between atoms: C_1  and  C_2
REMARK    2  A    between atoms: C_7  and  S_15
REMARK    3  A    between atoms: C_12  and  C_14
REMARK    4  A    between atoms: S_15  and  N_18
REMARK    5  A    between atoms: N_18  and  C_19
REMARK    6  A    between atoms: C_22  and  C_25
REMARK                            x       y       z     vdW  Elec       q    Type
REMARK                         _______ _______ _______ _____ _____    ______ ____
ROOT
ATOM      1  N   UNL     1      -4.035  -5.412   3.113  0.00  0.00    -0.216 N 
ATOM      2  H   UNL     1      -4.709  -5.649   2.457  0.00  0.00    +0.174 HD
ENDROOT
BRANCH   1   3
ATOM      3  C   UNL     1      -3.041  -6.332   3.456  0.00  0.00    +0.048 A 
ATOM      4  C   UNL     1      -1.715  -5.927   3.534  0.00  0.00    +0.025 A 
ATOM      5  C   UNL     1      -0.735  -6.838   3.874  0.00  0.00    +0.008 A 
ATOM      6  C   UNL     1      -1.073  -8.153   4.137  0.00  0.00    -0.021 A 
ATOM      7  C   UNL     1      -2.392  -8.560   4.060  0.00  0.00    +0.008 A 
ATOM      8  C   UNL     1      -3.378  -7.652   3.726  0.00  0.00    +0.025 A 
BRANCH   6   9
ATOM      9  C   UNL     1      -0.000  -9.145   4.507  0.00  0.00    +0.133 C 
ATOM     10  C   UNL     1       0.333 -10.020   3.318  0.00  0.00    +0.012 C 
ATOM     11  C   UNL     1       0.047 -11.287   3.694  0.00  0.00    -0.002 A 
ATOM     12  C   UNL     1       0.150 -12.577   3.000  0.00  0.00    +0.029 A 
ATOM     13  C   UNL     1      -0.221 -13.704   3.651  0.00  0.00    +0.042 A 
ATOM     14  C   UNL     1      -0.701 -13.669   4.969  0.00  0.00    +0.022 A 
ATOM     15  C   UNL     1      -0.824 -12.523   5.670  0.00  0.00    +0.027 A 
ATOM     16  C   UNL     1      -0.463 -11.279   5.084  0.00  0.00    +0.043 A 
ATOM     17  N   UNL     1      -0.489 -10.052   5.551  0.00  0.00    -0.374 N 
ATOM     18 CL   UNL     1      -0.101 -15.230   2.834  0.00  0.00    -0.084 Cl
ATOM     19  H   UNL     1      -0.783  -9.789   6.437  0.00  0.00    +0.161 HD
ENDBRANCH   6   9
ENDBRANCH   1   3
BRANCH   1  20
ATOM     20  S   UNL     1      -4.063  -3.918   3.826  0.00  0.00    +0.072 S 
ATOM     21  O   UNL     1      -5.229  -3.262   3.348  0.00  0.00    -0.150 OA
ATOM     22  O   UNL     1      -2.761  -3.369   3.669  0.00  0.00    -0.150 OA
BRANCH  20  28
ATOM     23  C   UNL     1      -3.059  -3.578  11.139  0.00  0.00    +0.029 C 
ATOM     24  C   UNL     1      -3.252  -4.726  10.146  0.00  0.00    +0.083 C 
ATOM     25  C   UNL     1      -2.394  -4.496   8.891  0.00  0.00    +0.059 C 
ATOM     26  C   UNL     1      -3.391  -4.409   7.758  0.00  0.00    -0.022 A 
ATOM     27  C   UNL     1      -3.208  -4.211   6.403  0.00  0.00    +0.034 A 
ATOM     28  C   UNL     1      -4.298  -4.170   5.554  0.00  0.00    +0.109 A 
ATOM     29  C   UNL     1      -5.574  -4.326   6.064  0.00  0.00    +0.030 A 
ATOM     30  C   UNL     1      -5.761  -4.524   7.415  0.00  0.00    +0.026 A 
ATOM     31  C   UNL     1      -4.665  -4.567   8.279  0.00  0.00    +0.040 A 
ATOM     32  N   UNL     1      -4.636  -4.756   9.666  0.00  0.00    -0.268 N 
ATOM     33  C   UNL     1      -5.720  -4.938  10.447  0.00  0.00    +0.217 C 
ATOM     34  O   UNL     1      -6.823  -5.006   9.946  0.00  0.00    -0.276 OA
ATOM     35  C   UNL     1      -5.562  -5.058  11.941  0.00  0.00    +0.109 C 
ENDBRANCH  20  28
ENDBRANCH   1  20
TORSDOF 4
