REMARK  Name = ZINC25383906
REMARK  9 active torsions:
REMARK  status: ('A' for Active; 'I' for Inactive)
REMARK    1  A    between atoms: C_4  and  C_7
REMARK    2  A    between atoms: C_7  and  N_8
REMARK    3  A    between atoms: N_11  and  C_12
REMARK    4  A    between atoms: C_12  and  C_13
REMARK    5  A    between atoms: C_13  and  C_14
REMARK    6  A    between atoms: N_16  and  C_17
REMARK    7  A    between atoms: C_17  and  C_18
REMARK    8  A    between atoms: C_18  and  C_20
REMARK    9  A    between atoms: C_18  and  N_25
REMARK                            x       y       z     vdW  Elec       q    Type
REMARK                         _______ _______ _______ _____ _____    ______ ____
ROOT
ATOM      1  C   UNL     1      -0.052   1.333   0.018  0.00  0.00    +0.214 C 
ATOM      2  O   UNL     1       0.976   1.965   0.141  0.00  0.00    -0.276 OA
ATOM      3  N   UNL     1      -0.014  -0.013  -0.030  0.00  0.00    -0.316 N 
ATOM      4  H   UNL     1      -0.946  -0.586  -0.142  0.00  0.00    +0.149 HD
ENDROOT
BRANCH   1   5
ATOM      5  C   UNL     1      -1.372   2.054  -0.088  0.00  0.00    +0.114 C 
BRANCH   5   6
ATOM      6  C   UNL     1      -1.137   3.563  -0.006  0.00  0.00    +0.115 C 
BRANCH   6  10
ATOM      7  N   UNL     1      -3.638   6.254  -0.157  0.00  0.00    -0.295 N 
ATOM      8  C   UNL     1      -2.458   5.610  -0.062  0.00  0.00    +0.300 C 
ATOM      9  O   UNL     1      -1.428   6.243   0.067  0.00  0.00    -0.253 OA
ATOM     10  N   UNL     1      -2.419   4.263  -0.110  0.00  0.00    -0.299 N 
ATOM     11  H   UNL     1      -4.569   5.681  -0.273  0.00  0.00    +0.151 HD
ATOM     12  H   UNL     1      -3.351   3.690  -0.226  0.00  0.00    +0.150 HD
BRANCH   7  13
ATOM     13  C   UNL     1      -3.680   7.717  -0.105  0.00  0.00    +0.141 C 
BRANCH  13  17
ATOM     14  C   UNL     1      -7.726   9.040  -0.464  0.00  0.00    +0.000 A 
ATOM     15  C   UNL     1      -7.191   8.781   0.785  0.00  0.00    +0.000 A 
ATOM     16  C   UNL     1      -5.882   8.352   0.901  0.00  0.00    +0.005 A 
ATOM     17  C   UNL     1      -5.107   8.184  -0.231  0.00  0.00    -0.030 A 
ATOM     18  C   UNL     1      -5.639   8.449  -1.479  0.00  0.00    +0.005 A 
ATOM     19  C   UNL     1      -6.950   8.872  -1.596  0.00  0.00    +0.000 A 
ENDBRANCH  13  17
ENDBRANCH   7  13
ENDBRANCH   6  10
ENDBRANCH   5   6
ENDBRANCH   1   5
BRANCH   3  20
ATOM     20  C   UNL     1       1.270  -0.713   0.067  0.00  0.00    +0.094 C 
BRANCH  20  21
ATOM     21  C   UNL     1       1.025  -2.223   0.106  0.00  0.00    -0.013 C 
BRANCH  21  22
ATOM     22  N   UNL     1       2.299  -2.920   0.330  0.00  0.00    +0.386 N 
ATOM     23  C   UNL     1       2.922  -2.491   1.609  0.00  0.00    -0.078 C 
ATOM     24  C   UNL     1       3.904  -3.647   1.929  0.00  0.00    -0.020 C 
ATOM     25  C   UNL     1       3.126  -4.900   1.466  0.00  0.00    -0.020 C 
ATOM     26  C   UNL     1       2.091  -4.379   0.452  0.00  0.00    -0.078 C 
ATOM     27  H   UNL     1       2.932  -2.673  -0.535  0.00  0.00    -0.081 HD
ENDBRANCH  21  22
BRANCH  21  28
ATOM     28  C   UNL     1       0.432  -2.670  -1.205  0.00  0.00    -0.022 A 
ATOM     29  C   UNL     1      -0.862  -2.932  -1.512  0.00  0.00    +0.009 A 
ATOM     30  C   UNL     1      -1.178  -3.333  -2.796  0.00  0.00    +0.008 A 
ATOM     31  C   UNL     1      -0.185  -3.453  -3.711  0.00  0.00    +0.045 A 
ATOM     32  S   UNL     1       1.251  -2.985  -2.760  0.00  0.00    -0.103 S 
ENDBRANCH  21  28
ENDBRANCH  20  21
ENDBRANCH   3  20
TORSDOF 9
