REMARK  Name = ZINC03840963
REMARK  10 active torsions:
REMARK  status: ('A' for Active; 'I' for Inactive)
REMARK    1  A    between atoms: C_1  and  C_2
REMARK    2  A    between atoms: C_10  and  C_12
REMARK    3  A    between atoms: C_12  and  N_70
REMARK    4  A    between atoms: C_13  and  N_70
REMARK    5  A    between atoms: C_14  and  N_70
REMARK    6  A    between atoms: C_16  and  C_36
REMARK    7  A    between atoms: C_19  and  O_35
REMARK    8  A    between atoms: C_21  and  C_25
REMARK    9  A    between atoms: C_25  and  C_27
REMARK   10  A    between atoms: C_25  and  C_28
REMARK                            x       y       z     vdW  Elec       q    Type
REMARK                         _______ _______ _______ _____ _____    ______ ____
ROOT
ATOM      1  C   UNL     1      -0.070   0.939  -0.210  0.00  0.00    +0.014 C 
ATOM      2  C   UNL     1      -0.756   1.470   1.049  0.00  0.00    +0.042 C 
ATOM      3  C   UNL     1      -0.868   2.983   1.000  0.00  0.00    +0.057 A 
ATOM      4  C   UNL     1      -0.375   3.751   2.007  0.00  0.00    +0.015 A 
ATOM      5  S   UNL     1      -0.770   5.396   1.486  0.00  0.00    -0.057 S 
ATOM      6  C   UNL     1      -1.541   4.962  -0.011  0.00  0.00    +0.165 A 
ATOM      7  N   UNL     1      -1.444   3.649  -0.000  0.00  0.00    -0.229 NA
ATOM      8  N   UNL     1      -2.112   5.789  -0.971  0.00  0.00    -0.266 N 
ATOM      9  C   UNL     1      -2.111   7.126  -0.795  0.00  0.00    +0.202 C 
ATOM     10  O   UNL     1      -1.612   7.606   0.200  0.00  0.00    -0.277 OA
ATOM     11  C   UNL     1       0.323   3.267   3.232  0.00  0.00    +0.051 C 
ATOM     12  C   UNL     1       1.000   1.934   2.853  0.00  0.00    -0.022 C 
ATOM     13  C   UNL     1      -0.053   0.978   2.305  0.00  0.00    +0.033 C 
ATOM     14  C   UNL     1      -1.105   0.668   3.376  0.00  0.00    +0.123 C 
ATOM     15  C   UNL     1      -0.431   0.057   4.604  0.00  0.00    +0.029 C 
ATOM     16  C   UNL     1       0.580   1.054   5.172  0.00  0.00    +0.007 C 
ATOM     17  C   UNL     1       1.643   1.346   4.116  0.00  0.00    +0.008 C 
ATOM     18  C   UNL     1       2.109   2.201   1.822  0.00  0.00    +0.012 C 
ATOM     19  H   UNL     1      -2.512   5.405  -1.767  0.00  0.00    +0.157 HD
ENDROOT
BRANCH  15  20
ATOM     20  C   UNL     1      -1.487  -0.258   5.665  0.00  0.00    +0.078 C 
ATOM     21  C   UNL     1      -2.131   1.043   6.145  0.00  0.00    +0.017 C 
BRANCH  20  22
ATOM     22  C   UNL     1      -0.835  -0.956   6.831  0.00  0.00    +0.219 C 
ATOM     23  O   UNL     1      -0.466  -0.314   7.792  0.00  0.00    -0.275 OA
ATOM     24  N   UNL     1      -0.662  -2.292   6.806  0.00  0.00    -0.301 N 
ATOM     25  C   UNL     1      -1.163  -3.202   5.766  0.00  0.00    +0.108 C 
ATOM     26  C   UNL     1      -0.748  -4.632   6.168  0.00  0.00    +0.020 C 
ATOM     27  C   UNL     1      -0.534  -4.512   7.700  0.00  0.00    +0.020 C 
ATOM     28  C   UNL     1       0.057  -3.085   7.821  0.00  0.00    +0.108 C 
ENDBRANCH  20  22
ENDBRANCH  15  20
BRANCH  14  29
ATOM     29  O   UNL     1      -2.054  -0.266   2.852  0.00  0.00    -0.391 OA
ATOM     30  H   UNL     1      -2.801  -0.440   3.442  0.00  0.00    +0.210 HD
ENDBRANCH  14  29
BRANCH   9  31
ATOM     31  C   UNL     1      -2.731   8.023  -1.836  0.00  0.00    +0.018 C 
BRANCH  31  34
ATOM     32  C   UNL     1      -1.193   9.839  -1.388  0.00  0.00    -0.096 C 
ATOM     33  C   UNL     1      -3.396  10.309  -2.276  0.00  0.00    -0.096 C 
ATOM     34  N   UNL     1      -2.612   9.426  -1.387  0.00  0.00    +0.382 N 
ATOM     35  H   UNL     1      -2.981   9.503  -0.432  0.00  0.00    -0.082 HD
ENDBRANCH  31  34
ENDBRANCH   9  31
TORSDOF 5
