REMARK  Name = ZINC66785174
REMARK  5 active torsions:
REMARK  status: ('A' for Active; 'I' for Inactive)
REMARK    1  A    between atoms: C_5  and  C_7
REMARK    2  A    between atoms: C_7  and  C_8
REMARK    3  A    between atoms: N_10  and  N_11
REMARK    4  A    between atoms: C_12  and  C_14
REMARK    5  A    between atoms: C_17  and  C_19
REMARK                            x       y       z     vdW  Elec       q    Type
REMARK                         _______ _______ _______ _____ _____    ______ ____
ROOT
ATOM      1  N   UNL     1       1.548  -4.494   2.938  0.00  0.00    -0.234 N 
ATOM      2  C   UNL     1       1.590  -5.820   3.176  0.00  0.00    +0.233 C 
ATOM      3  O   UNL     1       1.511  -6.604   2.254  0.00  0.00    -0.274 OA
ATOM      4  H   UNL     1       1.611  -3.867   3.676  0.00  0.00    +0.173 HD
ENDROOT
BRANCH   1   7
ATOM      5  C   UNL     1       1.372  -2.695   1.389  0.00  0.00    +0.233 C 
ATOM      6  O   UNL     1       1.451  -1.911   2.311  0.00  0.00    -0.274 OA
ATOM      7  N   UNL     1       1.414  -4.021   1.627  0.00  0.00    -0.234 N 
ATOM      8  H   UNL     1       1.351  -4.648   0.889  0.00  0.00    +0.173 HD
BRANCH   5   9
ATOM      9  C   UNL     1       1.228  -2.186  -0.022  0.00  0.00    +0.135 C 
BRANCH   9  14
ATOM     10  C   UNL     1      -0.017   1.378   0.010  0.00  0.00    +0.000 A 
ATOM     11  C   UNL     1       1.171   2.087   0.002  0.00  0.00    +0.003 A 
ATOM     12  C   UNL     1       2.377   1.414  -0.013  0.00  0.00    +0.038 A 
ATOM     13  C   UNL     1       2.397   0.029  -0.021  0.00  0.00    +0.127 A 
ATOM     14  C   UNL     1       1.208  -0.679  -0.013  0.00  0.00    -0.003 A 
ATOM     15  C   UNL     1       0.002  -0.004   0.002  0.00  0.00    +0.007 A 
ATOM     16  F   UNL     1       3.577  -0.630  -0.036  0.00  0.00    -0.205 F 
ENDBRANCH   9  14
ENDBRANCH   5   9
ENDBRANCH   1   7
BRANCH   2  17
ATOM     17  C   UNL     1       1.734  -6.329   4.587  0.00  0.00    +0.084 C 
ATOM     18  C   UNL     1       3.051  -7.013   4.960  0.00  0.00    +0.022 C 
ATOM     19  C   UNL     1       1.777  -7.844   4.791  0.00  0.00    +0.033 C 
BRANCH  19  20
ATOM     20  C   UNL     1       1.672  -8.714   3.565  0.00  0.00    -0.030 A 
ATOM     21  C   UNL     1       2.618  -8.613   2.562  0.00  0.00    +0.005 A 
ATOM     22  C   UNL     1       2.522  -9.411   1.438  0.00  0.00    +0.000 A 
ATOM     23  C   UNL     1       1.479 -10.312   1.315  0.00  0.00    +0.001 A 
ATOM     24  C   UNL     1       0.533 -10.414   2.317  0.00  0.00    +0.015 A 
ATOM     25  C   UNL     1       0.632  -9.618   3.445  0.00  0.00    +0.021 A 
ATOM     26 BR   UNL     1      -0.659  -9.762   4.820  0.00  0.00    -0.050 Br
ENDBRANCH  19  20
ENDBRANCH   2  17
TORSDOF 5
