REMARK  Name = ZINC06269222
REMARK  4 active torsions:
REMARK  status: ('A' for Active; 'I' for Inactive)
REMARK    1  A    between atoms: C_3  and  N_25
REMARK    2  A    between atoms: C_6  and  C_7
REMARK    3  A    between atoms: C_9  and  C_12
REMARK    4  A    between atoms: N_14  and  C_15
REMARK                            x       y       z     vdW  Elec       q    Type
REMARK                         _______ _______ _______ _____ _____    ______ ____
ROOT
ATOM      1  C   UNL     1       3.251   2.127   6.107  0.00  0.00    +0.228 A 
ATOM      2  N   UNL     1       2.792   2.228   4.885  0.00  0.00    -0.204 NA
ATOM      3  C   UNL     1       2.007   3.334   4.811  0.00  0.00    +0.164 A 
ATOM      4  C   UNL     1       1.996   3.905   6.048  0.00  0.00    +0.230 A 
ATOM      5  O   UNL     1       2.771   3.147   6.840  0.00  0.00    -0.443 OA
ENDROOT
BRANCH   1  11
ATOM      6  C   UNL     1       4.573   0.049   5.739  0.00  0.00    +0.015 A 
ATOM      7  C   UNL     1       5.412  -0.941   6.202  0.00  0.00    +0.023 A 
ATOM      8  C   UNL     1       5.825  -0.939   7.530  0.00  0.00    +0.025 A 
ATOM      9  C   UNL     1       5.398   0.065   8.393  0.00  0.00    +0.023 A 
ATOM     10  C   UNL     1       4.563   1.060   7.934  0.00  0.00    +0.015 A 
ATOM     11  C   UNL     1       4.146   1.061   6.602  0.00  0.00    +0.037 A 
BRANCH   8  12
ATOM     12  N   UNL     1       6.669  -1.946   7.997  0.00  0.00    -0.358 N 
ATOM     13  H   UNL     1       6.958  -1.946   8.923  0.00  0.00    +0.142 HD
ATOM     14  H   UNL     1       6.968  -2.646   7.396  0.00  0.00    +0.142 HD
ENDBRANCH   8  12
ENDBRANCH   1  11
BRANCH   3  15
ATOM     15  C   UNL     1       1.294   3.822   3.617  0.00  0.00    +0.266 C 
ATOM     16  O   UNL     1       0.614   4.829   3.683  0.00  0.00    -0.268 OA
ATOM     17  N   UNL     1       1.394   3.153   2.451  0.00  0.00    -0.307 N 
ATOM     18  H   UNL     1       1.936   2.350   2.398  0.00  0.00    +0.149 HD
BRANCH  17  19
ATOM     19  C   UNL     1       0.686   3.639   1.264  0.00  0.00    +0.079 C 
ATOM     20  C   UNL     1       1.402   3.145   0.006  0.00  0.00    +0.010 C 
ATOM     21  C   UNL     1       1.423   1.615  -0.003  0.00  0.00    +0.009 C 
ATOM     22  C   UNL     1      -0.013   1.086   0.008  0.00  0.00    -0.010 C 
ATOM     23  C   UNL     1      -0.753   1.593  -1.232  0.00  0.00    +0.007 C 
ATOM     24  C   UNL     1      -0.773   3.123  -1.223  0.00  0.00    -0.010 C 
ATOM     25  C   UNL     1       0.662   3.652  -1.234  0.00  0.00    +0.009 C 
ATOM     26  C   UNL     1      -1.490   3.616   0.036  0.00  0.00    +0.009 C 
ATOM     27  C   UNL     1      -0.750   3.109   1.275  0.00  0.00    +0.010 C 
ATOM     28  C   UNL     1      -0.729   1.579   1.267  0.00  0.00    +0.009 C 
ENDBRANCH  17  19
ENDBRANCH   3  15
TORSDOF 4
