REMARK  Name = ZINC45702426
REMARK  7 active torsions:
REMARK  status: ('A' for Active; 'I' for Inactive)
REMARK    1  A    between atoms: C_1  and  C_2
REMARK    2  A    between atoms: C_3  and  C_13
REMARK    3  A    between atoms: C_4  and  C_12
REMARK    4  A    between atoms: C_9  and  C_10
REMARK    5  A    between atoms: C_13  and  C_14
REMARK    6  A    between atoms: C_14  and  C_15
REMARK    7  A    between atoms: N_23  and  C_24
REMARK                            x       y       z     vdW  Elec       q    Type
REMARK                         _______ _______ _______ _____ _____    ______ ____
ROOT
ATOM      1  C   UNL     1      -4.205   1.081   1.464  0.00  0.00    +0.233 C 
ATOM      2  O   UNL     1      -4.790   1.288   0.423  0.00  0.00    -0.272 OA
ATOM      3  N   UNL     1      -4.745   1.483   2.632  0.00  0.00    -0.274 N 
ATOM      4  C   UNL     1      -4.138   1.152   3.816  0.00  0.00    +0.096 A 
ATOM      5  C   UNL     1      -4.664   1.546   4.991  0.00  0.00    +0.018 A 
ATOM      6  C   UNL     1      -5.849   2.304   5.026  0.00  0.00    +0.005 A 
ATOM      7  C   UNL     1      -6.468   2.643   3.866  0.00  0.00    +0.044 A 
ATOM      8  C   UNL     1      -5.905   2.231   2.633  0.00  0.00    +0.114 A 
ATOM      9  N   UNL     1      -6.487   2.554   1.500  0.00  0.00    -0.368 N 
ATOM     10  H   UNL     1      -6.145   2.203   0.663  0.00  0.00    +0.161 HD
ENDROOT
BRANCH   9  11
ATOM     11  C   UNL     1      -7.650   3.444   1.501  0.00  0.00    +0.081 C 
ATOM     12  C   UNL     1      -7.178   4.900   1.504  0.00  0.00    +0.024 C 
ATOM     13  C   UNL     1      -8.394   5.830   1.504  0.00  0.00    +0.002 C 
ATOM     14  C   UNL     1      -9.236   5.569   0.254  0.00  0.00    +0.000 C 
ATOM     15  C   UNL     1      -9.708   4.113   0.251  0.00  0.00    +0.002 C 
ATOM     16  C   UNL     1      -8.492   3.184   0.250  0.00  0.00    +0.024 C 
ENDBRANCH   9  11
BRANCH   1  17
ATOM     17  C   UNL     1      -2.874   0.374   1.453  0.00  0.00    +0.104 C 
BRANCH  17  18
ATOM     18  C   UNL     1      -2.492   0.029   0.012  0.00  0.00    +0.046 C 
BRANCH  18  21
ATOM     19  C   UNL     1      -0.021   1.571   0.001  0.00  0.00    +0.045 C 
ATOM     20  C   UNL     1       0.021   0.065  -0.005  0.00  0.00    -0.023 A 
ATOM     21  C   UNL     1      -1.161  -0.677   0.001  0.00  0.00    -0.024 A 
ATOM     22  C   UNL     1      -1.114  -2.033  -0.004  0.00  0.00    +0.019 A 
ATOM     23  N   UNL     1       0.069  -2.695  -0.013  0.00  0.00    -0.325 N 
ATOM     24  H   UNL     1       0.073  -3.665  -0.016  0.00  0.00    +0.169 HD
ATOM     25  C   UNL     1       1.238  -2.028  -0.019  0.00  0.00    +0.267 A 
ATOM     26  O   UNL     1       2.292  -2.641  -0.029  0.00  0.00    -0.266 OA
ATOM     27  C   UNL     1       1.240  -0.609  -0.021  0.00  0.00    +0.119 A 
ATOM     28  C   UNL     1      -2.400  -2.818   0.003  0.00  0.00    +0.063 C 
BRANCH  27  29
ATOM     29  C   UNL     1       2.474   0.118  -0.033  0.00  0.00    +0.105 C 
ATOM     30  N   UNL     1       3.453   0.695  -0.043  0.00  0.00    -0.191 NA
ENDBRANCH  27  29
ENDBRANCH  18  21
ENDBRANCH  17  18
ENDBRANCH   1  17
TORSDOF 5
