REMARK  Name = ZINC39684390
REMARK  8 active torsions:
REMARK  status: ('A' for Active; 'I' for Inactive)
REMARK    1  A    between atoms: C_1  and  C_2
REMARK    2  A    between atoms: C_2  and  C_4
REMARK    3  A    between atoms: C_2  and  N_8
REMARK    4  A    between atoms: C_4  and  C_5
REMARK    5  A    between atoms: C_4  and  C_6
REMARK    6  A    between atoms: C_4  and  C_7
REMARK    7  A    between atoms: C_9  and  C_11
REMARK    8  A    between atoms: C_22  and  C_24
REMARK                            x       y       z     vdW  Elec       q    Type
REMARK                         _______ _______ _______ _____ _____    ______ ____
ROOT
ATOM      1  C   UNL     1       2.868  -1.321   3.045  0.00  0.00    +0.100 C 
ATOM      2  C   UNL     1       2.240  -2.732   3.097  0.00  0.00    +0.121 C 
ATOM      3  N   UNL     1       3.211  -3.599   2.390  0.00  0.00    -0.296 N 
ATOM      4  C   UNL     1       4.537  -3.098   2.823  0.00  0.00    +0.115 C 
ATOM      5  C   UNL     1       4.376  -1.565   2.870  0.00  0.00    -0.004 C 
ATOM      6  C   UNL     1       5.146  -0.988   4.053  0.00  0.00    -0.010 C 
ATOM      7  C   UNL     1       6.647  -1.192   3.828  0.00  0.00    -0.082 C 
ATOM      8  N   UNL     1       7.052  -0.526   2.584  0.00  0.00    +0.379 N 
ATOM      9  C   UNL     1       6.375  -1.150   1.440  0.00  0.00    -0.082 C 
ATOM     10  C   UNL     1       4.863  -0.944   1.564  0.00  0.00    -0.010 C 
ATOM     11  C   UNL     1       2.949  -4.615   1.544  0.00  0.00    +0.247 C 
ATOM     12  O   UNL     1       1.806  -4.829   1.187  0.00  0.00    -0.270 OA
ATOM     13  H   UNL     1       6.801   0.450   2.630  0.00  0.00    -0.086 HD
ATOM     14  H   UNL     1       8.050  -0.610   2.469  0.00  0.00    -0.086 HD
ENDROOT
BRANCH  11  15
ATOM     15  C   UNL     1       4.049  -5.470   1.051  0.00  0.00    +0.040 A 
ATOM     16  C   UNL     1       5.254  -5.534   1.752  0.00  0.00    +0.033 A 
ATOM     17  C   UNL     1       6.279  -6.335   1.286  0.00  0.00    +0.043 A 
ATOM     18  C   UNL     1       6.112  -7.073   0.127  0.00  0.00    +0.040 A 
ATOM     19  C   UNL     1       4.919  -7.013  -0.573  0.00  0.00    +0.043 A 
ATOM     20  C   UNL     1       3.885  -6.221  -0.114  0.00  0.00    +0.033 A 
ATOM     21 CL   UNL     1       4.721  -7.941  -2.026  0.00  0.00    -0.083 Cl
ATOM     22 CL   UNL     1       7.779  -6.415   2.157  0.00  0.00    -0.083 Cl
ENDBRANCH  11  15
BRANCH   1  24
ATOM     23  N   UNL     1       2.337   0.802   1.891  0.00  0.00    -0.312 N 
ATOM     24  C   UNL     1       2.322  -0.546   1.874  0.00  0.00    +0.218 C 
ATOM     25  O   UNL     1       1.869  -1.135   0.915  0.00  0.00    -0.275 OA
ATOM     26  H   UNL     1       2.699   1.273   2.658  0.00  0.00    +0.149 HD
BRANCH  23  28
ATOM     27  C   UNL     1       2.894   1.703  -0.313  0.00  0.00    +0.028 C 
ATOM     28  C   UNL     1       1.806   1.555   0.752  0.00  0.00    +0.075 C 
BRANCH  28  29
ATOM     29  C   UNL     1       1.360   2.941   1.221  0.00  0.00    -0.020 C 
ATOM     30  C   UNL     1       0.805   3.728   0.031  0.00  0.00    +0.012 C 
ATOM     31  C   UNL     1       0.271   2.793   2.286  0.00  0.00    +0.012 C 
ATOM     32  C   UNL     1       2.556   3.689   1.814  0.00  0.00    +0.012 C 
ENDBRANCH  28  29
ENDBRANCH  23  28
ENDBRANCH   1  24
TORSDOF 4
