REMARK  Name = ZINC04867227
REMARK  5 active torsions:
REMARK  status: ('A' for Active; 'I' for Inactive)
REMARK    1  A    between atoms: C_1  and  C_2
REMARK    2  A    between atoms: C_6  and  N_8
REMARK    3  A    between atoms: C_12  and  N_13
REMARK    4  A    between atoms: N_13  and  N_14
REMARK    5  A    between atoms: C_15  and  C_17
REMARK                            x       y       z     vdW  Elec       q    Type
REMARK                         _______ _______ _______ _____ _____    ______ ____
ROOT
ATOM      1  N   UNL     1      -4.784  -2.850   0.245  0.00  0.00    -0.190 N 
ATOM      2  C   UNL     1      -3.670  -2.093   0.171  0.00  0.00    +0.265 C 
ATOM      3  O   UNL     1      -3.742  -0.879   0.121  0.00  0.00    -0.269 OA
ATOM      4  C   UNL     1      -2.364  -2.775   0.144  0.00  0.00    +0.115 C 
ATOM      5  C   UNL     1      -1.181  -2.065   0.063  0.00  0.00    +0.106 C 
ATOM      6  C   UNL     1      -2.375  -4.247   0.214  0.00  0.00    +0.258 C 
ATOM      7  O   UNL     1      -1.336  -4.881   0.203  0.00  0.00    -0.270 OA
ATOM      8  N   UNL     1      -3.567  -4.873   0.292  0.00  0.00    -0.235 N 
ATOM      9  C   UNL     1      -4.719  -4.187   0.306  0.00  0.00    +0.320 C 
ATOM     10  O   UNL     1      -5.760  -4.811   0.377  0.00  0.00    -0.251 OA
ATOM     11  H   UNL     1      -3.592  -5.842   0.339  0.00  0.00    +0.159 HD
ENDROOT
BRANCH   1  17
ATOM     12  C   UNL     1      -8.924  -1.740   2.657  0.00  0.00    +0.044 C 
ATOM     13  C   UNL     1      -8.064  -1.670   1.421  0.00  0.00    -0.049 A 
ATOM     14  C   UNL     1      -8.512  -0.987   0.305  0.00  0.00    +0.003 A 
ATOM     15  C   UNL     1      -7.726  -0.921  -0.830  0.00  0.00    +0.002 A 
ATOM     16  C   UNL     1      -6.488  -1.532  -0.851  0.00  0.00    +0.024 A 
ATOM     17  C   UNL     1      -6.037  -2.224   0.265  0.00  0.00    +0.046 A 
ATOM     18  C   UNL     1      -6.829  -2.288   1.404  0.00  0.00    +0.027 A 
ENDBRANCH   1  17
BRANCH   5  19
ATOM     19  N   UNL     1      -1.196  -0.719   0.133  0.00  0.00    -0.271 N 
ATOM     20  H   UNL     1      -2.041  -0.245   0.164  0.00  0.00    +0.169 HD
BRANCH  19  21
ATOM     21  N   UNL     1       0.010  -0.005   0.160  0.00  0.00    -0.237 N 
ATOM     22  C   UNL     1      -0.005   1.340   0.230  0.00  0.00    +0.235 C 
ATOM     23  O   UNL     1      -1.063   1.934   0.264  0.00  0.00    -0.274 OA
ATOM     24  H   UNL     1       0.855  -0.480   0.128  0.00  0.00    +0.173 HD
BRANCH  22  25
ATOM     25  C   UNL     1       1.291   2.108   0.259  0.00  0.00    +0.049 C 
ATOM     26  C   UNL     1       2.087   1.813  -1.014  0.00  0.00    +0.019 C 
ATOM     27  C   UNL     1       3.403   2.592  -0.984  0.00  0.00    -0.009 C 
ATOM     28  C   UNL     1       3.107   4.091  -0.904  0.00  0.00    +0.007 C 
ATOM     29  C   UNL     1       2.311   4.386   0.368  0.00  0.00    -0.009 C 
ATOM     30  C   UNL     1       0.995   3.607   0.339  0.00  0.00    +0.019 C 
ATOM     31  C   UNL     1       3.127   3.962   1.591  0.00  0.00    +0.007 C 
ATOM     32  C   UNL     1       3.424   2.463   1.511  0.00  0.00    -0.009 C 
ATOM     33  C   UNL     1       4.220   2.168   0.238  0.00  0.00    +0.007 C 
ATOM     34  C   UNL     1       2.108   1.684   1.481  0.00  0.00    +0.019 C 
ENDBRANCH  22  25
ENDBRANCH  19  21
ENDBRANCH   5  19
TORSDOF 4
