REMARK  Name = ZINC19852188
REMARK  6 active torsions:
REMARK  status: ('A' for Active; 'I' for Inactive)
REMARK    1  A    between atoms: C_1  and  C_2
REMARK    2  A    between atoms: C_2  and  C_4
REMARK    3  A    between atoms: C_2  and  N_14
REMARK    4  A    between atoms: C_15  and  C_17
REMARK    5  A    between atoms: C_18  and  N_29
REMARK    6  A    between atoms: C_21  and  C_27
REMARK                            x       y       z     vdW  Elec       q    Type
REMARK                         _______ _______ _______ _____ _____    ______ ____
ROOT
ATOM      1  C   UNL     1       3.868  -3.999  -3.224  0.00  0.00    +0.097 A 
ATOM      2  C   UNL     1       4.759  -4.837  -3.858  0.00  0.00    +0.053 A 
ATOM      3  C   UNL     1       4.574  -6.274  -3.720  0.00  0.00    +0.030 A 
ATOM      4  C   UNL     1       5.354  -7.317  -4.272  0.00  0.00    +0.034 A 
ATOM      5  C   UNL     1       4.998  -8.634  -4.013  0.00  0.00    +0.092 A 
ATOM      6  C   UNL     1       3.874  -8.914  -3.208  0.00  0.00    +0.135 A 
ATOM      7  N   UNL     1       3.159  -7.924  -2.702  0.00  0.00    -0.224 NA
ATOM      8  C   UNL     1       3.467  -6.663  -2.928  0.00  0.00    +0.113 A 
ATOM      9  S   UNL     1       2.749  -5.122  -2.411  0.00  0.00    -0.062 S 
ATOM     10  N   UNL     1       3.519 -10.225  -2.950  0.00  0.00    -0.342 N 
ATOM     11  H   UNL     1       2.642 -10.444  -2.323  0.00  0.00    +0.144 HD
ATOM     12  H   UNL     1       4.113 -11.049  -3.372  0.00  0.00    +0.144 HD
ENDROOT
BRANCH   1  14
ATOM     13  N   UNL     1       2.890  -1.926  -2.534  0.00  0.00    -0.308 N 
ATOM     14  C   UNL     1       3.848  -2.583  -3.217  0.00  0.00    +0.253 C 
ATOM     15  O   UNL     1       4.698  -1.959  -3.826  0.00  0.00    -0.270 OA
ATOM     16  H   UNL     1       2.122  -2.490  -1.984  0.00  0.00    +0.149 HD
BRANCH  13  18
ATOM     17  C   UNL     1       2.130   0.045  -3.766  0.00  0.00    +0.028 C 
ATOM     18  C   UNL     1       2.870  -0.461  -2.526  0.00  0.00    +0.076 C 
BRANCH  18  19
ATOM     19  C   UNL     1       2.154   0.032  -1.268  0.00  0.00    -0.010 C 
ATOM     20  C   UNL     1       0.718  -0.497  -1.257  0.00  0.00    +0.012 C 
ATOM     21  C   UNL     1       0.002  -0.004   0.002  0.00  0.00    -0.010 C 
ATOM     22  C   UNL     1      -0.019   1.526   0.010  0.00  0.00    +0.007 C 
ATOM     23  C   UNL     1       1.417   2.055  -0.000  0.00  0.00    -0.010 C 
ATOM     24  C   UNL     1       2.133   1.562  -1.259  0.00  0.00    +0.012 C 
ATOM     25  C   UNL     1       2.157   1.548   1.239  0.00  0.00    +0.007 C 
ATOM     26  C   UNL     1       2.178   0.019   1.231  0.00  0.00    -0.010 C 
ATOM     27  C   UNL     1       0.742  -0.511   1.242  0.00  0.00    +0.007 C 
ATOM     28  C   UNL     1       2.894  -0.475  -0.028  0.00  0.00    +0.012 C 
ENDBRANCH  18  19
ENDBRANCH  13  18
ENDBRANCH   1  14
BRANCH   2  29
ATOM     29  N   UNL     1       5.806  -4.324  -4.609  0.00  0.00    -0.356 N 
ATOM     30  H   UNL     1       6.510  -5.006  -5.109  0.00  0.00    +0.142 HD
ATOM     31  H   UNL     1       5.933  -3.236  -4.704  0.00  0.00    +0.142 HD
ENDBRANCH   2  29
BRANCH   5  32
ATOM     32  C   UNL     1       5.773  -9.706  -4.561  0.00  0.00    +0.103 C 
ATOM     33  N   UNL     1       6.387 -10.557  -4.996  0.00  0.00    -0.191 NA
ENDBRANCH   5  32
TORSDOF 5
