REMARK  Name = ZINC04859507
REMARK  13 active torsions:
REMARK  status: ('A' for Active; 'I' for Inactive)
REMARK    1  A    between atoms: C_1  and  C_2
REMARK    2  A    between atoms: C_2  and  N_57
REMARK    3  A    between atoms: C_3  and  C_4
REMARK    4  A    between atoms: C_3  and  N_57
REMARK    5  A    between atoms: C_5  and  C_6
REMARK    6  A    between atoms: C_5  and  N_57
REMARK    7  A    between atoms: C_6  and  N_7
REMARK    8  A    between atoms: N_14  and  C_16
REMARK    9  A    between atoms: C_16  and  C_17
REMARK   10  A    between atoms: C_17  and  C_19
REMARK   11  A    between atoms: C_17  and  O_27
REMARK   12  A    between atoms: C_19  and  O_20
REMARK   13  A    between atoms: O_20  and  C_21
REMARK                            x       y       z     vdW  Elec       q    Type
REMARK                         _______ _______ _______ _____ _____    ______ ____
ROOT
ATOM      1  N   UNL     1      10.383  -2.445   0.077  0.00  0.00    -0.313 N 
ATOM      2  C   UNL     1      10.504  -2.427   1.466  0.00  0.00    +0.068 A 
ATOM      3  C   UNL     1      11.449  -2.951   2.336  0.00  0.00    +0.028 A 
ATOM      4  C   UNL     1      11.305  -2.772   3.698  0.00  0.00    +0.002 A 
ATOM      5  C   UNL     1      10.222  -2.071   4.199  0.00  0.00    +0.002 A 
ATOM      6  C   UNL     1       9.276  -1.545   3.341  0.00  0.00    +0.028 A 
ATOM      7  C   UNL     1       9.414  -1.716   1.971  0.00  0.00    +0.068 A 
ATOM      8  N   UNL     1       8.637  -1.316   0.884  0.00  0.00    -0.309 N 
ATOM      9  C   UNL     1       9.242  -1.765  -0.263  0.00  0.00    +0.183 A 
ATOM     10  H   UNL     1       9.227  -1.890  -2.298  0.00  0.00    +0.159 HD
ATOM     11  N   UNL     1       8.743  -1.537  -1.472  0.00  0.00    -0.371 N 
ATOM     12  H   UNL     1       7.870  -1.006  -1.576  0.00  0.00    +0.159 HD
ENDROOT
BRANCH   1  13
ATOM     13  C   UNL     1      11.315  -3.081  -0.858  0.00  0.00    +0.107 C 
BRANCH  13  14
ATOM     14  C   UNL     1      12.394  -2.075  -1.265  0.00  0.00    -0.057 C 
BRANCH  14  15
ATOM     15  N   UNL     1      13.338  -2.737  -2.191  0.00  0.00    +0.380 N 
ATOM     16  H   UNL     1      13.660  -3.615  -1.767  0.00  0.00    -0.082 HD
BRANCH  15  18
ATOM     17  C   UNL     1      12.147  -1.758  -4.123  0.00  0.00    -0.017 C 
ATOM     18  C   UNL     1      12.661  -3.042  -3.469  0.00  0.00    -0.082 C 
ENDBRANCH  15  18
BRANCH  15  19
ATOM     19  C   UNL     1      14.505  -1.864  -2.432  0.00  0.00    -0.082 C 
ATOM     20  C   UNL     1      15.615  -2.695  -3.079  0.00  0.00    -0.017 C 
ENDBRANCH  15  19
ENDBRANCH  14  15
ENDBRANCH  13  14
ENDBRANCH   1  13
BRANCH   8  21
ATOM     21  C   UNL     1       7.393  -0.546   0.955  0.00  0.00    +0.160 C 
BRANCH  21  22
ATOM     22  C   UNL     1       6.205  -1.504   1.062  0.00  0.00    +0.172 C 
BRANCH  22  23
ATOM     23  O   UNL     1       6.278  -2.218   2.297  0.00  0.00    -0.387 OA
ATOM     24  H   UNL     1       6.259  -1.651   3.081  0.00  0.00    +0.210 HD
ENDBRANCH  22  23
BRANCH  22  25
ATOM     25  C   UNL     1       4.900  -0.706   1.010  0.00  0.00    +0.262 C 
BRANCH  25  26
ATOM     26  O   UNL     1       3.791  -1.607   0.992  0.00  0.00    -0.489 OA
BRANCH  26  27
ATOM     27  C   UNL     1       2.550  -1.057   0.946  0.00  0.00    +0.121 A 
ATOM     28  C   UNL     1       1.428  -1.873   0.927  0.00  0.00    +0.045 A 
ATOM     29  C   UNL     1       0.167  -1.312   0.881  0.00  0.00    +0.004 A 
ATOM     30  C   UNL     1       0.022   0.063   0.854  0.00  0.00    +0.000 A 
ATOM     31  C   UNL     1       1.138   0.879   0.873  0.00  0.00    +0.004 A 
ATOM     32  C   UNL     1       2.401   0.322   0.919  0.00  0.00    +0.045 A 
ENDBRANCH  26  27
ENDBRANCH  25  26
ENDBRANCH  22  25
ENDBRANCH  21  22
ENDBRANCH   8  21
TORSDOF 11
