REMARK  Name = ZINC15051182
REMARK  6 active torsions:
REMARK  status: ('A' for Active; 'I' for Inactive)
REMARK    1  A    between atoms: C_1  and  O_2
REMARK    2  A    between atoms: O_2  and  C_3
REMARK    3  A    between atoms: C_6  and  C_9
REMARK    4  A    between atoms: N_13  and  C_17
REMARK    5  A    between atoms: N_22  and  C_25
REMARK    6  A    between atoms: C_28  and  C_31
REMARK                            x       y       z     vdW  Elec       q    Type
REMARK                         _______ _______ _______ _____ _____    ______ ____
ROOT
ATOM      1  C   UNL     1      -5.629  -2.454   0.337  0.00  0.00    +0.028 C 
ATOM      2  C   UNL     1      -5.534  -3.804   0.223  0.00  0.00    +0.077 C 
ATOM      3  C   UNL     1      -6.583  -4.800  -0.071  0.00  0.00    +0.259 C 
ATOM      4  O   UNL     1      -7.741  -4.474  -0.257  0.00  0.00    -0.269 OA
ATOM      5  N   UNL     1      -6.202  -6.065  -0.122  0.00  0.00    -0.243 N 
ATOM      6  C   UNL     1      -4.918  -6.423   0.084  0.00  0.00    +0.121 C 
ATOM      7  S   UNL     1      -4.234  -7.992   0.058  0.00  0.00    -0.027 S 
ATOM      8  S   UNL     1      -4.102  -4.862   0.382  0.00  0.00    -0.061 S 
ENDROOT
BRANCH   5   9
ATOM      9  C   UNL     1      -7.196  -7.102  -0.410  0.00  0.00    +0.178 C 
ATOM     10  C   UNL     1      -6.794  -7.907  -1.662  0.00  0.00    +0.129 C 
ATOM     11  C   UNL     1      -6.628  -9.317  -1.139  0.00  0.00    +0.228 C 
ATOM     12  O   UNL     1      -6.311 -10.280  -1.804  0.00  0.00    -0.275 OA
ATOM     13  N   UNL     1      -6.885  -9.333   0.175  0.00  0.00    -0.209 N 
ATOM     14  C   UNL     1      -7.217  -8.139   0.692  0.00  0.00    +0.248 C 
ATOM     15  O   UNL     1      -7.490  -7.925   1.853  0.00  0.00    -0.273 OA
BRANCH  13  16
ATOM     16  C   UNL     1      -6.814 -10.496   0.946  0.00  0.00    +0.044 A 
ATOM     17  C   UNL     1      -7.701 -11.541   0.707  0.00  0.00    +0.025 A 
ATOM     18  C   UNL     1      -7.635 -12.688   1.464  0.00  0.00    +0.017 A 
ATOM     19  C   UNL     1      -6.675 -12.803   2.474  0.00  0.00    +0.063 A 
ATOM     20  C   UNL     1      -5.785 -11.750   2.711  0.00  0.00    +0.017 A 
ATOM     21  C   UNL     1      -5.854 -10.608   1.946  0.00  0.00    +0.025 A 
BRANCH  19  22
ATOM     22  C   UNL     1      -6.601 -14.029   3.287  0.00  0.00    +0.387 C 
ATOM     23  O   UNL     1      -7.380 -14.949   3.079  0.00  0.00    -0.241 OA
ATOM     24  O   UNL     1      -5.761 -14.128   4.170  0.00  0.00    -0.241 OA
ENDBRANCH  19  22
ENDBRANCH  13  16
ENDBRANCH   5   9
BRANCH   1  28
ATOM     25  C   UNL     1      -2.120  -0.106   0.727  0.00  0.00    +0.120 A 
ATOM     26  C   UNL     1      -2.018  -1.458   0.417  0.00  0.00    +0.046 A 
ATOM     27  C   UNL     1      -3.154  -2.225   0.289  0.00  0.00    +0.011 A 
ATOM     28  C   UNL     1      -4.414  -1.641   0.472  0.00  0.00    -0.024 A 
ATOM     29  C   UNL     1      -4.511  -0.280   0.785  0.00  0.00    +0.011 A 
ATOM     30  C   UNL     1      -3.368   0.477   0.915  0.00  0.00    +0.046 A 
BRANCH  25  32
ATOM     31  C   UNL     1       0.253  -0.016   0.646  0.00  0.00    +0.277 C 
ATOM     32  O   UNL     1      -0.997   0.646   0.853  0.00  0.00    -0.495 OA
ENDBRANCH  25  32
ENDBRANCH   1  28
TORSDOF 5
