REMARK  Name = ZINC20705883
REMARK  4 active torsions:
REMARK  status: ('A' for Active; 'I' for Inactive)
REMARK    1  A    between atoms: C_4  and  C_10
REMARK    2  A    between atoms: C_6  and  N_7
REMARK    3  A    between atoms: C_21  and  S_26
REMARK    4  A    between atoms: S_26  and  N_29
REMARK                            x       y       z     vdW  Elec       q    Type
REMARK                         _______ _______ _______ _____ _____    ______ ____
ROOT
ATOM      1  C   UNL     1      -8.292   1.164  -1.127  0.00  0.00    +0.106 C 
ATOM      2  C   UNL     1      -8.017   2.266  -2.135  0.00  0.00    +0.029 C 
ATOM      3  C   UNL     1      -8.455   2.013  -3.584  0.00  0.00    +0.033 C 
ATOM      4  C   UNL     1      -7.433   2.842  -4.364  0.00  0.00    -0.030 C 
ATOM      5  C   UNL     1      -6.318   2.973  -3.655  0.00  0.00    -0.023 C 
ATOM      6  C   UNL     1      -6.478   2.231  -2.378  0.00  0.00    +0.049 C 
ATOM      7  C   UNL     1      -5.810   2.661  -1.131  0.00  0.00    -0.018 A 
ATOM      8  C   UNL     1      -4.644   3.396  -1.132  0.00  0.00    +0.034 A 
ATOM      9  C   UNL     1      -4.044   3.752   0.062  0.00  0.00    +0.106 A 
ATOM     10  C   UNL     1      -4.618   3.379   1.263  0.00  0.00    +0.030 A 
ATOM     11  C   UNL     1      -5.790   2.652   1.274  0.00  0.00    +0.025 A 
ATOM     12  C   UNL     1      -6.403   2.290   0.080  0.00  0.00    +0.031 A 
ATOM     13  N   UNL     1      -7.610   1.581   0.117  0.00  0.00    -0.336 N 
ATOM     14  H   UNL     1      -8.050   1.335   1.095  0.00  0.00    +0.147 HD
ENDROOT
BRANCH   1  18
ATOM     15  C   UNL     1     -12.496   0.793  -0.461  0.00  0.00    +0.034 A 
ATOM     16  C   UNL     1     -11.905   0.136  -1.524  0.00  0.00    +0.022 A 
ATOM     17  C   UNL     1     -10.544   0.256  -1.740  0.00  0.00    +0.046 A 
ATOM     18  C   UNL     1      -9.775   1.033  -0.892  0.00  0.00    -0.007 A 
ATOM     19  C   UNL     1     -10.366   1.685   0.173  0.00  0.00    +0.039 A 
ATOM     20  C   UNL     1     -11.727   1.569   0.386  0.00  0.00    +0.127 A 
ATOM     21 CL   UNL     1      -9.801  -0.569  -3.075  0.00  0.00    -0.083 Cl
BRANCH  20  22
ATOM     22  N   UNL     1     -12.361   2.272   1.524  0.00  0.00    +0.056 N 
ATOM     23  O   UNL     1     -13.559   2.166   1.715  0.00  0.00    -0.126 OA
ATOM     24  O   UNL     1     -11.684   2.956   2.270  0.00  0.00    -0.126 OA
ENDBRANCH  20  22
ENDBRANCH   1  18
BRANCH   9  25
ATOM     25  S   UNL     1      -2.550   4.687   0.052  0.00  0.00    +0.061 S 
ATOM     26  O   UNL     1      -2.486   5.363   1.300  0.00  0.00    -0.153 OA
ATOM     27  O   UNL     1      -2.510   5.376  -1.190  0.00  0.00    -0.153 OA
BRANCH  25  28
ATOM     28  N   UNL     1      -1.296   3.606   0.034  0.00  0.00    -0.177 NA
ATOM     29  C   UNL     1      -0.741   3.124  -1.238  0.00  0.00    +0.109 C 
ATOM     30  C   UNL     1      -0.752   1.593  -1.232  0.00  0.00    +0.017 C 
ATOM     31  C   UNL     1      -0.013   1.086   0.008  0.00  0.00    +0.003 C 
ATOM     32  C   UNL     1      -0.729   1.579   1.268  0.00  0.00    +0.017 C 
ATOM     33  C   UNL     1      -0.717   3.111   1.290  0.00  0.00    +0.109 C 
ENDBRANCH  25  28
ENDBRANCH   9  25
TORSDOF 4
