REMARK  Name = ZINC22925801
REMARK  9 active torsions:
REMARK  status: ('A' for Active; 'I' for Inactive)
REMARK    1  A    between atoms: C_1  and  C_2
REMARK    2  A    between atoms: C_2  and  C_3
REMARK    3  A    between atoms: C_2  and  C_20
REMARK    4  A    between atoms: C_2  and  N_26
REMARK    5  A    between atoms: C_3  and  N_4
REMARK    6  A    between atoms: N_7  and  C_10
REMARK    7  A    between atoms: C_10  and  C_11
REMARK    8  A    between atoms: N_26  and  S_27
REMARK    9  A    between atoms: S_27  and  C_30
REMARK                            x       y       z     vdW  Elec       q    Type
REMARK                         _______ _______ _______ _____ _____    ______ ____
ROOT
ATOM      1  C   UNL     1      -2.785   1.373  -3.639  0.00  0.00    +0.032 C 
ATOM      2  C   UNL     1      -1.327   1.728  -3.935  0.00  0.00    +0.047 C 
ENDROOT
BRANCH   2   3
ATOM      3  C   UNL     1      -0.956   1.226  -5.307  0.00  0.00    -0.028 A 
ATOM      4  C   UNL     1      -0.237   0.053  -5.442  0.00  0.00    +0.005 A 
ATOM      5  C   UNL     1       0.099  -0.410  -6.701  0.00  0.00    +0.000 A 
ATOM      6  C   UNL     1      -0.275   0.305  -7.823  0.00  0.00    +0.000 A 
ATOM      7  C   UNL     1      -0.989   1.480  -7.687  0.00  0.00    +0.000 A 
ATOM      8  C   UNL     1      -1.330   1.941  -6.429  0.00  0.00    +0.005 A 
ENDBRANCH   2   3
BRANCH   2   9
ATOM      9  N   UNL     1      -1.158   3.182  -3.885  0.00  0.00    -0.182 NA
ATOM     10  H   UNL     1      -2.041   3.838  -3.868  0.00  0.00    +0.149 HD
BRANCH   9  11
ATOM     11  S   UNL     1       0.342   3.850  -4.105  0.00  0.00    +0.059 S 
ATOM     12  O   UNL     1       0.173   5.259  -4.034  0.00  0.00    -0.153 OA
ATOM     13  O   UNL     1       1.230   3.144  -3.249  0.00  0.00    -0.153 OA
BRANCH  11  14
ATOM     14  C   UNL     1       0.837   3.485  -5.756  0.00  0.00    +0.105 A 
ATOM     15  C   UNL     1       1.641   2.390  -6.010  0.00  0.00    +0.031 A 
ATOM     16  C   UNL     1       2.027   2.100  -7.305  0.00  0.00    +0.040 A 
ATOM     17  C   UNL     1       1.616   2.913  -8.348  0.00  0.00    +0.124 A 
ATOM     18  C   UNL     1       0.815   4.013  -8.092  0.00  0.00    +0.040 A 
ATOM     19  C   UNL     1       0.426   4.298  -6.796  0.00  0.00    +0.031 A 
ATOM     20  F   UNL     1       1.996   2.634  -9.614  0.00  0.00    -0.205 F 
ENDBRANCH  11  14
ENDBRANCH   9  11
ENDBRANCH   2   9
BRANCH   2  21
ATOM     21  C   UNL     1      -0.421   1.073  -2.890  0.00  0.00    -0.050 C 
BRANCH  21  22
ATOM     22  N   UNL     1      -0.875   1.448  -1.544  0.00  0.00    +0.383 N 
ATOM     23  C   UNL     1      -0.308   0.551  -0.528  0.00  0.00    -0.063 C 
ATOM     24  C   UNL     1      -0.867   0.924   0.847  0.00  0.00    +0.066 C 
ATOM     25  N   UNL     1      -0.537   2.325   1.143  0.00  0.00    -0.302 NA
ATOM     26  C   UNL     1      -1.104   3.223   0.127  0.00  0.00    +0.066 C 
ATOM     27  C   UNL     1      -0.545   2.849  -1.248  0.00  0.00    -0.063 C 
ATOM     28  H   UNL     1      -1.970   1.345  -1.518  0.00  0.00    -0.082 HD
BRANCH  25  29
ATOM     29  C   UNL     1      -0.991   2.700   2.489  0.00  0.00    +0.119 C 
BRANCH  29  30
ATOM     30  C   UNL     1      -0.208   1.926   3.517  0.00  0.00    -0.030 A 
ATOM     31  C   UNL     1      -0.672   0.701   3.959  0.00  0.00    +0.009 A 
ATOM     32  C   UNL     1       0.045  -0.016   4.898  0.00  0.00    +0.050 A 
ATOM     33  C   UNL     1       1.226   0.498   5.408  0.00  0.00    +0.166 A 
ATOM     34  C   UNL     1       1.691   1.734   4.967  0.00  0.00    +0.167 A 
ATOM     35  C   UNL     1       0.970   2.445   4.021  0.00  0.00    +0.054 A 
ATOM     36  O   UNL     1       2.860   2.017   5.613  0.00  0.00    -0.453 OA
ATOM     37  C   UNL     1       2.895   1.133   6.749  0.00  0.00    +0.466 C 
ATOM     38  O   UNL     1       2.104   0.005   6.330  0.00  0.00    -0.453 OA
ENDBRANCH  29  30
ENDBRANCH  25  29
ENDBRANCH  21  22
ENDBRANCH   2  21
TORSDOF 8
