REMARK  Name = ZINC20352049
REMARK  5 active torsions:
REMARK  status: ('A' for Active; 'I' for Inactive)
REMARK    1  A    between atoms: C_6  and  C_7
REMARK    2  A    between atoms: C_7  and  N_8
REMARK    3  A    between atoms: C_11  and  C_14
REMARK    4  A    between atoms: C_20  and  C_22
REMARK    5  A    between atoms: C_22  and  C_23
REMARK                            x       y       z     vdW  Elec       q    Type
REMARK                         _______ _______ _______ _____ _____    ______ ____
ROOT
ATOM      1  C   UNL     1      -4.892  -2.007  -2.961  0.00  0.00    -0.007 C 
ATOM      2  C   UNL     1      -5.619  -3.031  -2.087  0.00  0.00    +0.023 C 
ATOM      3  C   UNL     1      -6.431  -3.974  -2.980  0.00  0.00    +0.108 C 
ATOM      4  N   UNL     1      -7.318  -3.170  -3.833  0.00  0.00    -0.301 N 
ATOM      5  C   UNL     1      -6.732  -2.097  -4.648  0.00  0.00    +0.108 C 
ATOM      6  C   UNL     1      -5.917  -1.175  -3.736  0.00  0.00    +0.023 C 
ATOM      7  C   UNL     1      -8.643  -3.414  -3.868  0.00  0.00    +0.223 C 
ATOM      8  O   UNL     1      -9.114  -4.303  -3.191  0.00  0.00    -0.275 OA
ENDROOT
BRANCH   1  12
ATOM      9  N   UNL     1      -1.727  -1.018  -1.371  0.00  0.00    +0.383 N 
ATOM     10  C   UNL     1      -2.065   0.267  -2.020  0.00  0.00    -0.078 C 
ATOM     11  C   UNL     1      -3.271  -0.058  -2.937  0.00  0.00    -0.017 C 
ATOM     12  C   UNL     1      -4.052  -1.085  -2.075  0.00  0.00    -0.026 C 
ATOM     13  C   UNL     1      -2.928  -1.874  -1.371  0.00  0.00    -0.075 C 
ATOM     14  H   UNL     1      -0.987  -1.472  -1.886  0.00  0.00    -0.081 HD
BRANCH   9  15
ATOM     15  C   UNL     1      -1.293  -0.775   0.011  0.00  0.00    -0.043 C 
BRANCH  15  21
ATOM     16  C   UNL     1      -0.017   1.378   0.010  0.00  0.00    +0.003 A 
ATOM     17  C   UNL     1       1.171   2.086   0.002  0.00  0.00    +0.020 A 
ATOM     18  C   UNL     1       2.378   1.410  -0.013  0.00  0.00    +0.041 A 
ATOM     19  C   UNL     1       2.396   0.027  -0.021  0.00  0.00    +0.020 A 
ATOM     20  C   UNL     1       1.208  -0.679  -0.013  0.00  0.00    +0.003 A 
ATOM     21  C   UNL     1       0.002  -0.004   0.002  0.00  0.00    -0.064 A 
ATOM     22 CL   UNL     1       3.870   2.298  -0.023  0.00  0.00    -0.084 Cl
ENDBRANCH  15  21
ENDBRANCH   9  15
ENDBRANCH   1  12
BRANCH   7  23
ATOM     23  C   UNL     1      -9.539  -2.581  -4.748  0.00  0.00    +0.172 C 
BRANCH  23  24
ATOM     24  C   UNL     1     -10.963  -3.053  -4.605  0.00  0.00    +0.140 A 
ATOM     25  N   UNL     1     -12.049  -2.528  -5.262  0.00  0.00    -0.293 N 
ATOM     26  H   UNL     1     -12.029  -1.793  -5.895  0.00  0.00    +0.172 HD
ATOM     27  C   UNL     1     -13.147  -3.209  -4.878  0.00  0.00    +0.342 A 
ATOM     28  O   UNL     1     -14.287  -3.014  -5.260  0.00  0.00    -0.245 OA
ATOM     29  N   UNL     1     -12.751  -4.147  -3.992  0.00  0.00    -0.227 N 
ATOM     30  H   UNL     1     -13.321  -4.790  -3.542  0.00  0.00    +0.194 HD
ATOM     31  N   UNL     1     -11.362  -4.022  -3.846  0.00  0.00    -0.156 NA
ENDBRANCH  23  24
ENDBRANCH   7  23
TORSDOF 5
