REMARK  Name = ZINC39981976
REMARK  5 active torsions:
REMARK  status: ('A' for Active; 'I' for Inactive)
REMARK    1  A    between atoms: C_1  and  C_2
REMARK    2  A    between atoms: C_2  and  C_4
REMARK    3  A    between atoms: C_2  and  N_21
REMARK    4  A    between atoms: N_21  and  C_22
REMARK    5  A    between atoms: C_22  and  C_23
REMARK                            x       y       z     vdW  Elec       q    Type
REMARK                         _______ _______ _______ _____ _____    ______ ____
ROOT
ATOM      1  C   UNL     1       0.707  -0.490  -1.238  0.00  0.00    +0.210 C 
ATOM      2  O   UNL     1       0.120  -1.191  -2.034  0.00  0.00    -0.277 OA
ATOM      3  N   UNL     1       1.991  -0.146  -1.462  0.00  0.00    -0.241 N 
ATOM      4  C   UNL     1       2.693   0.659  -0.553  0.00  0.00    +0.044 A 
ATOM      5  C   UNL     1       2.781   0.227   0.766  0.00  0.00    +0.024 A 
ATOM      6  C   UNL     1       3.490   0.958   1.697  0.00  0.00    +0.002 A 
ATOM      7  C   UNL     1       4.116   2.126   1.301  0.00  0.00    +0.000 A 
ATOM      8  C   UNL     1       4.017   2.560  -0.001  0.00  0.00    +0.005 A 
ATOM      9  C   UNL     1       3.288   1.845  -0.954  0.00  0.00    -0.025 A 
ATOM     10  C   UNL     1       3.207   2.503  -2.312  0.00  0.00    +0.042 C 
ATOM     11  C   UNL     1       2.344   1.739  -3.300  0.00  0.00    +0.042 C 
ATOM     12  C   UNL     1       2.902   0.365  -3.572  0.00  0.00    -0.025 A 
ATOM     13  C   UNL     1       2.669  -0.585  -2.607  0.00  0.00    +0.044 A 
ATOM     14  C   UNL     1       3.096  -1.891  -2.774  0.00  0.00    +0.024 A 
ATOM     15  C   UNL     1       3.791  -2.220  -3.926  0.00  0.00    +0.002 A 
ATOM     16  C   UNL     1       4.051  -1.259  -4.886  0.00  0.00    +0.000 A 
ATOM     17  C   UNL     1       3.601   0.056  -4.716  0.00  0.00    +0.005 A 
ENDROOT
BRANCH   1  19
ATOM     18  C   UNL     1      -0.019   1.526   0.010  0.00  0.00    -0.004 C 
ATOM     19  C   UNL     1       0.002  -0.004   0.002  0.00  0.00    +0.014 C 
BRANCH  19  20
ATOM     20  N   UNL     1      -1.376  -0.512   0.012  0.00  0.00    +0.389 N 
ATOM     21  H   UNL     1      -1.888  -0.113  -0.760  0.00  0.00    -0.084 HD
ATOM     22  H   UNL     1      -1.364  -1.518  -0.076  0.00  0.00    -0.084 HD
BRANCH  20  23
ATOM     23  C   UNL     1      -2.026  -0.140   1.276  0.00  0.00    -0.046 C 
BRANCH  23  24
ATOM     24  C   UNL     1      -3.440  -0.661   1.287  0.00  0.00    -0.061 A 
ATOM     25  C   UNL     1      -4.467   0.119   0.789  0.00  0.00    +0.005 A 
ATOM     26  C   UNL     1      -5.765  -0.355   0.796  0.00  0.00    +0.050 A 
ATOM     27  C   UNL     1      -6.040  -1.615   1.303  0.00  0.00    +0.166 A 
ATOM     28  C   UNL     1      -5.006  -2.401   1.804  0.00  0.00    +0.166 A 
ATOM     29  C   UNL     1      -3.706  -1.921   1.789  0.00  0.00    +0.051 A 
ATOM     30  O   UNL     1      -5.529  -3.584   2.240  0.00  0.00    -0.453 OA
ATOM     31  C   UNL     1      -6.944  -3.352   2.376  0.00  0.00    +0.466 C 
ATOM     32  O   UNL     1      -7.212  -2.305   1.425  0.00  0.00    -0.453 OA
ENDBRANCH  23  24
ENDBRANCH  20  23
ENDBRANCH  19  20
ENDBRANCH   1  19
TORSDOF 4
