REMARK  Name = ZINC39653481
REMARK  15 active torsions:
REMARK  status: ('A' for Active; 'I' for Inactive)
REMARK    1  A    between atoms: C_1  and  C_2
REMARK    2  A    between atoms: C_2  and  O_3
REMARK    3  A    between atoms: O_3  and  C_4
REMARK    4  A    between atoms: C_6  and  C_12
REMARK    5  A    between atoms: C_9  and  O_10
REMARK    6  A    between atoms: O_10  and  C_11
REMARK    7  A    between atoms: C_12  and  C_13
REMARK    8  A    between atoms: C_13  and  N_14
REMARK    9  A    between atoms: C_15  and  C_17
REMARK   10  A    between atoms: C_28  and  C_30
REMARK   11  A    between atoms: C_32  and  C_39
REMARK   12  A    between atoms: N_34  and  C_35
REMARK   13  A    between atoms: C_35  and  C_36
REMARK   14  A    between atoms: C_35  and  C_37
REMARK   15  A    between atoms: C_35  and  C_38
REMARK                            x       y       z     vdW  Elec       q    Type
REMARK                         _______ _______ _______ _____ _____    ______ ____
ROOT
ATOM      1  C   UNL     1       3.787  -7.267   3.015  0.00  0.00    +0.100 C 
ATOM      2  C   UNL     1       4.974  -6.602   2.282  0.00  0.00    +0.121 C 
ATOM      3  N   UNL     1       5.849  -6.099   3.366  0.00  0.00    -0.295 N 
ATOM      4  C   UNL     1       5.804  -7.161   4.399  0.00  0.00    +0.115 C 
ATOM      5  C   UNL     1       4.337  -7.636   4.403  0.00  0.00    -0.004 C 
ATOM      6  C   UNL     1       3.552  -6.911   5.492  0.00  0.00    -0.010 C 
ATOM      7  C   UNL     1       4.080  -7.337   6.865  0.00  0.00    -0.082 C 
ATOM      8  N   UNL     1       3.938  -8.790   7.016  0.00  0.00    +0.379 N 
ATOM      9  C   UNL     1       4.769  -9.481   6.023  0.00  0.00    -0.082 C 
ATOM     10  C   UNL     1       4.271  -9.145   4.615  0.00  0.00    -0.010 C 
ATOM     11  C   UNL     1       6.533  -4.938   3.405  0.00  0.00    +0.265 C 
ATOM     12  O   UNL     1       7.207  -4.661   4.378  0.00  0.00    -0.268 OA
ATOM     13  H   UNL     1       4.230  -9.060   7.944  0.00  0.00    -0.086 HD
ATOM     14  H   UNL     1       2.972  -9.048   6.882  0.00  0.00    -0.086 HD
ENDROOT
BRANCH  11  15
ATOM     15  C   UNL     1       6.463  -4.005   2.269  0.00  0.00    +0.124 A 
ATOM     16  C   UNL     1       5.924  -4.257   1.019  0.00  0.00    +0.057 A 
ATOM     17  C   UNL     1       6.094  -3.073   0.297  0.00  0.00    +0.061 A 
ATOM     18  N   UNL     1       6.688  -2.208   1.079  0.00  0.00    -0.175 NA
ATOM     19  N   UNL     1       6.913  -2.716   2.238  0.00  0.00    -0.254 N 
ATOM     20  C   UNL     1       5.670  -2.835  -1.129  0.00  0.00    +0.067 C 
BRANCH  19  21
ATOM     21  C   UNL     1       7.556  -2.019   3.354  0.00  0.00    +0.056 C 
ATOM     22  C   UNL     1       8.880  -2.709   3.691  0.00  0.00    +0.036 C 
ATOM     23  C   UNL     1       7.824  -0.565   2.962  0.00  0.00    +0.036 C 
ATOM     24  C   UNL     1       6.637  -2.057   4.577  0.00  0.00    +0.036 C 
ENDBRANCH  19  21
ENDBRANCH  11  15
BRANCH   1  26
ATOM     25  N   UNL     1       1.392  -6.755   3.362  0.00  0.00    -0.315 N 
ATOM     26  C   UNL     1       2.641  -6.297   3.146  0.00  0.00    +0.218 C 
ATOM     27  O   UNL     1       2.842  -5.104   3.056  0.00  0.00    -0.275 OA
ATOM     28  H   UNL     1       1.218  -7.710   3.361  0.00  0.00    +0.149 HD
BRANCH  25  29
ATOM     29  C   UNL     1       0.296  -5.812   3.598  0.00  0.00    +0.109 C 
BRANCH  29  30
ATOM     30  C   UNL     1      -1.006  -6.586   3.813  0.00  0.00    +0.054 C 
BRANCH  30  33
ATOM     31  C   UNL     1      -3.904  -4.238   3.211  0.00  0.00    +0.162 A 
ATOM     32  C   UNL     1      -2.867  -5.130   2.989  0.00  0.00    +0.053 A 
ATOM     33  C   UNL     1      -2.133  -5.615   4.056  0.00  0.00    -0.042 A 
ATOM     34  C   UNL     1      -2.430  -5.212   5.344  0.00  0.00    +0.007 A 
ATOM     35  C   UNL     1      -3.463  -4.322   5.572  0.00  0.00    +0.049 A 
ATOM     36  C   UNL     1      -4.199  -3.828   4.507  0.00  0.00    +0.162 A 
BRANCH  36  37
ATOM     37  O   UNL     1      -5.212  -2.948   4.729  0.00  0.00    -0.491 OA
ATOM     38  C   UNL     1      -5.459  -2.571   6.085  0.00  0.00    +0.277 C 
ENDBRANCH  36  37
BRANCH  31  39
ATOM     39  O   UNL     1      -4.627  -3.760   2.163  0.00  0.00    -0.489 OA
BRANCH  39  41
ATOM     40  C   UNL     1      -5.185  -3.582  -0.182  0.00  0.00    +0.048 C 
ATOM     41  C   UNL     1      -4.267  -4.225   0.861  0.00  0.00    +0.226 C 
ENDBRANCH  39  41
ENDBRANCH  31  39
ENDBRANCH  30  33
ENDBRANCH  29  30
ENDBRANCH  25  29
ENDBRANCH   1  26
TORSDOF 9
