REMARK  Name = ZINC05890823
REMARK  4 active torsions:
REMARK  status: ('A' for Active; 'I' for Inactive)
REMARK    1  A    between atoms: C_6  and  C_7
REMARK    2  A    between atoms: C_7  and  C_9
REMARK    3  A    between atoms: C_7  and  N_41
REMARK    4  A    between atoms: C_14  and  O_15
REMARK                            x       y       z     vdW  Elec       q    Type
REMARK                         _______ _______ _______ _____ _____    ______ ____
ROOT
ATOM      1  C   UNL     1       2.442   4.593   0.004  0.00  0.00    -0.003 C 
ENDROOT
BRANCH   1   2
ATOM      2  C   UNL     1       2.761   5.054   1.403  0.00  0.00    -0.012 A 
ATOM      3  C   UNL     1       2.396   6.324   1.811  0.00  0.00    +0.055 A 
ATOM      4  C   UNL     1       2.684   6.749   3.098  0.00  0.00    +0.167 A 
ATOM      5  C   UNL     1       3.351   5.899   3.977  0.00  0.00    +0.170 A 
ATOM      6  C   UNL     1       3.720   4.630   3.564  0.00  0.00    +0.095 A 
ATOM      7  C   UNL     1       3.425   4.207   2.276  0.00  0.00    +0.122 A 
ATOM      8  O   UNL     1       3.518   6.547   5.167  0.00  0.00    -0.452 OA
ATOM      9  C   UNL     1       2.589   7.647   5.141  0.00  0.00    +0.466 C 
ATOM     10  O   UNL     1       2.433   7.929   3.737  0.00  0.00    -0.453 OA
BRANCH   7  11
ATOM     11  O   UNL     1       3.787   2.961   1.871  0.00  0.00    -0.506 OA
ATOM     12  H   UNL     1       4.667   2.917   1.472  0.00  0.00    +0.292 HD
ENDBRANCH   7  11
ENDBRANCH   1   2
BRANCH   1  18
ATOM     13  C   UNL     1      -0.059   4.497   0.027  0.00  0.00    +0.004 A 
ATOM     14  C   UNL     1      -1.247   3.791   0.034  0.00  0.00    +0.021 A 
ATOM     15  C   UNL     1      -1.230   2.408   0.021  0.00  0.00    +0.059 A 
ATOM     16  C   UNL     1      -0.021   1.732   0.012  0.00  0.00    +0.059 A 
ATOM     17  C   UNL     1       1.167   2.440   0.004  0.00  0.00    +0.023 A 
ATOM     18  C   UNL     1       1.147   3.822   0.012  0.00  0.00    -0.055 A 
ATOM     19 CL   UNL     1       0.002  -0.004   0.002  0.00  0.00    -0.082 Cl
ATOM     20 CL   UNL     1      -2.722   1.521   0.023  0.00  0.00    -0.082 Cl
ENDBRANCH   1  18
BRANCH   1  25
ATOM     21  C   UNL     1       3.551   6.578  -0.867  0.00  0.00    -0.078 C 
ATOM     22  C   UNL     1       3.447   7.398  -2.178  0.00  0.00    -0.020 C 
ATOM     23  C   UNL     1       2.820   6.389  -3.168  0.00  0.00    -0.020 C 
ATOM     24  C   UNL     1       2.116   5.343  -2.284  0.00  0.00    -0.078 C 
ATOM     25  N   UNL     1       2.318   5.776  -0.900  0.00  0.00    +0.387 N 
ATOM     26  H   UNL     1       1.523   6.350  -0.597  0.00  0.00    -0.080 HD
ENDBRANCH   1  25
TORSDOF 4
