REMARK  Name = ZINC65419286
REMARK  6 active torsions:
REMARK  status: ('A' for Active; 'I' for Inactive)
REMARK    1  A    between atoms: C_1  and  C_2
REMARK    2  A    between atoms: C_7  and  N_8
REMARK    3  A    between atoms: C_9  and  C_11
REMARK    4  A    between atoms: C_11  and  C_12
REMARK    5  A    between atoms: C_12  and  C_13
REMARK    6  A    between atoms: C_23  and  C_28
REMARK                            x       y       z     vdW  Elec       q    Type
REMARK                         _______ _______ _______ _____ _____    ______ ____
ROOT
ATOM      1  N   UNL     1       0.025   0.002   2.420  0.00  0.00    -0.285 N 
ATOM      2  C   UNL     1      -0.056  -0.668   3.587  0.00  0.00    +0.218 C 
ATOM      3  O   UNL     1      -0.040  -1.881   3.593  0.00  0.00    -0.275 OA
ATOM      4  H   UNL     1       0.079   0.970   2.419  0.00  0.00    +0.155 HD
ENDROOT
BRANCH   1  11
ATOM      5  C   UNL     1      -1.267   1.184   0.185  0.00  0.00    +0.046 C 
ATOM      6  C   UNL     1      -0.589  -0.158   0.087  0.00  0.00    -0.026 A 
ATOM      7  C   UNL     1      -0.585  -0.834  -1.114  0.00  0.00    +0.052 A 
ATOM      8  C   UNL     1       0.037  -2.072  -1.214  0.00  0.00    +0.140 A 
ATOM      9  C   UNL     1       0.662  -2.627  -0.083  0.00  0.00    +0.022 A 
ATOM     10  C   UNL     1       0.653  -1.935   1.131  0.00  0.00    +0.035 A 
ATOM     11  C   UNL     1       0.033  -0.701   1.209  0.00  0.00    +0.037 A 
ATOM     12  C   UNL     1       1.315  -3.934  -0.201  0.00  0.00    -0.033 A 
ATOM     13  C   UNL     1       1.289  -4.558  -1.406  0.00  0.00    +0.096 A 
ATOM     14  C   UNL     1       0.644  -3.942  -2.500  0.00  0.00    +0.337 A 
ATOM     15  O   UNL     1       0.628  -4.511  -3.577  0.00  0.00    -0.245 OA
ATOM     16  O   UNL     1       0.048  -2.745  -2.385  0.00  0.00    -0.422 OA
ATOM     17  C   UNL     1       1.998  -4.569   0.984  0.00  0.00    +0.045 C 
ENDBRANCH   1  11
BRANCH   2  18
ATOM     18  C   UNL     1      -0.167   0.090   4.885  0.00  0.00    +0.102 C 
BRANCH  18  19
ATOM     19  C   UNL     1      -0.244  -0.899   6.049  0.00  0.00    +0.066 C 
BRANCH  19  20
ATOM     20  C   UNL     1      -0.355  -0.141   7.346  0.00  0.00    +0.065 C 
ATOM     21  C   UNL     1      -1.485   0.137   7.960  0.00  0.00    -0.021 C 
ATOM     22  C   UNL     1      -2.902  -0.305   7.721  0.00  0.00    +0.035 C 
ATOM     23  C   UNL     1      -3.393  -0.928   9.041  0.00  0.00    +0.005 C 
ATOM     24  C   UNL     1      -3.115   0.021  10.205  0.00  0.00    +0.003 C 
ATOM     25  C   UNL     1      -1.612   0.251  10.395  0.00  0.00    +0.033 C 
ATOM     26  C   UNL     1      -1.078   0.983   9.162  0.00  0.00    +0.156 C 
ATOM     27  N   UNL     1       0.384   0.959   9.082  0.00  0.00    -0.180 NA
ATOM     28  N   UNL     1       0.696   0.348   8.051  0.00  0.00    -0.158 NA
ENDBRANCH  19  20
ENDBRANCH  18  19
ENDBRANCH   2  18
TORSDOF 4
