REMARK  Name = ZINC33924992
REMARK  9 active torsions:
REMARK  status: ('A' for Active; 'I' for Inactive)
REMARK    1  A    between atoms: C_4  and  C_7
REMARK    2  A    between atoms: C_7  and  N_8
REMARK    3  A    between atoms: N_8  and  C_9
REMARK    4  A    between atoms: C_9  and  C_10
REMARK    5  A    between atoms: C_10  and  N_11
REMARK    6  A    between atoms: C_16  and  C_28
REMARK    7  A    between atoms: CA_19  and  C_25
REMARK    8  A    between atoms: C_31  and  O_34
REMARK    9  A    between atoms: O_34  and  C_35
REMARK                            x       y       z     vdW  Elec       q    Type
REMARK                         _______ _______ _______ _____ _____    ______ ____
ROOT
ATOM      1  N   UNL     1       9.101  -2.731   2.345  0.00  0.00    -0.244 N 
ATOM      2  C   UNL     1       8.795  -4.067   2.419  0.00  0.00    +0.224 C 
ATOM      3  O   UNL     1       7.706  -4.585   2.288  0.00  0.00    -0.275 OA
ATOM      4  C   UNL     1      10.053  -4.719   2.687  0.00  0.00    +0.077 C 
ATOM      5  C   UNL     1      10.695  -6.041   2.579  0.00  0.00    -0.027 C 
ATOM      6  N   UNL     1      12.134  -5.716   2.870  0.00  0.00    +0.394 N 
ATOM      7  CA  UNL     1      12.346  -4.269   2.568  0.00  0.00    +0.057 C 
ATOM      8  C   UNL     1      11.057  -3.820   1.862  0.00  0.00    +0.083 C 
ATOM      9  C   UNL     1      10.444  -2.502   2.247  0.00  0.00    +0.224 C 
ATOM     10  O   UNL     1      11.024  -1.454   2.433  0.00  0.00    -0.275 OA
ATOM     11  H1  UNL     1      12.335  -5.895   3.842  0.00  0.00    -0.084 HD
ATOM     12  H2  UNL     1      12.735  -6.279   2.287  0.00  0.00    -0.084 HD
ENDROOT
BRANCH   5  13
ATOM     13  C   UNL     1      10.139  -6.994   3.606  0.00  0.00    -0.060 A 
ATOM     14  C   UNL     1      10.585  -6.936   4.913  0.00  0.00    +0.005 A 
ATOM     15  C   UNL     1      10.077  -7.808   5.856  0.00  0.00    +0.046 A 
ATOM     16  C   UNL     1       9.119  -8.743   5.490  0.00  0.00    +0.128 A 
ATOM     17  C   UNL     1       8.674  -8.799   4.178  0.00  0.00    +0.046 A 
ATOM     18  C   UNL     1       9.181  -7.921   3.239  0.00  0.00    +0.005 A 
BRANCH  16  19
ATOM     19  O   UNL     1       8.618  -9.602   6.416  0.00  0.00    -0.456 OA
BRANCH  19  20
ATOM     20  C   UNL     1       9.079  -9.506   7.691  0.00  0.00    +0.128 A 
ATOM     21  C   UNL     1       8.441  -8.673   8.599  0.00  0.00    +0.046 A 
ATOM     22  C   UNL     1       8.911  -8.577   9.895  0.00  0.00    +0.004 A 
ATOM     23  C   UNL     1      10.016  -9.310  10.286  0.00  0.00    +0.000 A 
ATOM     24  C   UNL     1      10.654 -10.140   9.383  0.00  0.00    +0.004 A 
ATOM     25  C   UNL     1      10.184 -10.245   8.088  0.00  0.00    +0.046 A 
ENDBRANCH  19  20
ENDBRANCH  16  19
ENDBRANCH   5  13
BRANCH   7  26
ATOM     26  C   UNL     1      12.570  -3.497   3.842  0.00  0.00    +0.343 C 
ATOM     27  O   UNL     1      12.585  -4.080   4.913  0.00  0.00    -0.248 OA
ATOM     28  OXT UNL     1      12.737  -2.290   3.803  0.00  0.00    -0.248 OA
ENDBRANCH   7  26
BRANCH   1  29
ATOM     29  C   UNL     1       8.095  -1.666   2.362  0.00  0.00    +0.097 C 
BRANCH  29  30
ATOM     30  C   UNL     1       7.652  -1.359   0.930  0.00  0.00    -0.062 C 
BRANCH  30  31
ATOM     31  N   UNL     1       6.644  -0.291   0.948  0.00  0.00    +0.383 N 
ATOM     32  H   UNL     1       7.040   0.539   1.362  0.00  0.00    -0.085 HD
ATOM     33  H   UNL     1       5.847  -0.590   1.490  0.00  0.00    -0.085 HD
BRANCH  31  34
ATOM     34  C   UNL     1       6.218   0.003  -0.427  0.00  0.00    -0.047 C 
BRANCH  34  38
ATOM     35  C   UNL     1       3.286   3.109  -0.378  0.00  0.00    +0.000 A 
ATOM     36  C   UNL     1       4.628   3.427  -0.478  0.00  0.00    +0.000 A 
ATOM     37  C   UNL     1       5.577   2.422  -0.493  0.00  0.00    +0.002 A 
ATOM     38  C   UNL     1       5.184   1.099  -0.409  0.00  0.00    -0.064 A 
ATOM     39  C   UNL     1       3.842   0.781  -0.308  0.00  0.00    +0.002 A 
ATOM     40  C   UNL     1       2.893   1.787  -0.294  0.00  0.00    +0.000 A 
ENDBRANCH  34  38
ENDBRANCH  31  34
ENDBRANCH  30  31
ENDBRANCH  29  30
ENDBRANCH   1  29
TORSDOF 9
