REMARK  Name = ZINC13416663
REMARK  7 active torsions:
REMARK  status: ('A' for Active; 'I' for Inactive)
REMARK    1  A    between atoms: C_1  and  C_2
REMARK    2  A    between atoms: C_8  and  C_16
REMARK    3  A    between atoms: C_12  and  C_13
REMARK    4  A    between atoms: C_16  and  S_17
REMARK    5  A    between atoms: S_17  and  C_18
REMARK    6  A    between atoms: C_21  and  C_24
REMARK    7  A    between atoms: N_22  and  C_23
REMARK                            x       y       z     vdW  Elec       q    Type
REMARK                         _______ _______ _______ _____ _____    ______ ____
ROOT
ATOM      1  C   UNL     1       0.463   1.390   0.139  0.00  0.00    +0.046 C 
ATOM      2  C   UNL     1       0.551  -0.114   0.095  0.00  0.00    -0.015 A 
ATOM      3  C   UNL     1       0.426  -0.790  -1.119  0.00  0.00    +0.076 A 
ATOM      4  C   UNL     1       0.203  -0.239  -2.476  0.00  0.00    +0.260 A 
ATOM      5  O   UNL     1       0.103   0.962  -2.654  0.00  0.00    -0.267 OA
ATOM      6  N   UNL     1       0.115  -1.101  -3.508  0.00  0.00    -0.310 N 
ATOM      7  H   UNL     1      -0.030  -0.756  -4.403  0.00  0.00    +0.170 HD
ATOM      8  C   UNL     1       0.226  -2.438  -3.321  0.00  0.00    +0.121 A 
ATOM      9  N   UNL     1       0.423  -2.957  -2.140  0.00  0.00    -0.226 NA
ATOM     10  C   UNL     1       0.524  -2.199  -1.055  0.00  0.00    +0.116 A 
ATOM     11  S   UNL     1       0.784  -2.517   0.672  0.00  0.00    -0.062 S 
ATOM     12  C   UNL     1       0.763  -0.830   1.252  0.00  0.00    +0.106 A 
ENDROOT
BRANCH  12  13
ATOM     13  C   UNL     1       0.922  -0.346   2.576  0.00  0.00    +0.393 C 
ATOM     14  O   UNL     1       0.877   0.858   2.798  0.00  0.00    -0.240 OA
ATOM     15  O   UNL     1       1.104  -1.132   3.497  0.00  0.00    -0.240 OA
ENDBRANCH  12  13
BRANCH   8  16
ATOM     16  C   UNL     1       0.119  -3.354  -4.513  0.00  0.00    +0.151 C 
BRANCH  16  17
ATOM     17  S   UNL     1       0.303  -5.076  -3.972  0.00  0.00    -0.078 S 
BRANCH  17  18
ATOM     18  C   UNL     1       0.156  -6.009  -5.459  0.00  0.00    +0.192 A 
ATOM     19  N   UNL     1      -0.036  -5.526  -6.667  0.00  0.00    -0.122 NA
ATOM     20  N   UNL     1      -0.096  -6.484  -7.521  0.00  0.00    -0.128 NA
ATOM     21  C   UNL     1       0.055  -7.638  -6.912  0.00  0.00    +0.165 A 
ATOM     22  N   UNL     1       0.227  -7.368  -5.573  0.00  0.00    -0.305 N 
ATOM     23  C   UNL     1       0.438  -8.337  -4.495  0.00  0.00    +0.153 C 
BRANCH  21  24
ATOM     24  C   UNL     1       0.047  -8.973  -7.545  0.00  0.00    +0.019 A 
ATOM     25  C   UNL     1      -0.161 -10.115  -6.770  0.00  0.00    +0.011 A 
ATOM     26  C   UNL     1      -0.167 -11.359  -7.367  0.00  0.00    +0.001 A 
ATOM     27  C   UNL     1       0.032 -11.476  -8.731  0.00  0.00    +0.000 A 
ATOM     28  C   UNL     1       0.240 -10.348  -9.505  0.00  0.00    +0.001 A 
ATOM     29  C   UNL     1       0.243  -9.098  -8.921  0.00  0.00    +0.011 A 
ENDBRANCH  21  24
ENDBRANCH  17  18
ENDBRANCH  16  17
ENDBRANCH   8  16
TORSDOF 5
