REMARK  Name = ZINC39466761
REMARK  5 active torsions:
REMARK  status: ('A' for Active; 'I' for Inactive)
REMARK    1  A    between atoms: C_1  and  C_2
REMARK    2  A    between atoms: C_2  and  O_3
REMARK    3  A    between atoms: O_3  and  C_4
REMARK    4  A    between atoms: P_20  and  C_23
REMARK    5  A    between atoms: C_23  and  C_24
REMARK                            x       y       z     vdW  Elec       q    Type
REMARK                         _______ _______ _______ _____ _____    ______ ____
ROOT
ATOM      1  C   UNL     1       0.777  -1.810  -1.336  0.00  0.00    +0.152 C 
ATOM      2  C   UNL     1       0.262  -2.641  -0.421  0.00  0.00    +0.024 C 
ATOM      3  C   UNL     1       0.387  -4.123  -0.641  0.00  0.00    +0.008 C 
ATOM      4  C   UNL     1      -0.674  -4.898   0.130  0.00  0.00    -0.046 C 
ATOM      5  N   UNL     1      -0.488  -6.345  -0.080  0.00  0.00    +0.397 N 
ATOM      6  C   UNL     1      -0.601  -6.699  -1.494  0.00  0.00    -0.020 C 
ATOM      7  C   UNL     1       0.411  -5.917  -2.344  0.00  0.00    -0.002 C 
ATOM      8  C   UNL     1       0.199  -4.421  -2.134  0.00  0.00    +0.019 C 
ATOM      9  C   UNL     1       1.189  -3.609  -2.921  0.00  0.00    +0.019 C 
ATOM     10  C   UNL     1       1.455  -2.364  -2.527  0.00  0.00    +0.161 C 
ATOM     11  F   UNL     1       2.345  -1.613  -3.212  0.00  0.00    -0.202 F 
ATOM     12  C   UNL     1      -0.308  -8.187  -1.726  0.00  0.00    +0.156 C 
ATOM     13  O   UNL     1      -1.276  -8.979  -1.014  0.00  0.00    -0.319 OA
ATOM     14  P   UNL     1      -1.529  -8.635   0.556  0.00  0.00    +0.262 P 
ATOM     15  O   UNL     1      -0.472  -9.246   1.392  0.00  0.00    -0.274 OA
ATOM     16  N   UNL     1      -1.472  -6.972   0.653  0.00  0.00    -0.291 NA
ATOM     17  H   UNL     1      -2.086  -6.465   1.208  0.00  0.00    +0.111 HD
ATOM     18  H   UNL     1       0.419  -6.621   0.267  0.00  0.00    -0.055 HD
ENDROOT
BRANCH   1  19
ATOM     19  O   UNL     1       0.671  -0.465  -1.174  0.00  0.00    -0.490 OA
BRANCH  19  21
ATOM     20  C   UNL     1      -0.019   1.526   0.010  0.00  0.00    +0.048 C 
ATOM     21  C   UNL     1       0.002  -0.004   0.002  0.00  0.00    +0.226 C 
ENDBRANCH  19  21
ENDBRANCH   1  19
BRANCH  14  22
ATOM     22  C   UNL     1      -3.170  -9.234   1.077  0.00  0.00    +0.147 C 
BRANCH  22  23
ATOM     23  C   UNL     1      -3.246 -10.727   0.882  0.00  0.00    -0.037 A 
ATOM     24  C   UNL     1      -3.688 -11.245  -0.320  0.00  0.00    +0.004 A 
ATOM     25  C   UNL     1      -3.757 -12.614  -0.499  0.00  0.00    +0.000 A 
ATOM     26  C   UNL     1      -3.383 -13.465   0.524  0.00  0.00    +0.000 A 
ATOM     27  C   UNL     1      -2.939 -12.946   1.726  0.00  0.00    +0.000 A 
ATOM     28  C   UNL     1      -2.866 -11.577   1.904  0.00  0.00    +0.004 A 
ENDBRANCH  22  23
ENDBRANCH  14  22
TORSDOF 4
