REMARK  Name = ZINC09387276
REMARK  10 active torsions:
REMARK  status: ('A' for Active; 'I' for Inactive)
REMARK    1  A    between atoms: C_1  and  C_2
REMARK    2  A    between atoms: C_7  and  O_8
REMARK    3  A    between atoms: O_8  and  C_9
REMARK    4  A    between atoms: C_9  and  C_10
REMARK    5  A    between atoms: N_12  and  C_13
REMARK    6  A    between atoms: N_12  and  C_20
REMARK    7  A    between atoms: C_13  and  C_14
REMARK    8  A    between atoms: C_21  and  N_36
REMARK    9  A    between atoms: N_22  and  C_29
REMARK   10  A    between atoms: C_29  and  C_30
REMARK                            x       y       z     vdW  Elec       q    Type
REMARK                         _______ _______ _______ _____ _____    ______ ____
ROOT
ATOM      1  C   UNL     1       4.861   1.422   0.389  0.00  0.00    +0.258 C 
ATOM      2  O   UNL     1       4.877   0.259   0.733  0.00  0.00    -0.271 OA
ATOM      3  N   UNL     1       5.972   1.988  -0.128  0.00  0.00    -0.257 N 
ENDROOT
BRANCH   3   4
ATOM      4  C   UNL     1       7.120   1.202  -0.363  0.00  0.00    +0.140 A 
ATOM      5  C   UNL     1       8.274   1.412   0.363  0.00  0.00    +0.128 A 
ATOM      6  N   UNL     1       9.376   0.627   0.113  0.00  0.00    -0.276 N 
ATOM      7  C   UNL     1       9.331  -0.328  -0.833  0.00  0.00    +0.331 A 
ATOM      8  O   UNL     1      10.317  -1.009  -1.042  0.00  0.00    -0.246 OA
ATOM      9  N   UNL     1       8.217  -0.543  -1.554  0.00  0.00    -0.273 N 
ATOM     10  H   UNL     1       8.210  -1.259  -2.252  0.00  0.00    +0.173 HD
ATOM     11  C   UNL     1       7.109   0.195  -1.346  0.00  0.00    +0.277 A 
ATOM     12  O   UNL     1       6.103  -0.009  -2.005  0.00  0.00    -0.266 OA
BRANCH   5  13
ATOM     13  N   UNL     1       8.321   2.390   1.327  0.00  0.00    -0.343 N 
ATOM     14  H   UNL     1       7.518   2.880   1.560  0.00  0.00    +0.144 HD
ATOM     15  H   UNL     1       9.159   2.591   1.773  0.00  0.00    +0.144 HD
ENDBRANCH   5  13
BRANCH   6  16
ATOM     16  C   UNL     1      10.607   0.835   0.880  0.00  0.00    +0.163 C 
BRANCH  16  17
ATOM     17  C   UNL     1      11.473   1.846   0.174  0.00  0.00    -0.028 A 
ATOM     18  C   UNL     1      12.405   1.428  -0.757  0.00  0.00    +0.005 A 
ATOM     19  C   UNL     1      13.196   2.356  -1.408  0.00  0.00    +0.000 A 
ATOM     20  C   UNL     1      13.063   3.701  -1.119  0.00  0.00    +0.000 A 
ATOM     21  C   UNL     1      12.135   4.119  -0.184  0.00  0.00    +0.000 A 
ATOM     22  C   UNL     1      11.340   3.192   0.463  0.00  0.00    +0.005 A 
ENDBRANCH  16  17
ENDBRANCH   6  16
ENDBRANCH   3   4
BRANCH   1  23
ATOM     23  C   UNL     1       3.601   2.235   0.540  0.00  0.00    +0.325 C 
BRANCH  23  24
ATOM     24  O   UNL     1       2.586   1.433   1.144  0.00  0.00    -0.482 OA
BRANCH  24  31
ATOM     25  C   UNL     1       0.563  -0.138   2.338  0.00  0.00    +0.047 C 
ATOM     26  C   UNL     1       0.346   1.298   1.935  0.00  0.00    -0.009 A 
ATOM     27  C   UNL     1      -0.883   1.896   2.141  0.00  0.00    +0.007 A 
ATOM     28  C   UNL     1      -1.081   3.214   1.776  0.00  0.00    +0.000 A 
ATOM     29  C   UNL     1      -0.054   3.935   1.195  0.00  0.00    +0.004 A 
ATOM     30  C   UNL     1       1.174   3.341   0.983  0.00  0.00    +0.046 A 
ATOM     31  C   UNL     1       1.378   2.019   1.353  0.00  0.00    +0.124 A 
ENDBRANCH  24  31
ENDBRANCH  23  24
ENDBRANCH   1  23
BRANCH   3  32
ATOM     32  C   UNL     1       5.985   3.418  -0.445  0.00  0.00    +0.149 C 
BRANCH  32  33
ATOM     33  C   UNL     1       5.661   3.612  -1.904  0.00  0.00    -0.030 A 
ATOM     34  C   UNL     1       6.666   3.539  -2.851  0.00  0.00    +0.005 A 
ATOM     35  C   UNL     1       6.368   3.712  -4.190  0.00  0.00    +0.000 A 
ATOM     36  C   UNL     1       5.067   3.968  -4.581  0.00  0.00    +0.000 A 
ATOM     37  C   UNL     1       4.064   4.047  -3.634  0.00  0.00    +0.000 A 
ATOM     38  C   UNL     1       4.361   3.868  -2.296  0.00  0.00    +0.005 A 
ENDBRANCH  32  33
ENDBRANCH   3  32
TORSDOF 9
