REMARK  Name = ZINC01040807
REMARK  5 active torsions:
REMARK  status: ('A' for Active; 'I' for Inactive)
REMARK    1  A    between atoms: C_1  and  C_2
REMARK    2  A    between atoms: C_2  and  C_15
REMARK    3  A    between atoms: C_7  and  C_13
REMARK    4  A    between atoms: C_10  and  S_11
REMARK    5  A    between atoms: S_11  and  C_12
REMARK                            x       y       z     vdW  Elec       q    Type
REMARK                         _______ _______ _______ _____ _____    ______ ____
ROOT
ATOM      1  C   UNL     1       4.146   2.413  -1.457  0.00  0.00    +0.060 C 
ATOM      2  C   UNL     1       3.673   2.183  -0.021  0.00  0.00    +0.152 C 
ATOM      3  N   UNL     1       3.509   3.471   0.679  0.00  0.00    -0.202 NA
ATOM      4  N   UNL     1       4.380   3.437   1.736  0.00  0.00    -0.193 N 
ATOM      5  C   UNL     1       5.063   2.240   1.743  0.00  0.00    +0.158 C 
ATOM      6  N   UNL     1       4.699   1.469   0.751  0.00  0.00    -0.238 NA
ATOM      7  C   UNL     1       6.052   2.022   2.818  0.00  0.00    +0.111 C 
ATOM      8  C   UNL     1       6.230   3.038   3.752  0.00  0.00    +0.135 C 
ATOM      9  N   UNL     1       5.524   4.155   3.659  0.00  0.00    -0.231 NA
ATOM     10  C   UNL     1       4.639   4.362   2.705  0.00  0.00    +0.176 C 
ATOM     11  H   UNL     1       2.559   3.591   0.998  0.00  0.00    +0.148 HD
ENDROOT
BRANCH   2  12
ATOM     12  C   UNL     1       2.378   1.412  -0.013  0.00  0.00    -0.003 A 
ATOM     13  C   UNL     1       2.397   0.029  -0.021  0.00  0.00    +0.009 A 
ATOM     14  C   UNL     1       1.210  -0.679  -0.013  0.00  0.00    +0.022 A 
ATOM     15  C   UNL     1       0.002  -0.004   0.002  0.00  0.00    +0.059 A 
ATOM     16  C   UNL     1      -0.017   1.380   0.010  0.00  0.00    +0.060 A 
ATOM     17  C   UNL     1       1.172   2.087   0.002  0.00  0.00    +0.028 A 
ATOM     18 CL   UNL     1      -1.532   2.228   0.021  0.00  0.00    -0.082 Cl
ATOM     19 CL   UNL     1      -1.489  -0.893   0.011  0.00  0.00    -0.082 Cl
ENDBRANCH   2  12
BRANCH  10  20
ATOM     20  S   UNL     1       3.757   5.888   2.681  0.00  0.00    -0.092 S 
ATOM     21  C   UNL     1       4.477   6.690   4.135  0.00  0.00    +0.093 C 
ENDBRANCH  10  20
BRANCH   7  22
ATOM     22  C   UNL     1       6.803   0.805   2.896  0.00  0.00    +0.104 C 
ATOM     23  N   UNL     1       7.399  -0.160   2.958  0.00  0.00    -0.191 NA
ENDBRANCH   7  22
TORSDOF 3
