REMARK  Name = ZINC02549839
REMARK  3 active torsions:
REMARK  status: ('A' for Active; 'I' for Inactive)
REMARK    1  A    between atoms: C_12  and  S_15
REMARK    2  A    between atoms: S_15  and  C_16
REMARK    3  A    between atoms: C_16  and  C_17
REMARK                            x       y       z     vdW  Elec       q    Type
REMARK                         _______ _______ _______ _____ _____    ______ ____
ROOT
ATOM      1  C   UNL     1      -0.323  10.199   0.386  0.00  0.00    +0.001 A 
ATOM      2  C   UNL     1      -0.989  10.518   1.559  0.00  0.00    +0.002 A 
ATOM      3  C   UNL     1      -1.451   9.524   2.396  0.00  0.00    +0.026 A 
ATOM      4  C   UNL     1      -1.250   8.188   2.067  0.00  0.00    +0.050 A 
ATOM      5  C   UNL     1      -0.576   7.867   0.879  0.00  0.00    +0.029 A 
ATOM      6  C   UNL     1      -0.115   8.881   0.043  0.00  0.00    +0.012 A 
ATOM      7  C   UNL     1      -0.524   6.396   0.816  0.00  0.00    +0.137 A 
ATOM      8  C   UNL     1      -1.175   5.926   1.976  0.00  0.00    +0.162 A 
ATOM      9  N   UNL     1      -1.598   7.009   2.706  0.00  0.00    -0.338 N 
ATOM     10  H   UNL     1      -2.074   6.956   3.550  0.00  0.00    +0.167 HD
ATOM     11  N   UNL     1      -1.270   4.613   2.158  0.00  0.00    -0.201 NA
ATOM     12  C   UNL     1      -0.746   3.793   1.256  0.00  0.00    +0.212 A 
ATOM     13  N   UNL     1      -0.138   4.259   0.171  0.00  0.00    -0.122 NA
ATOM     14  N   UNL     1      -0.027   5.524  -0.050  0.00  0.00    -0.143 NA
ENDROOT
BRANCH  12  15
ATOM     15  S   UNL     1      -0.865   2.051   1.499  0.00  0.00    -0.069 S 
BRANCH  15  16
ATOM     16  C   UNL     1      -0.018   1.468   0.010  0.00  0.00    +0.195 C 
BRANCH  16  17
ATOM     17  C   UNL     1       0.002  -0.004   0.002  0.00  0.00    +0.074 C 
ATOM     18  N   UNL     1       0.018  -1.140  -0.004  0.00  0.00    -0.196 NA
ENDBRANCH  16  17
ENDBRANCH  15  16
ENDBRANCH  12  15
TORSDOF 3
