REMARK  Name = ZINC61888230
REMARK  5 active torsions:
REMARK  status: ('A' for Active; 'I' for Inactive)
REMARK    1  A    between atoms: C_6  and  S_7
REMARK    2  A    between atoms: S_7  and  N_10
REMARK    3  A    between atoms: N_10  and  C_11
REMARK    4  A    between atoms: C_16  and  C_18
REMARK    5  A    between atoms: N_19  and  O_20
REMARK                            x       y       z     vdW  Elec       q    Type
REMARK                         _______ _______ _______ _____ _____    ______ ____
ROOT
ATOM      1  N   UNL     1      -1.791  -1.109  -1.517  0.00  0.00    -0.186 NA
ATOM      2  H   UNL     1      -2.632  -0.725  -1.809  0.00  0.00    +0.148 HD
ENDROOT
BRANCH   1   3
ATOM      3  C   UNL     1      -0.962  -1.862  -2.462  0.00  0.00    +0.087 C 
ATOM      4  C   UNL     1      -1.484  -3.304  -2.589  0.00  0.00    +0.021 C 
ATOM      5  C   UNL     1      -1.880  -3.500  -4.067  0.00  0.00    +0.002 C 
ATOM      6  C   UNL     1      -2.152  -2.065  -4.582  0.00  0.00    +0.013 C 
ATOM      7  C   UNL     1      -1.057  -1.232  -3.866  0.00  0.00    +0.074 C 
BRANCH   7   8
ATOM      8  C   UNL     1      -1.472   0.213  -3.769  0.00  0.00    +0.136 C 
ATOM      9  N   UNL     1      -0.577   1.145  -3.781  0.00  0.00    -0.076 NA
ATOM     10  N   UNL     1      -2.806   0.541  -3.668  0.00  0.00    -0.344 N 
ATOM     11  H   UNL     1      -3.478  -0.158  -3.659  0.00  0.00    +0.144 HD
ATOM     12  H   UNL     1      -3.073   1.472  -3.606  0.00  0.00    +0.144 HD
BRANCH   9  13
ATOM     13  O   UNL     1       0.798   0.805  -3.777  0.00  0.00    -0.408 OA
ATOM     14  H   UNL     1       1.391   1.566  -3.710  0.00  0.00    +0.328 HD
ENDBRANCH   9  13
ENDBRANCH   7   8
ENDBRANCH   1   3
BRANCH   1  15
ATOM     15  S   UNL     1      -1.291  -0.914   0.050  0.00  0.00    +0.059 S 
ATOM     16  O   UNL     1      -0.938  -2.205   0.528  0.00  0.00    -0.153 OA
ATOM     17  O   UNL     1      -2.269  -0.106   0.690  0.00  0.00    -0.153 OA
BRANCH  15  23
ATOM     18  C   UNL     1       0.138   1.411   0.070  0.00  0.00    +0.029 A 
ATOM     19  C   UNL     1       1.304   2.154   0.038  0.00  0.00    +0.017 A 
ATOM     20  C   UNL     1       2.527   1.515  -0.056  0.00  0.00    +0.018 A 
ATOM     21  C   UNL     1       2.584   0.135  -0.118  0.00  0.00    +0.017 A 
ATOM     22  C   UNL     1       1.418  -0.607  -0.086  0.00  0.00    +0.029 A 
ATOM     23  C   UNL     1       0.195   0.032   0.009  0.00  0.00    +0.105 A 
ATOM     24 BR   UNL     1       4.122   2.530  -0.101  0.00  0.00    -0.050 Br
ENDBRANCH  15  23
ENDBRANCH   1  15
TORSDOF 5
