REMARK  Name = ZINC32983120
REMARK  6 active torsions:
REMARK  status: ('A' for Active; 'I' for Inactive)
REMARK    1  A    between atoms: C_1  and  C_2
REMARK    2  A    between atoms: C_11  and  O_14
REMARK    3  A    between atoms: C_12  and  C_13
REMARK    4  A    between atoms: O_14  and  C_15
REMARK    5  A    between atoms: C_15  and  C_17
REMARK    6  A    between atoms: C_17  and  N_18
REMARK                            x       y       z     vdW  Elec       q    Type
REMARK                         _______ _______ _______ _____ _____    ______ ____
ROOT
ATOM      1  C   UNL     1       1.173   1.978   0.023  0.00  0.00    +0.330 C 
ATOM      2  O   UNL     1       2.193   1.337  -0.063  0.00  0.00    -0.249 OA
ENDROOT
BRANCH   1   3
ATOM      3  O   UNL     1      -0.016   1.354   0.009  0.00  0.00    -0.424 OA
BRANCH   3  14
ATOM      4  C   UNL     1      -0.038  -5.027   1.267  0.00  0.00    +0.045 C 
ATOM      5  C   UNL     1       0.052  -4.234  -0.012  0.00  0.00    -0.033 A 
ATOM      6  C   UNL     1       0.155  -4.858  -1.214  0.00  0.00    +0.096 A 
ATOM      7  C   UNL     1       0.238  -4.093  -2.396  0.00  0.00    +0.337 A 
ATOM      8  O   UNL     1       0.329  -4.665  -3.467  0.00  0.00    -0.245 OA
ATOM      9  O   UNL     1       0.220  -2.752  -2.371  0.00  0.00    -0.422 OA
ATOM     10  C   UNL     1       0.120  -2.070  -1.209  0.00  0.00    +0.146 A 
ATOM     11  C   UNL     1       0.033  -2.770   0.009  0.00  0.00    +0.021 A 
ATOM     12  C   UNL     1      -0.070  -2.067   1.214  0.00  0.00    +0.015 A 
ATOM     13  C   UNL     1      -0.085  -0.702   1.205  0.00  0.00    +0.047 A 
ATOM     14  C   UNL     1       0.001  -0.004   0.002  0.00  0.00    +0.138 A 
ATOM     15  C   UNL     1       0.097  -0.684  -1.201  0.00  0.00    +0.035 A 
ATOM     16  C   UNL     1       0.182   0.082  -2.497  0.00  0.00    +0.051 C 
ENDBRANCH   3  14
ENDBRANCH   1   3
BRANCH   1  17
ATOM     17  C   UNL     1       1.234   3.479   0.145  0.00  0.00    +0.238 C 
BRANCH  17  18
ATOM     18  N   UNL     1       2.633   3.913   0.136  0.00  0.00    -0.213 N 
ATOM     19  C   UNL     1       3.321   4.229  -0.980  0.00  0.00    +0.247 C 
ATOM     20  O   UNL     1       2.916   4.211  -2.123  0.00  0.00    -0.273 OA
ATOM     21  C   UNL     1       4.705   4.613  -0.506  0.00  0.00    +0.113 C 
ATOM     22  C   UNL     1       5.010   6.061  -0.876  0.00  0.00    +0.035 C 
ATOM     23  C   UNL     1       6.402   6.439  -0.363  0.00  0.00    +0.003 C 
ATOM     24  C   UNL     1       7.443   5.505  -0.985  0.00  0.00    +0.000 C 
ATOM     25  C   UNL     1       7.138   4.060  -0.585  0.00  0.00    +0.003 C 
ATOM     26  C   UNL     1       5.749   3.673  -1.098  0.00  0.00    +0.035 C 
ATOM     27  N   UNL     1       4.638   4.457   0.952  0.00  0.00    -0.285 N 
ATOM     28  C   UNL     1       3.386   4.050   1.235  0.00  0.00    +0.310 C 
ATOM     29  O   UNL     1       2.985   3.828   2.360  0.00  0.00    -0.252 OA
ATOM     30  H   UNL     1       5.524   4.669   1.569  0.00  0.00    +0.151 HD
ENDBRANCH  17  18
ENDBRANCH   1  17
TORSDOF 4
