REMARK  Name = ZINC39634782
REMARK  12 active torsions:
REMARK  status: ('A' for Active; 'I' for Inactive)
REMARK    1  A    between atoms: C_1  and  C_2
REMARK    2  A    between atoms: C_6  and  C_9
REMARK    3  A    between atoms: C_13  and  C_22
REMARK    4  A    between atoms: N_24  and  C_25
REMARK    5  A    between atoms: C_25  and  C_26
REMARK    6  A    between atoms: C_26  and  N_27
REMARK    7  A    between atoms: N_27  and  C_28
REMARK    8  A    between atoms: N_27  and  C_31
REMARK    9  A    between atoms: C_28  and  C_29
REMARK   10  A    between atoms: C_28  and  C_30
REMARK   11  A    between atoms: C_31  and  C_32
REMARK   12  A    between atoms: C_31  and  C_33
REMARK                            x       y       z     vdW  Elec       q    Type
REMARK                         _______ _______ _______ _____ _____    ______ ____
ROOT
ATOM      1  C   UNL     1      -0.957  -3.013   4.181  0.00  0.00    +0.252 C 
ATOM      2  O   UNL     1       0.005  -3.309   4.862  0.00  0.00    -0.270 OA
ATOM      3  N   UNL     1      -2.178  -3.488   4.497  0.00  0.00    -0.296 N 
ATOM      4  C   UNL     1      -3.458  -3.246   3.790  0.00  0.00    +0.121 C 
ATOM      5  C   UNL     1      -4.191  -4.605   3.832  0.00  0.00    +0.100 C 
ATOM      6  C   UNL     1      -3.588  -5.338   5.042  0.00  0.00    -0.004 C 
ATOM      7  C   UNL     1      -2.543  -4.376   5.626  0.00  0.00    +0.115 C 
ATOM      8  C   UNL     1      -4.672  -5.633   6.075  0.00  0.00    -0.010 C 
ATOM      9  C   UNL     1      -4.060  -6.413   7.242  0.00  0.00    -0.082 C 
ATOM     10  N   UNL     1      -3.477  -7.665   6.744  0.00  0.00    +0.379 N 
ATOM     11  C   UNL     1      -2.374  -7.371   5.822  0.00  0.00    -0.082 C 
ATOM     12  C   UNL     1      -2.914  -6.632   4.595  0.00  0.00    -0.010 C 
ATOM     13  H   UNL     1      -3.129  -8.205   7.522  0.00  0.00    -0.086 HD
ATOM     14  H   UNL     1      -4.186  -8.195   6.261  0.00  0.00    -0.086 HD
ENDROOT
BRANCH   1  20
ATOM     15  C   UNL     1      -0.870   1.566   2.190  0.00  0.00    +0.047 C 
ATOM     16  C   UNL     1      -0.746   0.071   2.043  0.00  0.00    -0.014 A 
ATOM     17  C   UNL     1      -0.472  -0.480   0.804  0.00  0.00    +0.009 A 
ATOM     18  C   UNL     1      -0.356  -1.850   0.658  0.00  0.00    +0.039 A 
ATOM     19  C   UNL     1      -0.512  -2.681   1.751  0.00  0.00    +0.138 A 
ATOM     20  C   UNL     1      -0.789  -2.133   3.008  0.00  0.00    +0.107 A 
ATOM     21  C   UNL     1      -0.899  -0.745   3.148  0.00  0.00    +0.141 A 
ATOM     22  F   UNL     1      -1.160  -0.205   4.359  0.00  0.00    -0.204 F 
ATOM     23  F   UNL     1      -0.399  -4.020   1.606  0.00  0.00    -0.205 F 
ENDBRANCH   1  20
BRANCH   5  24
ATOM     24  C   UNL     1      -3.933  -5.380   2.565  0.00  0.00    +0.218 C 
ATOM     25  O   UNL     1      -2.922  -5.177   1.925  0.00  0.00    -0.275 OA
ATOM     26  N   UNL     1      -4.825  -6.297   2.143  0.00  0.00    -0.317 N 
ATOM     27  H   UNL     1      -5.633  -6.459   2.655  0.00  0.00    +0.149 HD
BRANCH  26  28
ATOM     28  C   UNL     1      -4.575  -7.050   0.911  0.00  0.00    +0.085 C 
BRANCH  28  29
ATOM     29  C   UNL     1      -5.732  -8.018   0.661  0.00  0.00    -0.059 C 
BRANCH  29  30
ATOM     30  N   UNL     1      -5.434  -8.845  -0.516  0.00  0.00    +0.384 N 
ATOM     31  H   UNL     1      -4.544  -9.304  -0.387  0.00  0.00    -0.081 HD
BRANCH  30  32
ATOM     32  C   UNL     1      -6.486  -9.856  -0.684  0.00  0.00    -0.074 C 
ATOM     33  C   UNL     1      -6.103 -10.807  -1.820  0.00  0.00    -0.014 C 
ATOM     34  C   UNL     1      -6.644 -10.649   0.614  0.00  0.00    -0.014 C 
ENDBRANCH  30  32
BRANCH  30  35
ATOM     35  C   UNL     1      -5.377  -7.993  -1.711  0.00  0.00    -0.074 C 
ATOM     36  C   UNL     1      -6.374  -6.842  -1.565  0.00  0.00    -0.014 C 
ATOM     37  C   UNL     1      -3.964  -7.428  -1.868  0.00  0.00    -0.014 C 
ENDBRANCH  30  35
ENDBRANCH  29  30
ENDBRANCH  28  29
ENDBRANCH  26  28
ENDBRANCH   5  24
TORSDOF 7
