REMARK  Name = ZINC35990997
REMARK  10 active torsions:
REMARK  status: ('A' for Active; 'I' for Inactive)
REMARK    1  A    between atoms: C_1  and  C_2
REMARK    2  A    between atoms: C_2  and  N_3
REMARK    3  A    between atoms: C_4  and  C_24
REMARK    4  A    between atoms: C_5  and  C_19
REMARK    5  A    between atoms: C_6  and  C_11
REMARK    6  A    between atoms: C_19  and  O_21
REMARK    7  A    between atoms: O_21  and  C_22
REMARK    8  A    between atoms: C_22  and  C_23
REMARK    9  A    between atoms: C_24  and  N_25
REMARK   10  A    between atoms: C_30  and  C_32
REMARK                            x       y       z     vdW  Elec       q    Type
REMARK                         _______ _______ _______ _____ _____    ______ ____
ROOT
ATOM      1  N   UNL     1       0.754  -0.418  -1.361  0.00  0.00    -0.261 N 
ATOM      2  C   UNL     1      -0.067  -0.887  -2.347  0.00  0.00    +0.010 C 
ATOM      3  C   UNL     1       0.433  -1.538  -3.419  0.00  0.00    +0.076 C 
ATOM      4  C   UNL     1       1.935  -1.729  -3.491  0.00  0.00    +0.143 C 
ATOM      5  N   UNL     1       2.731  -1.186  -2.377  0.00  0.00    -0.288 N 
ATOM      6  C   UNL     1       2.085  -0.554  -1.376  0.00  0.00    +0.307 C 
ATOM      7  O   UNL     1       2.733  -0.099  -0.454  0.00  0.00    -0.252 OA
ATOM      8  H   UNL     1       3.696  -1.277  -2.366  0.00  0.00    +0.151 HD
ENDROOT
BRANCH   4   9
ATOM      9  C   UNL     1       2.424  -1.091  -4.765  0.00  0.00    -0.021 A 
ATOM     10  C   UNL     1       2.617   0.277  -4.824  0.00  0.00    +0.007 A 
ATOM     11  C   UNL     1       3.065   0.863  -5.992  0.00  0.00    +0.022 A 
ATOM     12  C   UNL     1       3.322   0.081  -7.104  0.00  0.00    +0.059 A 
ATOM     13  C   UNL     1       3.130  -1.289  -7.045  0.00  0.00    +0.060 A 
ATOM     14  C   UNL     1       2.686  -1.875  -5.873  0.00  0.00    +0.027 A 
ATOM     15 CL   UNL     1       3.452  -2.272  -8.440  0.00  0.00    -0.082 Cl
ATOM     16 CL   UNL     1       3.885   0.817  -8.572  0.00  0.00    -0.082 Cl
ENDBRANCH   4   9
BRANCH   1  18
ATOM     17  C   UNL     1       0.091   1.780  -0.519  0.00  0.00    +0.025 C 
ATOM     18  C   UNL     1       0.143   0.279  -0.227  0.00  0.00    +0.111 C 
ENDBRANCH   1  18
BRANCH   3  19
ATOM     19  C   UNL     1      -0.415  -2.025  -4.441  0.00  0.00    +0.339 C 
ATOM     20  O   UNL     1      -1.606  -1.775  -4.413  0.00  0.00    -0.245 OA
BRANCH  19  21
ATOM     21  O   UNL     1       0.095  -2.767  -5.446  0.00  0.00    -0.462 OA
BRANCH  21  22
ATOM     22  C   UNL     1      -0.819  -3.226  -6.443  0.00  0.00    +0.229 C 
ATOM     23  C   UNL     1      -0.063  -4.045  -7.491  0.00  0.00    +0.048 C 
ENDBRANCH  21  22
ENDBRANCH  19  21
ENDBRANCH   3  19
BRANCH   2  24
ATOM     24  C   UNL     1      -1.555  -0.675  -2.237  0.00  0.00    -0.026 C 
BRANCH  24  25
ATOM     25  N   UNL     1      -2.189  -1.904  -1.741  0.00  0.00    +0.385 N 
ATOM     26  C   UNL     1      -1.688  -2.202  -0.394  0.00  0.00    -0.078 C 
ATOM     27  C   UNL     1      -2.284  -3.524   0.095  0.00  0.00    -0.019 C 
ATOM     28  C   UNL     1      -3.810  -3.407   0.131  0.00  0.00    -0.003 C 
ATOM     29  C   UNL     1      -4.316  -3.023  -1.263  0.00  0.00    -0.016 C 
ATOM     30  C   UNL     1      -3.645  -1.720  -1.702  0.00  0.00    -0.071 C 
ATOM     31  C   UNL     1      -4.147  -1.332  -3.094  0.00  0.00    -0.013 C 
ATOM     32  H   UNL     1      -1.964  -2.670  -2.358  0.00  0.00    -0.081 HD
ENDBRANCH  24  25
ENDBRANCH   2  24
TORSDOF 7
