REMARK  Name = ZINC39634732
REMARK  13 active torsions:
REMARK  status: ('A' for Active; 'I' for Inactive)
REMARK    1  A    between atoms: C_1  and  C_2
REMARK    2  A    between atoms: C_2  and  C_3
REMARK    3  A    between atoms: C_2  and  N_4
REMARK    4  A    between atoms: N_4  and  C_5
REMARK    5  A    between atoms: N_4  and  C_34
REMARK    6  A    between atoms: C_5  and  C_6
REMARK    7  A    between atoms: C_6  and  N_7
REMARK    8  A    between atoms: C_8  and  C_10
REMARK    9  A    between atoms: C_21  and  C_23
REMARK   10  A    between atoms: C_26  and  O_29
REMARK   11  A    between atoms: O_29  and  C_30
REMARK   12  A    between atoms: C_34  and  C_35
REMARK   13  A    between atoms: C_34  and  C_36
REMARK                            x       y       z     vdW  Elec       q    Type
REMARK                         _______ _______ _______ _____ _____    ______ ____
ROOT
ATOM      1  C   UNL     1      -4.409   2.941  -4.619  0.00  0.00    +0.100 C 
ATOM      2  C   UNL     1      -5.832   2.518  -4.193  0.00  0.00    +0.121 C 
ATOM      3  N   UNL     1      -6.463   3.766  -3.703  0.00  0.00    -0.296 N 
ATOM      4  C   UNL     1      -5.988   4.812  -4.641  0.00  0.00    +0.115 C 
ATOM      5  C   UNL     1      -4.516   4.446  -4.915  0.00  0.00    -0.004 C 
ATOM      6  C   UNL     1      -4.166   4.724  -6.374  0.00  0.00    -0.010 C 
ATOM      7  C   UNL     1      -4.223   6.233  -6.630  0.00  0.00    -0.082 C 
ATOM      8  N   UNL     1      -3.277   6.918  -5.740  0.00  0.00    +0.379 N 
ATOM      9  C   UNL     1      -3.675   6.722  -4.341  0.00  0.00    -0.082 C 
ATOM     10  C   UNL     1      -3.595   5.234  -3.989  0.00  0.00    -0.010 C 
ATOM     11  C   UNL     1      -7.283   3.917  -2.644  0.00  0.00    +0.247 C 
ATOM     12  O   UNL     1      -7.499   2.977  -1.904  0.00  0.00    -0.270 OA
ATOM     13  H   UNL     1      -2.352   6.541  -5.881  0.00  0.00    -0.086 HD
ATOM     14  H   UNL     1      -3.272   7.904  -5.953  0.00  0.00    -0.086 HD
ENDROOT
BRANCH  11  15
ATOM     15  C   UNL     1      -7.919   5.223  -2.383  0.00  0.00    +0.037 A 
ATOM     16  C   UNL     1      -8.050   6.157  -3.414  0.00  0.00    +0.016 A 
ATOM     17  C   UNL     1      -8.644   7.374  -3.166  0.00  0.00    +0.047 A 
ATOM     18  C   UNL     1      -9.113   7.675  -1.893  0.00  0.00    +0.130 A 
ATOM     19  C   UNL     1      -8.984   6.749  -0.864  0.00  0.00    +0.047 A 
ATOM     20  C   UNL     1      -8.396   5.527  -1.105  0.00  0.00    +0.016 A 
BRANCH  18  21
ATOM     21  O   UNL     1      -9.697   8.876  -1.652  0.00  0.00    -0.406 OA
BRANCH  21  22
ATOM     22  C   UNL     1     -10.156   9.120  -0.321  0.00  0.00    +0.575 C 
ATOM     23  F   UNL     1      -9.076   9.042   0.566  0.00  0.00    -0.133 F 
ATOM     24  F   UNL     1     -10.727  10.395  -0.251  0.00  0.00    -0.133 F 
ATOM     25  F   UNL     1     -11.113   8.160   0.025  0.00  0.00    -0.133 F 
ENDBRANCH  21  22
ENDBRANCH  18  21
ENDBRANCH  11  15
BRANCH   1  27
ATOM     26  N   UNL     1      -2.118   2.559  -3.769  0.00  0.00    -0.317 N 
ATOM     27  C   UNL     1      -3.431   2.695  -3.499  0.00  0.00    +0.218 C 
ATOM     28  O   UNL     1      -3.826   2.620  -2.355  0.00  0.00    -0.275 OA
ATOM     29  H   UNL     1      -1.802   2.619  -4.684  0.00  0.00    +0.149 HD
BRANCH  26  30
ATOM     30  C   UNL     1      -1.167   2.320  -2.680  0.00  0.00    +0.085 C 
BRANCH  30  31
ATOM     31  C   UNL     1       0.247   2.204  -3.253  0.00  0.00    -0.059 C 
BRANCH  31  32
ATOM     32  N   UNL     1       1.175   1.798  -2.189  0.00  0.00    +0.384 N 
ATOM     33  H   UNL     1       0.834   0.957  -1.748  0.00  0.00    -0.081 HD
BRANCH  32  35
ATOM     34  C   UNL     1       1.030   4.221  -1.865  0.00  0.00    -0.014 C 
ATOM     35  C   UNL     1       1.273   2.870  -1.190  0.00  0.00    -0.074 C 
ATOM     36  C   UNL     1       0.222   2.648  -0.100  0.00  0.00    -0.014 C 
ENDBRANCH  32  35
BRANCH  32  37
ATOM     37  C   UNL     1       2.501   1.544  -2.767  0.00  0.00    -0.074 C 
ATOM     38  C   UNL     1       3.425   0.971  -1.691  0.00  0.00    -0.014 C 
ATOM     39  C   UNL     1       2.374   0.542  -3.916  0.00  0.00    -0.014 C 
ENDBRANCH  32  37
ENDBRANCH  31  32
ENDBRANCH  30  31
ENDBRANCH  26  30
ENDBRANCH   1  27
TORSDOF 9
