REMARK  Name = ZINC41584807
REMARK  5 active torsions:
REMARK  status: ('A' for Active; 'I' for Inactive)
REMARK    1  A    between atoms: C_1  and  C_2
REMARK    2  A    between atoms: C_2  and  C_4
REMARK    3  A    between atoms: C_9  and  O_32
REMARK    4  A    between atoms: C_10  and  C_15
REMARK    5  A    between atoms: C_15  and  N_16
REMARK                            x       y       z     vdW  Elec       q    Type
REMARK                         _______ _______ _______ _____ _____    ______ ____
ROOT
ATOM      1  C   UNL     1      -1.255  -0.753   0.010  0.00  0.00    +0.102 A 
ATOM      2  C   UNL     1      -1.269  -2.147   0.009  0.00  0.00    +0.030 A 
ATOM      3  C   UNL     1      -2.523  -2.800  -0.015  0.00  0.00    +0.019 A 
ATOM      4  C   UNL     1      -2.605  -4.189   0.183  0.00  0.00    +0.015 A 
ATOM      5  C   UNL     1      -3.822  -4.801   0.200  0.00  0.00    +0.046 A 
ATOM      6  C   UNL     1      -4.990  -4.060   0.014  0.00  0.00    +0.122 A 
ATOM      7  C   UNL     1      -4.928  -2.692  -0.203  0.00  0.00    +0.020 A 
ATOM      8  C   UNL     1      -3.699  -2.054  -0.231  0.00  0.00    +0.144 A 
ATOM      9  O   UNL     1      -3.625  -0.726  -0.486  0.00  0.00    -0.421 OA
ATOM     10  C   UNL     1      -2.559  -0.063   0.026  0.00  0.00    +0.348 A 
ATOM     11  O   UNL     1      -2.671   1.061   0.479  0.00  0.00    -0.244 OA
ENDROOT
BRANCH   1  13
ATOM     12  C   UNL     1      -0.018   1.503   0.010  0.00  0.00    +0.092 C 
ATOM     13  C   UNL     1       0.002  -0.004   0.002  0.00  0.00    +0.167 C 
ATOM     14  O   UNL     1       1.061  -0.597  -0.011  0.00  0.00    -0.292 OA
ENDBRANCH   1  13
BRANCH   6  15
ATOM     15  O   UNL     1      -6.194  -4.683   0.045  0.00  0.00    -0.506 OA
ATOM     16  H   UNL     1      -6.594  -4.724   0.925  0.00  0.00    +0.292 HD
ENDBRANCH   6  15
BRANCH   7  17
ATOM     17  C   UNL     1      -6.195  -1.902  -0.408  0.00  0.00    -0.036 C 
BRANCH  17  18
ATOM     18  N   UNL     1      -6.690  -1.425   0.890  0.00  0.00    +0.383 N 
ATOM     19  C   UNL     1      -7.848  -0.551   0.678  0.00  0.00    -0.073 C 
ATOM     20  C   UNL     1      -8.396  -0.035   2.000  0.00  0.00    -0.007 C 
ATOM     21  C   UNL     1      -8.752  -1.198   2.930  0.00  0.00    +0.011 C 
ATOM     22  C   UNL     1      -7.490  -2.051   3.103  0.00  0.00    +0.020 C 
ATOM     23  C   UNL     1      -7.079  -2.576   1.718  0.00  0.00    -0.069 C 
ATOM     24  C   UNL     1      -6.370  -1.176   3.621  0.00  0.00    +0.023 A 
ATOM     25  C   UNL     1      -5.411  -1.768   4.381  0.00  0.00    +0.022 A 
ATOM     26  C   UNL     1      -4.313  -1.032   4.840  0.00  0.00    +0.007 A 
ATOM     27  C   UNL     1      -4.209   0.283   4.490  0.00  0.00    +0.070 A 
ATOM     28  C   UNL     1      -5.213   0.861   3.702  0.00  0.00    +0.251 A 
ATOM     29  O   UNL     1      -5.099   2.019   3.332  0.00  0.00    -0.268 OA
ATOM     30  N   UNL     1      -6.310   0.148   3.347  0.00  0.00    -0.312 N 
ATOM     31  C   UNL     1      -7.403   0.874   2.706  0.00  0.00    +0.126 C 
ATOM     32  H   UNL     1      -5.961  -0.907   1.357  0.00  0.00    -0.081 HD
ENDBRANCH  17  18
ENDBRANCH   7  17
TORSDOF 4
