REMARK  Name = ZINC11966430
REMARK  9 active torsions:
REMARK  status: ('A' for Active; 'I' for Inactive)
REMARK    1  A    between atoms: C_1  and  C_2
REMARK    2  A    between atoms: C_2  and  C_15
REMARK    3  A    between atoms: N_5  and  C_9
REMARK    4  A    between atoms: C_9  and  C_10
REMARK    5  A    between atoms: C_20  and  C_21
REMARK    6  A    between atoms: C_20  and  N_57
REMARK    7  A    between atoms: C_24  and  O_28
REMARK    8  A    between atoms: C_25  and  O_27
REMARK    9  A    between atoms: O_28  and  C_29
REMARK                            x       y       z     vdW  Elec       q    Type
REMARK                         _______ _______ _______ _____ _____    ______ ____
ROOT
ATOM      1  C   UNL     1       2.133   0.035   1.302  0.00  0.00    +0.018 C 
ATOM      2  C   UNL     1       0.704  -0.513   1.263  0.00  0.00    -0.013 C 
ATOM      3  C   UNL     1       0.002  -0.004   0.002  0.00  0.00    -0.078 C 
ATOM      4  C   UNL     1       1.344   2.014   0.000  0.00  0.00    -0.078 C 
ATOM      5  C   UNL     1       2.086   1.565   1.261  0.00  0.00    -0.013 C 
ATOM      6  N   UNL     1      -0.032   1.474   0.035  0.00  0.00    +0.382 N 
ATOM      7  H   UNL     1      -0.487   1.777   0.904  0.00  0.00    -0.081 HD
ENDROOT
BRANCH   1   9
ATOM      8  C   UNL     1       2.904  -1.947   2.644  0.00  0.00    +0.042 C 
ATOM      9  C   UNL     1       2.820  -0.420   2.591  0.00  0.00    +0.112 C 
ATOM     10  C   UNL     1       4.200   0.197   2.707  0.00  0.00    +0.247 C 
ATOM     11  O   UNL     1       5.135   0.047   1.950  0.00  0.00    -0.273 OA
ATOM     12  N   UNL     1       4.172   0.945   3.827  0.00  0.00    -0.220 N 
ATOM     13  C   UNL     1       2.978   0.887   4.429  0.00  0.00    +0.310 C 
ATOM     14  O   UNL     1       2.711   1.479   5.457  0.00  0.00    -0.252 OA
ATOM     15  N   UNL     1       2.108   0.101   3.771  0.00  0.00    -0.285 N 
ATOM     16  H   UNL     1       1.190  -0.086   4.023  0.00  0.00    +0.151 HD
BRANCH  12  17
ATOM     17  C   UNL     1       5.307   1.726   4.324  0.00  0.00    +0.153 C 
BRANCH  17  18
ATOM     18  C   UNL     1       6.134   0.875   5.253  0.00  0.00    -0.023 A 
ATOM     19  C   UNL     1       7.176   0.110   4.763  0.00  0.00    +0.013 A 
ATOM     20  C   UNL     1       7.900  -0.644   5.626  0.00  0.00    +0.045 A 
ATOM     21  S   UNL     1       7.109  -0.283   7.185  0.00  0.00    -0.105 S 
ATOM     22  C   UNL     1       5.871   0.852   6.583  0.00  0.00    +0.050 A 
ENDBRANCH  17  18
ENDBRANCH  12  17
ENDBRANCH   1   9
BRANCH   6  23
ATOM     23  C   UNL     1      -0.804   1.986  -1.115  0.00  0.00    -0.043 C 
BRANCH  23  24
ATOM     24  C   UNL     1      -1.009   3.469  -0.940  0.00  0.00    -0.060 A 
ATOM     25  C   UNL     1      -2.116   3.937  -0.257  0.00  0.00    +0.005 A 
ATOM     26  C   UNL     1      -2.305   5.295  -0.088  0.00  0.00    +0.049 A 
ATOM     27  C   UNL     1      -1.391   6.193  -0.615  0.00  0.00    +0.161 A 
ATOM     28  C   UNL     1      -0.279   5.723  -1.308  0.00  0.00    +0.159 A 
ATOM     29  C   UNL     1      -0.092   4.359  -1.468  0.00  0.00    +0.051 A 
BRANCH  28  30
ATOM     30  O   UNL     1       0.622   6.599  -1.827  0.00  0.00    -0.503 OA
ATOM     31  H   UNL     1       0.423   6.878  -2.731  0.00  0.00    +0.292 HD
ENDBRANCH  28  30
BRANCH  27  32
ATOM     32  O   UNL     1      -1.578   7.530  -0.456  0.00  0.00    -0.491 OA
ATOM     33  C   UNL     1      -2.741   7.941   0.267  0.00  0.00    +0.277 C 
ENDBRANCH  27  32
ENDBRANCH  23  24
ENDBRANCH   6  23
TORSDOF 7
