REMARK  Name = ZINC36393725
REMARK  4 active torsions:
REMARK  status: ('A' for Active; 'I' for Inactive)
REMARK    1  A    between atoms: C_3  and  C_8
REMARK    2  A    between atoms: C_5  and  O_7
REMARK    3  A    between atoms: C_11  and  C_22
REMARK    4  A    between atoms: C_16  and  C_18
REMARK                            x       y       z     vdW  Elec       q    Type
REMARK                         _______ _______ _______ _____ _____    ______ ____
ROOT
ATOM      1  C   UNL     1       3.671   2.190  -0.021  0.00  0.00    +0.147 C 
ATOM      2  C   UNL     1       3.748   3.082   1.224  0.00  0.00    +0.087 C 
ATOM      3  C   UNL     1       2.883   4.301   1.070  0.00  0.00    +0.055 C 
ATOM      4  N   UNL     1       2.696   4.890  -0.082  0.00  0.00    -0.215 NA
ATOM      5  C   UNL     1       3.245   4.338  -1.196  0.00  0.00    +0.250 A 
ATOM      6  N   UNL     1       3.722   3.054  -1.201  0.00  0.00    -0.221 N 
ATOM      7  N   UNL     1       4.211   2.814  -2.481  0.00  0.00    -0.143 NA
ATOM      8  C   UNL     1       4.001   3.906  -3.177  0.00  0.00    +0.256 A 
ATOM      9  N   UNL     1       3.413   4.823  -2.401  0.00  0.00    -0.186 NA
ENDROOT
BRANCH   3  10
ATOM     10  C   UNL     1       2.222   4.852   2.261  0.00  0.00    +0.000 A 
ATOM     11  C   UNL     1       2.408   4.249   3.510  0.00  0.00    +0.013 A 
ATOM     12  C   UNL     1       1.786   4.768   4.623  0.00  0.00    +0.050 A 
ATOM     13  C   UNL     1       0.974   5.891   4.513  0.00  0.00    +0.162 A 
ATOM     14  C   UNL     1       0.787   6.499   3.274  0.00  0.00    +0.163 A 
ATOM     15  C   UNL     1       1.410   5.987   2.151  0.00  0.00    +0.059 A 
ATOM     16  O   UNL     1       0.001   7.604   3.152  0.00  0.00    -0.485 OA
ATOM     17  C   UNL     1      -0.900   7.875   4.231  0.00  0.00    +0.270 C 
ATOM     18  C   UNL     1      -0.131   7.723   5.550  0.00  0.00    +0.270 C 
ATOM     19  O   UNL     1       0.368   6.384   5.627  0.00  0.00    -0.485 OA
ENDBRANCH   3  10
BRANCH   1  22
ATOM     20  C   UNL     1      -0.017   1.377   0.010  0.00  0.00    +0.004 A 
ATOM     21  C   UNL     1       1.171   2.086   0.002  0.00  0.00    +0.006 A 
ATOM     22  C   UNL     1       2.379   1.415  -0.013  0.00  0.00    -0.019 A 
ATOM     23  C   UNL     1       2.403   0.033  -0.021  0.00  0.00    +0.051 A 
ATOM     24  C   UNL     1       1.214  -0.680  -0.013  0.00  0.00    +0.117 A 
ATOM     25  C   UNL     1       0.002  -0.004   0.002  0.00  0.00    +0.045 A 
BRANCH  24  26
ATOM     26  O   UNL     1       1.235  -2.039  -0.021  0.00  0.00    -0.507 OA
ATOM     27  H   UNL     1       1.249  -2.437   0.860  0.00  0.00    +0.292 HD
ENDBRANCH  24  26
ENDBRANCH   1  22
BRANCH   8  28
ATOM     28  C   UNL     1       4.369   4.099  -4.625  0.00  0.00    +0.454 C 
ATOM     29  F   UNL     1       3.214   4.035  -5.412  0.00  0.00    -0.163 F 
ATOM     30  F   UNL     1       4.976   5.349  -4.790  0.00  0.00    -0.163 F 
ATOM     31  F   UNL     1       5.258   3.093  -5.019  0.00  0.00    -0.163 F 
ENDBRANCH   8  28
TORSDOF 4
