REMARK  Name = ZINC08951207
REMARK  7 active torsions:
REMARK  status: ('A' for Active; 'I' for Inactive)
REMARK    1  A    between atoms: C_4  and  C_7
REMARK    2  A    between atoms: C_10  and  C_12
REMARK    3  A    between atoms: C_18  and  C_37
REMARK    4  A    between atoms: C_19  and  C_26
REMARK    5  A    between atoms: C_21  and  C_24
REMARK    6  A    between atoms: C_22  and  N_23
REMARK    7  A    between atoms: C_29  and  C_31
REMARK                            x       y       z     vdW  Elec       q    Type
REMARK                         _______ _______ _______ _____ _____    ______ ____
ROOT
ATOM      1  C   UNL     1       7.702   8.767   1.674  0.00  0.00    +0.066 C 
ATOM      2  C   UNL     1       6.373   8.721   1.365  0.00  0.00    +0.082 A 
ATOM      3  C   UNL     1       5.726   8.671   0.054  0.00  0.00    +0.271 A 
ATOM      4  O   UNL     1       6.389   8.668  -0.967  0.00  0.00    -0.266 OA
ATOM      5  N   UNL     1       4.380   8.630   0.001  0.00  0.00    -0.256 N 
ATOM      6  C   UNL     1       3.691   8.637   1.199  0.00  0.00    +0.104 A 
ATOM      7  C   UNL     1       2.338   8.599   1.305  0.00  0.00    +0.075 C 
ATOM      8  C   UNL     1       1.519   8.546   0.031  0.00  0.00    +0.142 C 
ATOM      9  C   UNL     1       2.314   8.538  -1.259  0.00  0.00    +0.083 C 
ATOM     10  C   UNL     1       3.659   8.581  -1.198  0.00  0.00    +0.119 C 
ATOM     11  S   UNL     1       4.956   8.703   2.452  0.00  0.00    -0.065 S 
ENDROOT
BRANCH   1  15
ATOM     12  C   UNL     1       8.040   8.857   5.221  0.00  0.00    +0.136 A 
ATOM     13  C   UNL     1       9.360   8.888   4.872  0.00  0.00    +0.050 A 
ATOM     14  C   UNL     1       9.418   8.859   3.476  0.00  0.00    +0.050 A 
ATOM     15  C   UNL     1       8.111   8.810   3.024  0.00  0.00    +0.130 A 
ATOM     16  O   UNL     1       7.297   8.815   4.100  0.00  0.00    -0.455 OA
BRANCH  12  20
ATOM     17  C   UNL     1       6.529   8.899   9.189  0.00  0.00    +0.000 A 
ATOM     18  C   UNL     1       5.653   8.850   8.119  0.00  0.00    +0.001 A 
ATOM     19  C   UNL     1       6.137   8.836   6.827  0.00  0.00    +0.011 A 
ATOM     20  C   UNL     1       7.515   8.872   6.600  0.00  0.00    +0.017 A 
ATOM     21  C   UNL     1       8.394   8.916   7.686  0.00  0.00    +0.011 A 
ATOM     22  C   UNL     1       7.896   8.936   8.972  0.00  0.00    +0.001 A 
ENDBRANCH  12  20
ENDBRANCH   1  15
BRANCH   8  23
ATOM     23  C   UNL     1       0.669   7.302   0.069  0.00  0.00    +0.119 A 
ATOM     24  C   UNL     1      -0.678   7.271   0.083  0.00  0.00    +0.046 A 
ATOM     25  C   UNL     1      -1.059   5.914   0.114  0.00  0.00    +0.050 A 
ATOM     26  C   UNL     1       0.088   5.185   0.126  0.00  0.00    +0.135 A 
ATOM     27  O   UNL     1       1.129   6.040   0.096  0.00  0.00    -0.459 OA
BRANCH  26  28
ATOM     28  C   UNL     1       0.179   3.710   0.161  0.00  0.00    +0.017 A 
ATOM     29  C   UNL     1       1.426   3.084   0.164  0.00  0.00    +0.011 A 
ATOM     30  C   UNL     1       1.504   1.707   0.195  0.00  0.00    +0.001 A 
ATOM     31  C   UNL     1       0.348   0.947   0.224  0.00  0.00    +0.000 A 
ATOM     32  C   UNL     1      -0.892   1.561   0.215  0.00  0.00    +0.001 A 
ATOM     33  C   UNL     1      -0.983   2.937   0.190  0.00  0.00    +0.011 A 
ENDBRANCH  26  28
ENDBRANCH   8  23
BRANCH  10  34
ATOM     34  N   UNL     1       4.364   8.575  -2.377  0.00  0.00    -0.343 N 
ATOM     35  H   UNL     1       5.260   8.204  -2.405  0.00  0.00    +0.144 HD
ATOM     36  H   UNL     1       3.965   8.942  -3.182  0.00  0.00    +0.144 HD
ENDBRANCH  10  34
BRANCH   9  37
ATOM     37  C   UNL     1       1.647   8.486  -2.525  0.00  0.00    +0.099 C 
ATOM     38  N   UNL     1       1.119   8.445  -3.530  0.00  0.00    -0.191 NA
ENDBRANCH   9  37
BRANCH   7  39
ATOM     39  C   UNL     1       1.702   8.610   2.588  0.00  0.00    +0.098 C 
ATOM     40  N   UNL     1       1.197   8.619   3.606  0.00  0.00    -0.191 NA
ENDBRANCH   7  39
TORSDOF 7
