REMARK  Name = ZINC14982085
REMARK  5 active torsions:
REMARK  status: ('A' for Active; 'I' for Inactive)
REMARK    1  A    between atoms: C_1  and  C_2
REMARK    2  A    between atoms: C_3  and  C_7
REMARK    3  A    between atoms: C_16  and  C_20
REMARK    4  A    between atoms: C_20  and  C_22
REMARK    5  A    between atoms: C_20  and  O_28
REMARK                            x       y       z     vdW  Elec       q    Type
REMARK                         _______ _______ _______ _____ _____    ______ ____
ROOT
ATOM      1  C   UNL     1       2.215  -1.305   2.069  0.00  0.00    +0.271 C 
ATOM      2  O   UNL     1       2.799  -1.009   3.092  0.00  0.00    -0.268 OA
ATOM      3  N   UNL     1       2.309  -0.510   0.985  0.00  0.00    -0.288 N 
ATOM      4  C   UNL     1       3.012   0.770   1.081  0.00  0.00    +0.149 C 
ATOM      5  C   UNL     1       2.065   1.937   0.843  0.00  0.00    +0.248 C 
ATOM      6  O   UNL     1       1.502   1.854  -0.472  0.00  0.00    -0.490 OA
ATOM      7  C   UNL     1       0.355   1.141  -0.578  0.00  0.00    +0.125 A 
ATOM      8  C   UNL     1      -0.853   1.791  -0.798  0.00  0.00    +0.046 A 
ATOM      9  C   UNL     1      -2.027   1.064  -0.848  0.00  0.00    +0.010 A 
ATOM     10  C   UNL     1      -2.007  -0.308  -0.680  0.00  0.00    -0.018 A 
ATOM     11  C   UNL     1      -0.804  -0.962  -0.477  0.00  0.00    +0.015 A 
ATOM     12  C   UNL     1       0.366  -0.240  -0.443  0.00  0.00    +0.012 A 
ATOM     13  C   UNL     1       1.706  -0.934  -0.283  0.00  0.00    +0.147 C 
ENDROOT
BRANCH   1  16
ATOM     14  C   UNL     1       1.904  -3.693   4.388  0.00  0.00    +0.072 C 
ATOM     15  C   UNL     1       1.256  -3.599   3.031  0.00  0.00    +0.114 A 
ATOM     16  C   UNL     1       1.399  -2.542   2.013  0.00  0.00    +0.191 A 
ATOM     17  N   UNL     1       0.625  -2.974   1.040  0.00  0.00    -0.044 NA
ATOM     18  O   UNL     1       0.124  -4.024   1.368  0.00  0.00    -0.242 OA
ATOM     19  N   UNL     1       0.425  -4.434   2.464  0.00  0.00    -0.053 NA
ENDBRANCH   1  16
BRANCH  10  20
ATOM     20  C   UNL     1      -3.295  -1.091  -0.718  0.00  0.00    +0.148 C 
BRANCH  20  21
ATOM     21  C   UNL     1      -4.003  -0.974   0.633  0.00  0.00    +0.022 C 
ATOM     22  C   UNL     1      -3.098  -1.533   1.733  0.00  0.00    +0.006 C 
ATOM     23  C   UNL     1      -3.807  -1.416   3.084  0.00  0.00    +0.000 C 
ATOM     24  C   UNL     1      -5.113  -2.211   3.046  0.00  0.00    +0.000 C 
ATOM     25  C   UNL     1      -6.018  -1.652   1.946  0.00  0.00    +0.000 C 
ATOM     26  C   UNL     1      -5.310  -1.769   0.594  0.00  0.00    +0.006 C 
ENDBRANCH  20  21
BRANCH  20  27
ATOM     27  O   UNL     1      -4.139  -0.569  -1.746  0.00  0.00    -0.387 OA
ATOM     28  H   UNL     1      -4.375   0.361  -1.626  0.00  0.00    +0.210 HD
ENDBRANCH  20  27
ENDBRANCH  10  20
TORSDOF 4
