REMARK  Name = ZINC66614112
REMARK  4 active torsions:
REMARK  status: ('A' for Active; 'I' for Inactive)
REMARK    1  A    between atoms: C_4  and  C_7
REMARK    2  A    between atoms: C_19  and  C_21
REMARK    3  A    between atoms: N_23  and  N_24
REMARK    4  A    between atoms: C_25  and  C_27
REMARK                            x       y       z     vdW  Elec       q    Type
REMARK                         _______ _______ _______ _____ _____    ______ ____
ROOT
ATOM      1  C   UNL     1       3.670  -0.671  -0.019  0.00  0.00    +0.247 C 
ATOM      2  O   UNL     1       4.702  -0.037  -0.121  0.00  0.00    -0.270 OA
ATOM      3  N   UNL     1       3.710  -2.015   0.066  0.00  0.00    -0.283 N 
ATOM      4  C   UNL     1       4.919  -2.836   0.168  0.00  0.00    +0.080 C 
ATOM      5  C   UNL     1       6.110  -2.224  -0.535  0.00  0.00    +0.023 C 
ATOM      6  C   UNL     1       5.896  -2.176  -2.048  0.00  0.00    +0.002 C 
ATOM      7  C   UNL     1       5.676  -3.607  -2.551  0.00  0.00    +0.000 C 
ATOM      8  C   UNL     1       4.400  -4.157  -1.919  0.00  0.00    +0.005 C 
ATOM      9  C   UNL     1       4.538  -4.211  -0.411  0.00  0.00    +0.012 C 
ATOM     10  C   UNL     1       3.089  -4.363   0.147  0.00  0.00    +0.037 C 
ATOM     11  C   UNL     1       2.545  -2.918   0.078  0.00  0.00    +0.164 C 
ENDROOT
BRANCH   1  15
ATOM     12  C   UNL     1      -0.065   1.351   0.071  0.00  0.00    +0.000 A 
ATOM     13  C   UNL     1       0.934   1.788  -0.781  0.00  0.00    +0.001 A 
ATOM     14  C   UNL     1       2.150   1.136  -0.815  0.00  0.00    +0.013 A 
ATOM     15  C   UNL     1       2.370   0.033   0.013  0.00  0.00    +0.037 A 
ATOM     16  C   UNL     1       1.358  -0.402   0.870  0.00  0.00    +0.013 A 
ATOM     17  C   UNL     1       0.147   0.259   0.893  0.00  0.00    +0.001 A 
ENDBRANCH   1  15
BRANCH  11  18
ATOM     18  C   UNL     1       1.741  -2.735  -1.183  0.00  0.00    +0.250 C 
ATOM     19  O   UNL     1       2.151  -2.010  -2.064  0.00  0.00    -0.272 OA
ATOM     20  N   UNL     1       0.565  -3.378  -1.332  0.00  0.00    -0.233 N 
ATOM     21  H   UNL     1       0.237  -3.958  -0.627  0.00  0.00    +0.173 HD
BRANCH  20  22
ATOM     22  N   UNL     1      -0.183  -3.208  -2.504  0.00  0.00    -0.232 N 
ATOM     23  C   UNL     1      -1.358  -3.850  -2.653  0.00  0.00    +0.258 C 
ATOM     24  O   UNL     1      -1.768  -4.576  -1.772  0.00  0.00    -0.271 OA
ATOM     25  H   UNL     1       0.146  -2.628  -3.209  0.00  0.00    +0.173 HD
BRANCH  23  26
ATOM     26  C   UNL     1      -2.163  -3.667  -3.914  0.00  0.00    +0.205 C 
ATOM     27  C   UNL     1      -2.644  -2.204  -4.021  0.00  0.00    +0.043 C 
ATOM     28  C   UNL     1      -4.081  -2.370  -4.585  0.00  0.00    +0.031 C 
ATOM     29  C   UNL     1      -4.512  -3.696  -3.907  0.00  0.00    +0.161 C 
ATOM     30  O   UNL     1      -3.324  -4.505  -3.875  0.00  0.00    -0.367 OA
ENDBRANCH  23  26
ENDBRANCH  20  22
ENDBRANCH  11  18
TORSDOF 4
