REMARK  Name = ZINC36550969
REMARK  7 active torsions:
REMARK  status: ('A' for Active; 'I' for Inactive)
REMARK    1  A    between atoms: C_1  and  N_2
REMARK    2  A    between atoms: N_2  and  C_3
REMARK    3  A    between atoms: N_2  and  S_9
REMARK    4  A    between atoms: S_9  and  C_12
REMARK    5  A    between atoms: C_25  and  C_28
REMARK    6  A    between atoms: C_31  and  O_35
REMARK    7  A    between atoms: C_33  and  O_34
REMARK                            x       y       z     vdW  Elec       q    Type
REMARK                         _______ _______ _______ _____ _____    ______ ____
ROOT
ATOM      1  C   UNL     1      -0.344  -1.689  -2.143  0.00  0.00    +0.109 A 
ATOM      2  C   UNL     1       0.538  -1.401  -3.169  0.00  0.00    +0.030 A 
ATOM      3  C   UNL     1       1.085  -2.422  -3.918  0.00  0.00    +0.025 A 
ATOM      4  C   UNL     1       0.759  -3.745  -3.647  0.00  0.00    +0.031 A 
ATOM      5  C   UNL     1      -0.125  -4.029  -2.600  0.00  0.00    -0.018 A 
ATOM      6  C   UNL     1      -0.669  -3.002  -1.859  0.00  0.00    +0.034 A 
ATOM      7  C   UNL     1      -0.416  -5.452  -2.319  0.00  0.00    +0.049 C 
ATOM      8  C   UNL     1      -1.694  -5.884  -1.697  0.00  0.00    -0.023 C 
ATOM      9  C   UNL     1      -1.998  -7.094  -2.150  0.00  0.00    -0.030 C 
ATOM     10  C   UNL     1      -0.942  -7.557  -3.155  0.00  0.00    +0.033 C 
ATOM     11  C   UNL     1      -0.429  -6.213  -3.679  0.00  0.00    +0.029 C 
ATOM     12  C   UNL     1       1.006  -6.186  -4.172  0.00  0.00    +0.108 C 
ATOM     13  N   UNL     1       1.310  -4.763  -4.435  0.00  0.00    -0.336 N 
ATOM     14  H   UNL     1       1.903  -4.530  -5.167  0.00  0.00    +0.147 HD
ENDROOT
BRANCH  12  15
ATOM     15  C   UNL     1       1.931  -6.732  -3.114  0.00  0.00    +0.015 A 
ATOM     16  C   UNL     1       2.565  -5.869  -2.240  0.00  0.00    +0.012 A 
ATOM     17  C   UNL     1       3.413  -6.366  -1.269  0.00  0.00    +0.046 A 
ATOM     18  C   UNL     1       3.630  -7.734  -1.170  0.00  0.00    +0.120 A 
ATOM     19  C   UNL     1       2.995  -8.601  -2.045  0.00  0.00    +0.091 A 
ATOM     20  C   UNL     1       2.140  -8.100  -3.015  0.00  0.00    +0.125 A 
BRANCH  20  21
ATOM     21  O   UNL     1       1.512  -8.947  -3.871  0.00  0.00    -0.506 OA
ATOM     22  H   UNL     1       2.009  -9.130  -4.680  0.00  0.00    +0.292 HD
ENDBRANCH  20  21
BRANCH  18  23
ATOM     23  O   UNL     1       4.465  -8.222  -0.215  0.00  0.00    -0.507 OA
ATOM     24  H   UNL     1       4.027  -8.430   0.621  0.00  0.00    +0.292 HD
ENDBRANCH  18  23
ENDBRANCH  12  15
BRANCH   1  25
ATOM     25  S   UNL     1      -1.049  -0.382  -1.194  0.00  0.00    +0.074 S 
ATOM     26  O   UNL     1      -2.171  -0.931  -0.517  0.00  0.00    -0.150 OA
ATOM     27  O   UNL     1      -1.156   0.738  -2.062  0.00  0.00    -0.150 OA
BRANCH  25  29
ATOM     28  C   UNL     1       1.141   0.957  -0.343  0.00  0.00    +0.157 C 
ATOM     29  N   UNL     1       0.054   0.026  -0.029  0.00  0.00    -0.206 N 
BRANCH  29  30
ATOM     30  C   UNL     1      -0.052  -0.516   1.254  0.00  0.00    +0.051 A 
ATOM     31  C   UNL     1       0.188  -1.869   1.460  0.00  0.00    +0.025 A 
ATOM     32  C   UNL     1       0.083  -2.402   2.729  0.00  0.00    +0.002 A 
ATOM     33  C   UNL     1      -0.261  -1.591   3.795  0.00  0.00    +0.000 A 
ATOM     34  C   UNL     1      -0.501  -0.244   3.594  0.00  0.00    +0.002 A 
ATOM     35  C   UNL     1      -0.392   0.297   2.328  0.00  0.00    +0.025 A 
ENDBRANCH  29  30
ENDBRANCH  25  29
ENDBRANCH   1  25
TORSDOF 6
