REMARK  Name = ZINC08156553
REMARK  4 active torsions:
REMARK  status: ('A' for Active; 'I' for Inactive)
REMARK    1  A    between atoms: C_1  and  O_2
REMARK    2  A    between atoms: O_2  and  C_3
REMARK    3  A    between atoms: C_6  and  N_9
REMARK    4  A    between atoms: C_10  and  C_21
REMARK                            x       y       z     vdW  Elec       q    Type
REMARK                         _______ _______ _______ _____ _____    ______ ____
ROOT
ATOM      1  N   UNL     1      -1.180  -0.508   0.701  0.00  0.00    -0.244 N 
ATOM      2  C   UNL     1      -0.021   0.061   0.013  0.00  0.00    +0.198 C 
ATOM      3  N   UNL     1       1.221  -0.406   0.639  0.00  0.00    -0.321 N 
ATOM      4  C   UNL     1       1.303  -0.432   2.027  0.00  0.00    +0.041 A 
ATOM      5  C   UNL     1       2.510  -0.289   2.689  0.00  0.00    +0.024 A 
ATOM      6  C   UNL     1       2.545  -0.349   4.069  0.00  0.00    +0.002 A 
ATOM      7  C   UNL     1       1.381  -0.554   4.795  0.00  0.00    +0.001 A 
ATOM      8  C   UNL     1       0.170  -0.695   4.150  0.00  0.00    +0.015 A 
ATOM      9  C   UNL     1       0.118  -0.623   2.760  0.00  0.00    +0.058 A 
ATOM     10  C   UNL     1      -1.151  -0.762   2.025  0.00  0.00    +0.254 C 
ATOM     11  O   UNL     1      -2.163  -1.102   2.607  0.00  0.00    -0.270 OA
ATOM     12  H   UNL     1       1.972  -0.691   0.095  0.00  0.00    +0.148 HD
ENDROOT
BRANCH   2  13
ATOM     13  C   UNL     1      -0.084   1.565   0.091  0.00  0.00    -0.005 A 
ATOM     14  C   UNL     1      -1.310   2.202   0.144  0.00  0.00    +0.011 A 
ATOM     15  C   UNL     1      -1.372   3.581   0.219  0.00  0.00    +0.050 A 
ATOM     16  C   UNL     1      -0.204   4.329   0.230  0.00  0.00    +0.162 A 
ATOM     17  C   UNL     1       1.028   3.689   0.174  0.00  0.00    +0.162 A 
ATOM     18  C   UNL     1       1.083   2.305   0.103  0.00  0.00    +0.056 A 
ATOM     19  O   UNL     1       2.186   4.404   0.193  0.00  0.00    -0.485 OA
ATOM     20  C   UNL     1       2.086   5.799  -0.110  0.00  0.00    +0.270 C 
ATOM     21  C   UNL     1       0.909   6.380   0.685  0.00  0.00    +0.270 C 
ATOM     22  O   UNL     1      -0.281   5.686   0.296  0.00  0.00    -0.485 OA
ENDBRANCH   2  13
BRANCH   1  26
ATOM     23  C   UNL     1      -4.634  -1.365  -1.472  0.00  0.00    +0.120 A 
ATOM     24  C   UNL     1      -3.429  -1.952  -1.826  0.00  0.00    +0.047 A 
ATOM     25  C   UNL     1      -2.284  -1.669  -1.107  0.00  0.00    +0.027 A 
ATOM     26  C   UNL     1      -2.340  -0.796  -0.029  0.00  0.00    +0.039 A 
ATOM     27  C   UNL     1      -3.549  -0.212   0.329  0.00  0.00    +0.027 A 
ATOM     28  C   UNL     1      -4.691  -0.492  -0.394  0.00  0.00    +0.047 A 
BRANCH  23  30
ATOM     29  C   UNL     1      -6.967  -1.004  -1.759  0.00  0.00    +0.277 C 
ATOM     30  O   UNL     1      -5.761  -1.645  -2.179  0.00  0.00    -0.495 OA
ENDBRANCH  23  30
ENDBRANCH   1  26
TORSDOF 3
