REMARK  Name = ZINC12374681
REMARK  2 active torsions:
REMARK  status: ('A' for Active; 'I' for Inactive)
REMARK    1  A    between atoms: C_6  and  C_7
REMARK    2  A    between atoms: C_8  and  C_13
REMARK                            x       y       z     vdW  Elec       q    Type
REMARK                         _______ _______ _______ _____ _____    ______ ____
ROOT
ATOM      1  C   UNL     1      -2.072   6.168  -1.504  0.00  0.00    +0.194 C 
ATOM      2  N   UNL     1      -2.387   7.128  -2.578  0.00  0.00    -0.316 N 
ATOM      3  C   UNL     1      -1.582   7.096  -3.688  0.00  0.00    +0.080 A 
ATOM      4  C   UNL     1      -0.845   5.963  -4.063  0.00  0.00    +0.068 A 
ATOM      5  C   UNL     1      -0.055   6.094  -5.277  0.00  0.00    -0.023 A 
ATOM      6  C   UNL     1      -0.118   7.298  -5.888  0.00  0.00    -0.005 A 
ATOM      7  S   UNL     1      -1.217   8.263  -4.885  0.00  0.00    -0.078 S 
ATOM      8  C   UNL     1       0.588   7.715  -7.141  0.00  0.00    +0.043 C 
ATOM      9  C   UNL     1       1.695   6.692  -7.436  0.00  0.00    +0.005 C 
ATOM     10  C   UNL     1       1.107   5.283  -7.316  0.00  0.00    +0.005 C 
ATOM     11  C   UNL     1       0.800   4.970  -5.851  0.00  0.00    +0.037 C 
ATOM     12  C   UNL     1      -0.954   4.760  -3.206  0.00  0.00    +0.248 C 
ATOM     13  O   UNL     1      -0.443   3.703  -3.528  0.00  0.00    -0.270 OA
ATOM     14  N   UNL     1      -1.642   4.885  -2.051  0.00  0.00    -0.289 N 
ATOM     15  H   UNL     1      -3.127   7.751  -2.503  0.00  0.00    +0.149 HD
ATOM     16  H   UNL     1      -1.862   4.079  -1.559  0.00  0.00    +0.151 HD
ENDROOT
BRANCH   1  18
ATOM     17  C   UNL     1      -0.739   6.429   0.711  0.00  0.00    +0.099 A 
ATOM     18  C   UNL     1      -0.970   6.732  -0.645  0.00  0.00    +0.036 A 
ATOM     19  C   UNL     1      -0.030   7.618  -1.038  0.00  0.00    +0.112 A 
ATOM     20  N   UNL     1       0.770   7.873   0.020  0.00  0.00    -0.284 N 
ATOM     21  H   UNL     1       1.557   8.490   0.025  0.00  0.00    +0.188 HD
ATOM     22  N   UNL     1       0.307   7.123   1.108  0.00  0.00    -0.174 NA
BRANCH  17  28
ATOM     23  C   UNL     1      -0.897   4.603   2.402  0.00  0.00    +0.011 A 
ATOM     24  C   UNL     1      -1.644   3.739   3.176  0.00  0.00    +0.020 A 
ATOM     25  C   UNL     1      -3.026   3.759   3.104  0.00  0.00    +0.041 A 
ATOM     26  C   UNL     1      -3.666   4.642   2.252  0.00  0.00    +0.020 A 
ATOM     27  C   UNL     1      -2.928   5.515   1.477  0.00  0.00    +0.011 A 
ATOM     28  C   UNL     1      -1.537   5.498   1.546  0.00  0.00    +0.003 A 
ATOM     29 CL   UNL     1      -3.959   2.668   4.080  0.00  0.00    -0.084 Cl
ENDBRANCH  17  28
ENDBRANCH   1  18
TORSDOF 2
