REMARK  Name = ZINC13209538
REMARK  6 active torsions:
REMARK  status: ('A' for Active; 'I' for Inactive)
REMARK    1  A    between atoms: C_1  and  N_2
REMARK    2  A    between atoms: C_6  and  S_8
REMARK    3  A    between atoms: S_8  and  C_9
REMARK    4  A    between atoms: C_9  and  C_10
REMARK    5  A    between atoms: N_12  and  C_13
REMARK    6  A    between atoms: C_18  and  C_19
REMARK                            x       y       z     vdW  Elec       q    Type
REMARK                         _______ _______ _______ _____ _____    ______ ____
ROOT
ATOM      1  C   UNL     1      -8.476  -0.600   2.421  0.00  0.00    +0.227 C 
ATOM      2  O   UNL     1      -8.787  -0.093   3.478  0.00  0.00    -0.275 OA
ATOM      3  N   UNL     1      -9.371  -1.346   1.743  0.00  0.00    -0.284 N 
ATOM      4  H   UNL     1      -9.146  -1.698   0.868  0.00  0.00    +0.155 HD
ENDROOT
BRANCH   3   5
ATOM      5  C   UNL     1     -10.620  -1.612   2.299  0.00  0.00    +0.048 A 
ATOM      6  C   UNL     1     -11.255  -0.654   3.078  0.00  0.00    +0.025 A 
ATOM      7  C   UNL     1     -12.493  -0.919   3.628  0.00  0.00    +0.017 A 
ATOM      8  C   UNL     1     -13.112  -2.140   3.409  0.00  0.00    +0.019 A 
ATOM      9  C   UNL     1     -12.496  -3.103   2.638  0.00  0.00    +0.032 A 
ATOM     10  C   UNL     1     -11.245  -2.847   2.071  0.00  0.00    +0.085 A 
ATOM     11 BR   UNL     1     -14.808  -2.486   4.170  0.00  0.00    -0.050 Br
BRANCH  10  12
ATOM     12  C   UNL     1     -10.584  -3.870   1.240  0.00  0.00    +0.388 C 
ATOM     13  O   UNL     1      -9.455  -3.684   0.832  0.00  0.00    -0.241 OA
ATOM     14  O   UNL     1     -11.232  -5.011   0.934  0.00  0.00    -0.241 OA
ENDBRANCH  10  12
ENDBRANCH   3   5
BRANCH   1  15
ATOM     15  C   UNL     1      -7.090  -0.397   1.866  0.00  0.00    +0.172 C 
BRANCH  15  16
ATOM     16  S   UNL     1      -6.131   0.644   3.000  0.00  0.00    -0.088 S 
BRANCH  16  22
ATOM     17  C   UNL     1      -0.050   1.159  -0.074  0.00  0.00    +0.127 C 
ATOM     18  N   UNL     1      -0.727   1.619   1.141  0.00  0.00    -0.325 N 
ATOM     19  C   UNL     1      -2.047   1.254   1.381  0.00  0.00    +0.182 A 
ATOM     20  N   UNL     1      -2.855   0.510   0.651  0.00  0.00    -0.125 NA
ATOM     21  N   UNL     1      -4.140   0.271   1.081  0.00  0.00    -0.133 NA
ATOM     22  C   UNL     1      -4.558   0.787   2.220  0.00  0.00    +0.160 A 
ATOM     23  S   UNL     1      -3.099   1.662   2.766  0.00  0.00    -0.025 S 
ATOM     24  H   UNL     1      -0.255   2.178   1.777  0.00  0.00    +0.148 HD
ENDBRANCH  16  22
ENDBRANCH  15  16
ENDBRANCH   1  15
TORSDOF 5
