REMARK  Name = ZINC30058333
REMARK  8 active torsions:
REMARK  status: ('A' for Active; 'I' for Inactive)
REMARK    1  A    between atoms: C_1  and  N_2
REMARK    2  A    between atoms: C_6  and  S_7
REMARK    3  A    between atoms: S_7  and  C_8
REMARK    4  A    between atoms: C_8  and  C_9
REMARK    5  A    between atoms: C_12  and  C_15
REMARK    6  A    between atoms: N_17  and  N_18
REMARK    7  A    between atoms: C_19  and  C_21
REMARK    8  A    between atoms: C_22  and  C_23
REMARK                            x       y       z     vdW  Elec       q    Type
REMARK                         _______ _______ _______ _____ _____    ______ ____
ROOT
ATOM      1  C   UNL     1      -2.392   0.960   0.019  0.00  0.00    +0.260 C 
ATOM      2  O   UNL     1      -2.375  -0.255   0.012  0.00  0.00    -0.269 OA
ATOM      3  N   UNL     1      -1.234   1.650   0.017  0.00  0.00    -0.230 N 
ATOM      4  H   UNL     1      -1.249   2.750   0.023  0.00  0.00    +0.173 HD
ENDROOT
BRANCH   1   8
ATOM      5  C   UNL     1      -6.099   3.034   0.048  0.00  0.00    -0.037 A 
ATOM      6  C   UNL     1      -6.083   1.650   0.040  0.00  0.00    +0.005 A 
ATOM      7  C   UNL     1      -4.883   0.971   0.030  0.00  0.00    +0.013 A 
ATOM      8  C   UNL     1      -3.682   1.682   0.029  0.00  0.00    +0.038 A 
ATOM      9  C   UNL     1      -3.704   3.077   0.042  0.00  0.00    +0.013 A 
ATOM     10  C   UNL     1      -4.912   3.745   0.046  0.00  0.00    +0.005 A 
BRANCH   5  11
ATOM     11  C   UNL     1      -7.414   3.769   0.059  0.00  0.00    +0.112 C 
BRANCH  11  12
ATOM     12  S   UNL     1      -7.932   4.055   1.770  0.00  0.00    -0.081 S 
BRANCH  12  18
ATOM     13  C   UNL     1     -10.146   5.274   3.901  0.00  0.00    +0.152 C 
ATOM     14  N   UNL     1     -10.304   5.374   2.448  0.00  0.00    -0.312 N 
ATOM     15  C   UNL     1     -11.336   5.959   1.768  0.00  0.00    +0.225 A 
ATOM     16  N   UNL     1     -11.089   5.824   0.496  0.00  0.00    -0.137 NA
ATOM     17  N   UNL     1      -9.976   5.202   0.327  0.00  0.00    -0.123 NA
ATOM     18  C   UNL     1      -9.450   4.905   1.492  0.00  0.00    +0.191 A 
ENDBRANCH  12  18
ENDBRANCH  11  12
ENDBRANCH   5  11
ENDBRANCH   1   8
BRANCH   3  19
ATOM     19  N   UNL     1      -0.011   0.966   0.007  0.00  0.00    -0.231 N 
ATOM     20  C   UNL     1       1.147   1.655   0.000  0.00  0.00    +0.253 C 
ATOM     21  O   UNL     1       1.130   2.874   0.007  0.00  0.00    -0.269 OA
ATOM     22  H   UNL     1       0.004  -0.134   0.006  0.00  0.00    +0.173 HD
BRANCH  20  23
ATOM     23  C   UNL     1       2.376   0.968  -0.015  0.00  0.00    +0.071 C 
ATOM     24  C   UNL     1       3.547   1.665  -0.023  0.00  0.00    +0.034 C 
BRANCH  24  25
ATOM     25  C   UNL     1       4.775   0.978  -0.038  0.00  0.00    +0.085 A 
ATOM     26  C   UNL     1       5.157  -0.050   0.809  0.00  0.00    +0.156 A 
ATOM     27  N   UNL     1       6.384  -0.428   0.466  0.00  0.00    -0.209 NA
ATOM     28  C   UNL     1       6.804   0.301  -0.537  0.00  0.00    +0.179 A 
ATOM     29  N   UNL     1       5.853   1.207  -0.913  0.00  0.00    -0.292 N 
ATOM     30  C   UNL     1       6.162   2.042  -1.961  0.00  0.00    +0.101 A 
ATOM     31  C   UNL     1       7.343   1.959  -2.574  0.00  0.00    +0.067 A 
ATOM     32  S   UNL     1       8.133   0.636  -1.671  0.00  0.00    -0.058 S 
ATOM     33 CL   UNL     1       4.200  -0.726   2.089  0.00  0.00    -0.060 Cl
ENDBRANCH  24  25
ENDBRANCH  20  23
ENDBRANCH   3  19
TORSDOF 7
