REMARK  Name = ZINC51679271
REMARK  11 active torsions:
REMARK  status: ('A' for Active; 'I' for Inactive)
REMARK    1  A    between atoms: C_1  and  C_2
REMARK    2  A    between atoms: C_2  and  N_3
REMARK    3  A    between atoms: N_3  and  C_4
REMARK    4  A    between atoms: N_3  and  C_11
REMARK    5  A    between atoms: C_4  and  C_5
REMARK    6  A    between atoms: C_11  and  C_12
REMARK    7  A    between atoms: N_14  and  C_15
REMARK    8  A    between atoms: C_15  and  C_16
REMARK    9  A    between atoms: C_19  and  O_22
REMARK   10  A    between atoms: O_22  and  C_23
REMARK   11  A    between atoms: C_23  and  C_24
REMARK                            x       y       z     vdW  Elec       q    Type
REMARK                         _______ _______ _______ _____ _____    ______ ____
ROOT
ATOM      1  C   UNL     1      -0.768  -2.178   1.782  0.00  0.00    +0.197 C 
ATOM      2  O   UNL     1      -0.303  -1.252   2.413  0.00  0.00    -0.278 OA
ATOM      3  N   UNL     1      -0.698  -3.431   2.274  0.00  0.00    -0.313 N 
ATOM      4  H   UNL     1      -1.069  -4.172   1.770  0.00  0.00    +0.149 HD
ENDROOT
BRANCH   1   5
ATOM      5  C   UNL     1      -1.424  -1.928   0.449  0.00  0.00    +0.019 C 
BRANCH   5   6
ATOM      6  N   UNL     1      -1.373  -0.493   0.139  0.00  0.00    +0.388 N 
ATOM      7  H   UNL     1      -1.788   0.029   0.896  0.00  0.00    -0.081 HD
BRANCH   6   9
ATOM      8  C   UNL     1       0.091   1.440  -0.205  0.00  0.00    -0.017 C 
ATOM      9  C   UNL     1       0.026  -0.079  -0.032  0.00  0.00    -0.081 C 
ENDBRANCH   6   9
BRANCH   6  10
ATOM     10  C   UNL     1      -2.116  -0.233  -1.101  0.00  0.00    -0.035 C 
BRANCH  10  11
ATOM     11  C   UNL     1      -3.577  -0.529  -0.882  0.00  0.00    -0.025 A 
ATOM     12  C   UNL     1      -4.540   0.269  -0.360  0.00  0.00    +0.011 A 
ATOM     13  C   UNL     1      -5.830  -0.218  -0.254  0.00  0.00    +0.028 A 
ATOM     14  C   UNL     1      -6.092  -1.481  -0.674  0.00  0.00    +0.078 A 
ATOM     15  S   UNL     1      -4.490  -2.018  -1.251  0.00  0.00    -0.084 S 
ATOM     16 CL   UNL     1      -7.597  -2.347  -0.663  0.00  0.00    -0.076 Cl
ENDBRANCH  10  11
ENDBRANCH   6  10
ENDBRANCH   5   6
ENDBRANCH   1   5
BRANCH   3  17
ATOM     17  C   UNL     1      -0.060  -3.674   3.571  0.00  0.00    +0.139 C 
BRANCH  17  18
ATOM     18  C   UNL     1      -0.113  -5.146   3.888  0.00  0.00    -0.030 A 
ATOM     19  C   UNL     1      -1.193  -5.666   4.577  0.00  0.00    +0.009 A 
ATOM     20  C   UNL     1      -1.244  -7.015   4.869  0.00  0.00    +0.046 A 
ATOM     21  C   UNL     1      -0.209  -7.849   4.472  0.00  0.00    +0.121 A 
ATOM     22  C   UNL     1       0.874  -7.325   3.781  0.00  0.00    +0.046 A 
ATOM     23  C   UNL     1       0.917  -5.976   3.486  0.00  0.00    +0.009 A 
BRANCH  21  24
ATOM     24  O   UNL     1      -0.256  -9.176   4.759  0.00  0.00    -0.483 OA
BRANCH  24  25
ATOM     25  C   UNL     1       0.845  -9.975   4.319  0.00  0.00    +0.324 C 
BRANCH  25  26
ATOM     26  C   UNL     1       0.619 -11.409   4.724  0.00  0.00    +0.248 C 
ATOM     27  O   UNL     1      -0.386 -11.716   5.330  0.00  0.00    -0.272 OA
ATOM     28  N   UNL     1       1.533 -12.349   4.413  0.00  0.00    -0.327 N 
ATOM     29  H   UNL     1       2.336 -12.102   3.928  0.00  0.00    +0.145 HD
ATOM     30  H   UNL     1       1.387 -13.272   4.674  0.00  0.00    +0.145 HD
ENDBRANCH  25  26
ENDBRANCH  24  25
ENDBRANCH  21  24
ENDBRANCH  17  18
ENDBRANCH   3  17
TORSDOF 10
