REMARK  Name = ZINC52013942
REMARK  8 active torsions:
REMARK  status: ('A' for Active; 'I' for Inactive)
REMARK    1  A    between atoms: C_3  and  O_8
REMARK    2  A    between atoms: O_8  and  C_9
REMARK    3  A    between atoms: C_9  and  C_10
REMARK    4  A    between atoms: C_10  and  C_12
REMARK    5  A    between atoms: C_10  and  O_23
REMARK    6  A    between atoms: C_12  and  N_13
REMARK    7  A    between atoms: N_13  and  C_14
REMARK    8  A    between atoms: C_20  and  O_22
REMARK                            x       y       z     vdW  Elec       q    Type
REMARK                         _______ _______ _______ _____ _____    ______ ____
ROOT
ATOM      1  C   UNL     1       5.958   2.291  -0.043  0.00  0.00    +0.135 C 
ENDROOT
BRANCH   1   2
ATOM      2  O   UNL     1       5.967   3.039  -1.261  0.00  0.00    -0.390 OA
ATOM      3  H   UNL     1       6.029   2.494  -2.057  0.00  0.00    +0.210 HD
ENDBRANCH   1   2
BRANCH   1   4
ATOM      4  C   UNL     1       4.757   1.343  -0.037  0.00  0.00    +0.258 C 
BRANCH   4   5
ATOM      5  O   UNL     1       3.548   2.105  -0.021  0.00  0.00    -0.489 OA
BRANCH   5   8
ATOM      6  C   UNL     1      -0.017   1.378   0.010  0.00  0.00    +0.005 A 
ATOM      7  C   UNL     1       1.170   2.087   0.002  0.00  0.00    +0.046 A 
ATOM      8  C   UNL     1       2.381   1.410  -0.013  0.00  0.00    +0.122 A 
ATOM      9  C   UNL     1       2.398   0.023  -0.021  0.00  0.00    +0.061 A 
ATOM     10  C   UNL     1       1.208  -0.682  -0.013  0.00  0.00    +0.021 A 
ATOM     11  C   UNL     1       0.002  -0.004   0.002  0.00  0.00    +0.015 A 
ATOM     12 BR   UNL     1       1.230  -2.573  -0.024  0.00  0.00    -0.050 Br
ENDBRANCH   5   8
ENDBRANCH   4   5
ENDBRANCH   1   4
BRANCH   1  13
ATOM     13  C   UNL     1       7.250   1.478   0.066  0.00  0.00    -0.047 C 
BRANCH  13  14
ATOM     14  N   UNL     1       8.395   2.392   0.179  0.00  0.00    +0.384 N 
ATOM     15  H   UNL     1       8.436   2.982  -0.638  0.00  0.00    -0.085 HD
ATOM     16  H   UNL     1       8.287   2.964   1.003  0.00  0.00    -0.085 HD
BRANCH  14  17
ATOM     17  C   UNL     1       9.635   1.611   0.284  0.00  0.00    -0.043 C 
ATOM     18  C   UNL     1       9.862   0.838  -1.016  0.00  0.00    -0.013 C 
ATOM     19  C   UNL     1      11.154   0.025  -0.907  0.00  0.00    -0.001 C 
ATOM     20  C   UNL     1      12.332   0.971  -0.664  0.00  0.00    +0.002 C 
ATOM     21  C   UNL     1      12.105   1.744   0.637  0.00  0.00    +0.030 C 
ATOM     22  C   UNL     1      10.813   2.557   0.527  0.00  0.00    +0.101 C 
BRANCH  22  23
ATOM     23  O   UNL     1      10.601   3.279   1.742  0.00  0.00    -0.393 OA
ATOM     24  H   UNL     1      11.310   3.899   1.960  0.00  0.00    +0.210 HD
ENDBRANCH  22  23
ENDBRANCH  14  17
ENDBRANCH  13  14
ENDBRANCH   1  13
TORSDOF 8
