REMARK  Name = ZINC33936013
REMARK  16 active torsions:
REMARK  status: ('A' for Active; 'I' for Inactive)
REMARK    1  A    between atoms: C_1  and  C_2
REMARK    2  A    between atoms: C_7  and  C_38
REMARK    3  A    between atoms: N_9  and  C_10
REMARK    4  A    between atoms: C_10  and  C_11
REMARK    5  A    between atoms: C_11  and  C_13
REMARK    6  A    between atoms: C_11  and  O_37
REMARK    7  A    between atoms: C_13  and  O_14
REMARK    8  A    between atoms: O_14  and  C_15
REMARK    9  A    between atoms: C_18  and  O_21
REMARK   10  A    between atoms: O_21  and  C_22
REMARK   11  A    between atoms: C_22  and  C_23
REMARK   12  A    between atoms: C_23  and  C_25
REMARK   13  A    between atoms: C_23  and  O_36
REMARK   14  A    between atoms: C_25  and  N_26
REMARK   15  A    between atoms: C_27  and  C_35
REMARK   16  A    between atoms: C_32  and  C_34
REMARK                            x       y       z     vdW  Elec       q    Type
REMARK                         _______ _______ _______ _____ _____    ______ ____
ROOT
ATOM      1  C   UNL     1       3.538  -0.570   2.901  0.00  0.00    +0.121 A 
ATOM      2  C   UNL     1       3.990   0.678   2.500  0.00  0.00    +0.049 A 
ATOM      3  C   UNL     1       5.301   1.045   2.731  0.00  0.00    +0.049 A 
ATOM      4  C   UNL     1       6.166   0.164   3.364  0.00  0.00    +0.121 A 
ATOM      5  C   UNL     1       5.714  -1.084   3.766  0.00  0.00    +0.049 A 
ATOM      6  C   UNL     1       4.401  -1.448   3.539  0.00  0.00    +0.049 A 
ENDROOT
BRANCH   1   7
ATOM      7  O   UNL     1       2.246  -0.931   2.674  0.00  0.00    -0.489 OA
BRANCH   7   8
ATOM      8  C   UNL     1       1.413   0.024   2.012  0.00  0.00    +0.258 C 
BRANCH   8   9
ATOM      9  C   UNL     1       0.007  -0.556   1.846  0.00  0.00    +0.135 C 
BRANCH   9  10
ATOM     10  O   UNL     1      -0.585  -0.747   3.133  0.00  0.00    -0.390 OA
ATOM     11  H   UNL     1      -0.601   0.050   3.680  0.00  0.00    +0.210 HD
ENDBRANCH   9  10
BRANCH   9  12
ATOM     12  C   UNL     1      -0.851   0.413   1.029  0.00  0.00    -0.043 C 
BRANCH  12  19
ATOM     13  C   UNL     1      -1.611  -1.022  -1.346  0.00  0.00    -0.013 C 
ATOM     14  C   UNL     1      -2.123  -1.369   0.053  0.00  0.00    -0.071 C 
ATOM     15  C   UNL     1      -3.513  -2.000  -0.055  0.00  0.00    -0.016 C 
ATOM     16  C   UNL     1      -4.469  -1.004  -0.718  0.00  0.00    -0.003 C 
ATOM     17  C   UNL     1      -4.482   0.294   0.095  0.00  0.00    -0.016 C 
ATOM     18  C   UNL     1      -3.057   0.840   0.198  0.00  0.00    -0.071 C 
ATOM     19  N   UNL     1      -2.199  -0.147   0.863  0.00  0.00    +0.385 N 
ATOM     20  C   UNL     1      -3.065   2.137   1.009  0.00  0.00    -0.013 C 
ATOM     21  H   UNL     1      -2.582  -0.368   1.769  0.00  0.00    -0.081 HD
ENDBRANCH  12  19
ENDBRANCH   9  12
ENDBRANCH   8   9
ENDBRANCH   7   8
ENDBRANCH   1   7
BRANCH   4  22
ATOM     22  O   UNL     1       7.458   0.524   3.591  0.00  0.00    -0.489 OA
BRANCH  22  23
ATOM     23  C   UNL     1       8.292  -0.432   4.247  0.00  0.00    +0.258 C 
BRANCH  23  24
ATOM     24  C   UNL     1       9.699   0.147   4.413  0.00  0.00    +0.135 C 
BRANCH  24  25
ATOM     25  O   UNL     1      10.288   0.344   3.127  0.00  0.00    -0.390 OA
ATOM     26  H   UNL     1      10.373  -0.467   2.605  0.00  0.00    +0.210 HD
ENDBRANCH  24  25
BRANCH  24  27
ATOM     27  C   UNL     1      10.558  -0.824   5.226  0.00  0.00    -0.043 C 
BRANCH  27  28
ATOM     28  N   UNL     1      11.846  -0.193   5.540  0.00  0.00    +0.385 N 
ATOM     29  C   UNL     1      12.610   0.001   4.302  0.00  0.00    -0.071 C 
ATOM     30  C   UNL     1      13.986   0.584   4.632  0.00  0.00    -0.016 C 
ATOM     31  C   UNL     1      13.807   1.931   5.340  0.00  0.00    -0.003 C 
ATOM     32  C   UNL     1      12.947   1.729   6.590  0.00  0.00    -0.016 C 
ATOM     33  C   UNL     1      11.609   1.103   6.187  0.00  0.00    -0.071 C 
ATOM     34  C   UNL     1      10.746   0.900   7.434  0.00  0.00    -0.013 C 
ATOM     35  C   UNL     1      12.784  -1.344   3.595  0.00  0.00    -0.013 C 
ATOM     36  H   UNL     1      12.368  -0.789   6.165  0.00  0.00    -0.081 HD
ENDBRANCH  27  28
ENDBRANCH  24  27
ENDBRANCH  23  24
ENDBRANCH  22  23
ENDBRANCH   4  22
TORSDOF 12
