REMARK  Name = ZINC11870259
REMARK  7 active torsions:
REMARK  status: ('A' for Active; 'I' for Inactive)
REMARK    1  A    between atoms: C_1  and  O_2
REMARK    2  A    between atoms: O_2  and  C_3
REMARK    3  A    between atoms: C_3  and  C_5
REMARK    4  A    between atoms: C_10  and  C_11
REMARK    5  A    between atoms: C_16  and  C_19
REMARK    6  A    between atoms: C_19  and  C_26
REMARK    7  A    between atoms: C_26  and  C_27
REMARK                            x       y       z     vdW  Elec       q    Type
REMARK                         _______ _______ _______ _____ _____    ______ ____
ROOT
ATOM      1  C   UNL     1      -2.753   0.505  -2.195  0.00  0.00    +0.247 C 
ATOM      2  O   UNL     1      -2.140   0.255  -3.215  0.00  0.00    -0.270 OA
ATOM      3  N   UNL     1      -2.174   1.240  -1.225  0.00  0.00    -0.297 N 
ATOM      4  C   UNL     1      -0.774   1.669  -1.345  0.00  0.00    +0.108 C 
ATOM      5  C   UNL     1      -0.015   1.231  -0.088  0.00  0.00    +0.025 C 
ATOM      6  C   UNL     1      -0.733   1.768   1.152  0.00  0.00    +0.025 C 
ATOM      7  C   UNL     1      -2.148   1.188   1.215  0.00  0.00    +0.025 C 
ATOM      8  C   UNL     1      -2.932   1.626  -0.026  0.00  0.00    +0.108 C 
ENDROOT
BRANCH   6   9
ATOM      9  C   UNL     1       0.043   1.361   2.406  0.00  0.00    +0.119 C 
ATOM     10  C   UNL     1       1.485   1.817   2.313  0.00  0.00    +0.245 C 
ATOM     11  O   UNL     1       1.889   2.957   2.220  0.00  0.00    -0.273 OA
ATOM     12  N   UNL     1       2.227   0.693   2.353  0.00  0.00    -0.238 N 
ATOM     13  C   UNL     1       1.461  -0.399   2.458  0.00  0.00    +0.307 C 
ATOM     14  O   UNL     1       1.901  -1.531   2.512  0.00  0.00    -0.252 OA
ATOM     15  N   UNL     1       0.149  -0.105   2.497  0.00  0.00    -0.284 N 
ATOM     16  H   UNL     1       3.196   0.677   2.311  0.00  0.00    +0.159 HD
ATOM     17  H   UNL     1      -0.585  -0.736   2.570  0.00  0.00    +0.151 HD
BRANCH   9  18
ATOM     18  C   UNL     1      -0.625   1.931   3.659  0.00  0.00    +0.073 C 
BRANCH  18  19
ATOM     19  C   UNL     1       0.157   1.517   4.878  0.00  0.00    -0.010 A 
ATOM     20  C   UNL     1      -0.222   0.397   5.594  0.00  0.00    +0.006 A 
ATOM     21  C   UNL     1       0.499   0.013   6.710  0.00  0.00    +0.000 A 
ATOM     22  C   UNL     1       1.592   0.755   7.117  0.00  0.00    +0.003 A 
ATOM     23  C   UNL     1       1.969   1.878   6.406  0.00  0.00    +0.038 A 
ATOM     24  C   UNL     1       1.251   2.261   5.285  0.00  0.00    +0.127 A 
ATOM     25  F   UNL     1       1.618   3.359   4.589  0.00  0.00    -0.205 F 
ENDBRANCH  18  19
ENDBRANCH   9  18
ENDBRANCH   6   9
BRANCH   1  31
ATOM     26  C   UNL     1      -4.385  -1.381  -1.991  0.00  0.00    +0.071 A 
ATOM     27  C   UNL     1      -5.689  -1.840  -1.820  0.00  0.00    +0.016 A 
ATOM     28  C   UNL     1      -6.727  -0.937  -1.692  0.00  0.00    +0.001 A 
ATOM     29  C   UNL     1      -6.480   0.424  -1.726  0.00  0.00    +0.001 A 
ATOM     30  C   UNL     1      -5.192   0.897  -1.889  0.00  0.00    +0.014 A 
ATOM     31  C   UNL     1      -4.133   0.003  -2.020  0.00  0.00    +0.051 A 
BRANCH  26  32
ATOM     32  C   UNL     1      -3.271  -2.343  -2.135  0.00  0.00    +0.340 C 
ATOM     33  O   UNL     1      -2.125  -1.943  -2.167  0.00  0.00    -0.245 OA
BRANCH  32  35
ATOM     34  C   UNL     1      -2.386  -4.547  -2.368  0.00  0.00    +0.280 C 
ATOM     35  O   UNL     1      -3.528  -3.662  -2.229  0.00  0.00    -0.464 OA
ENDBRANCH  32  35
ENDBRANCH  26  32
ENDBRANCH   1  31
TORSDOF 6
