REMARK  Name = ZINC22238303
REMARK  3 active torsions:
REMARK  status: ('A' for Active; 'I' for Inactive)
REMARK    1  A    between atoms: C_5  and  C_6
REMARK    2  A    between atoms: C_11  and  C_14
REMARK    3  A    between atoms: C_14  and  N_15
REMARK                            x       y       z     vdW  Elec       q    Type
REMARK                         _______ _______ _______ _____ _____    ______ ____
ROOT
ATOM      1  C   UNL     1      -1.122  -0.942   0.008  0.00  0.00    +0.256 C 
ATOM      2  O   UNL     1      -2.265  -0.523   0.022  0.00  0.00    -0.269 OA
ATOM      3  N   UNL     1      -0.892  -2.270  -0.001  0.00  0.00    -0.260 N 
ATOM      4  C   UNL     1      -1.958  -3.160   0.004  0.00  0.00    +0.165 A 
ATOM      5  N   UNL     1      -1.926  -4.475   0.003  0.00  0.00    -0.231 NA
ATOM      6  C   UNL     1      -3.039  -5.185   0.009  0.00  0.00    +0.034 A 
ATOM      7  C   UNL     1      -4.207  -4.498   0.017  0.00  0.00    +0.070 A 
ATOM      8  S   UNL     1      -3.606  -2.817   0.023  0.00  0.00    -0.060 S 
ATOM      9  H   UNL     1       0.019  -2.604  -0.012  0.00  0.00    +0.157 HD
ENDROOT
BRANCH   1  14
ATOM     10  C   UNL     1      -0.017   1.383   0.010  0.00  0.00    +0.037 A 
ATOM     11  C   UNL     1       1.213   1.997   0.001  0.00  0.00    +0.040 A 
ATOM     12  C   UNL     1       2.333   1.229  -0.014  0.00  0.00    +0.070 A 
ATOM     13  S   UNL     1       1.751  -0.347  -0.017  0.00  0.00    -0.076 S 
ATOM     14  C   UNL     1       0.002  -0.004   0.002  0.00  0.00    +0.076 A 
ATOM     15 BR   UNL     1       4.134   1.803  -0.028  0.00  0.00    -0.041 Br
ATOM     16 BR   UNL     1       1.343   3.883   0.009  0.00  0.00    -0.049 Br
ENDBRANCH   1  14
BRANCH   6  17
ATOM     17  C   UNL     1      -3.011  -6.692   0.006  0.00  0.00    -0.022 C 
BRANCH  17  18
ATOM     18  N   UNL     1      -2.890  -7.177  -1.375  0.00  0.00    +0.383 N 
ATOM     19  C   UNL     1      -4.091  -6.801  -2.131  0.00  0.00    -0.078 C 
ATOM     20  C   UNL     1      -3.935  -7.232  -3.591  0.00  0.00    -0.019 C 
ATOM     21  C   UNL     1      -3.747  -8.751  -3.651  0.00  0.00    -0.004 C 
ATOM     22  C   UNL     1      -2.536  -9.140  -2.799  0.00  0.00    -0.019 C 
ATOM     23  C   UNL     1      -2.743  -8.637  -1.368  0.00  0.00    -0.078 C 
ATOM     24  H   UNL     1      -2.079  -6.760  -1.807  0.00  0.00    -0.081 HD
ENDBRANCH  17  18
ENDBRANCH   6  17
TORSDOF 3
