REMARK  Name = ZINC39675247
REMARK  9 active torsions:
REMARK  status: ('A' for Active; 'I' for Inactive)
REMARK    1  A    between atoms: C_1  and  C_2
REMARK    2  A    between atoms: C_2  and  C_4
REMARK    3  A    between atoms: C_2  and  N_14
REMARK    4  A    between atoms: C_4  and  C_5
REMARK    5  A    between atoms: C_5  and  C_6
REMARK    6  A    between atoms: C_9  and  O_12
REMARK    7  A    between atoms: O_12  and  C_13
REMARK    8  A    between atoms: C_15  and  C_17
REMARK    9  A    between atoms: C_28  and  C_30
REMARK                            x       y       z     vdW  Elec       q    Type
REMARK                         _______ _______ _______ _____ _____    ______ ____
ROOT
ATOM      1  C   UNL     1       0.557  -0.465  -3.539  0.00  0.00    +0.100 C 
ATOM      2  C   UNL     1       1.778   0.307  -4.088  0.00  0.00    +0.121 C 
ATOM      3  N   UNL     1       1.670   0.181  -5.561  0.00  0.00    -0.296 N 
ATOM      4  C   UNL     1       0.219   0.313  -5.837  0.00  0.00    +0.115 C 
ATOM      5  C   UNL     1      -0.464  -0.458  -4.689  0.00  0.00    -0.004 C 
ATOM      6  C   UNL     1      -0.777  -1.886  -5.126  0.00  0.00    -0.010 C 
ATOM      7  C   UNL     1      -1.836  -1.857  -6.231  0.00  0.00    -0.082 C 
ATOM      8  N   UNL     1      -3.049  -1.200  -5.731  0.00  0.00    +0.379 N 
ATOM      9  C   UNL     1      -2.761   0.201  -5.400  0.00  0.00    -0.082 C 
ATOM     10  C   UNL     1      -1.740   0.258  -4.260  0.00  0.00    -0.010 C 
ATOM     11  C   UNL     1       2.665  -0.011  -6.449  0.00  0.00    +0.247 C 
ATOM     12  O   UNL     1       3.799  -0.211  -6.058  0.00  0.00    -0.270 OA
ATOM     13  H   UNL     1      -3.766  -1.235  -6.440  0.00  0.00    -0.086 HD
ATOM     14  H   UNL     1      -3.373  -1.679  -4.904  0.00  0.00    -0.086 HD
ENDROOT
BRANCH  11  15
ATOM     15  C   UNL     1       2.379   0.021  -7.899  0.00  0.00    +0.040 A 
ATOM     16  C   UNL     1       1.239   0.671  -8.373  0.00  0.00    +0.033 A 
ATOM     17  C   UNL     1       0.976   0.698  -9.729  0.00  0.00    +0.043 A 
ATOM     18  C   UNL     1       1.842   0.082 -10.617  0.00  0.00    +0.040 A 
ATOM     19  C   UNL     1       2.974  -0.565 -10.152  0.00  0.00    +0.043 A 
ATOM     20  C   UNL     1       3.250  -0.594  -8.799  0.00  0.00    +0.033 A 
ATOM     21 CL   UNL     1       4.052  -1.337 -11.273  0.00  0.00    -0.083 Cl
ATOM     22 CL   UNL     1      -0.442   1.506 -10.321  0.00  0.00    -0.083 Cl
ENDBRANCH  11  15
BRANCH   1  24
ATOM     23  N   UNL     1      -0.636  -0.470  -1.373  0.00  0.00    -0.312 N 
ATOM     24  C   UNL     1      -0.008   0.238  -2.332  0.00  0.00    +0.218 C 
ATOM     25  O   UNL     1       0.102   1.441  -2.223  0.00  0.00    -0.275 OA
ATOM     26  H   UNL     1      -0.725  -1.432  -1.460  0.00  0.00    +0.149 HD
BRANCH  23  28
ATOM     27  C   UNL     1      -0.087   0.384   0.852  0.00  0.00    +0.028 C 
ATOM     28  C   UNL     1      -1.186   0.213  -0.199  0.00  0.00    +0.070 C 
BRANCH  28  29
ATOM     29  C   UNL     1      -2.328  -0.620   0.388  0.00  0.00    +0.026 C 
BRANCH  29  30
ATOM     30  C   UNL     1      -3.479  -0.686  -0.618  0.00  0.00    +0.037 C 
BRANCH  30  31
ATOM     31  C   UNL     1      -4.604  -1.506  -0.040  0.00  0.00    -0.047 A 
ATOM     32  C   UNL     1      -4.640  -2.873  -0.250  0.00  0.00    +0.007 A 
ATOM     33  C   UNL     1      -5.670  -3.627   0.278  0.00  0.00    +0.046 A 
ATOM     34  C   UNL     1      -6.668  -3.012   1.020  0.00  0.00    +0.120 A 
ATOM     35  C   UNL     1      -6.629  -1.641   1.229  0.00  0.00    +0.046 A 
ATOM     36  C   UNL     1      -5.594  -0.892   0.703  0.00  0.00    +0.007 A 
BRANCH  34  37
ATOM     37  O   UNL     1      -7.683  -3.751   1.540  0.00  0.00    -0.495 OA
ATOM     38  C   UNL     1      -8.676  -3.051   2.293  0.00  0.00    +0.277 C 
ENDBRANCH  34  37
ENDBRANCH  30  31
ENDBRANCH  29  30
ENDBRANCH  28  29
ENDBRANCH  23  28
ENDBRANCH   1  24
TORSDOF 7
