REMARK  Name = ZINC48441122
REMARK  6 active torsions:
REMARK  status: ('A' for Active; 'I' for Inactive)
REMARK    1  A    between atoms: C_1  and  C_2
REMARK    2  A    between atoms: C_5  and  N_10
REMARK    3  A    between atoms: C_6  and  C_9
REMARK    4  A    between atoms: C_7  and  O_8
REMARK    5  A    between atoms: N_10  and  S_11
REMARK    6  A    between atoms: S_11  and  C_14
REMARK                            x       y       z     vdW  Elec       q    Type
REMARK                         _______ _______ _______ _____ _____    ______ ____
ROOT
ATOM      1  N   UNL     1       0.059  -4.171  -0.026  0.00  0.00    -0.215 N 
ATOM      2  H   UNL     1      -0.470  -4.658   0.625  0.00  0.00    +0.174 HD
ENDROOT
BRANCH   1   7
ATOM      3  C   UNL     1       0.682   1.449   0.449  0.00  0.00    +0.047 C 
ATOM      4  C   UNL     1       0.516  -0.043   0.324  0.00  0.00    -0.009 A 
ATOM      5  C   UNL     1       0.425  -0.626  -0.926  0.00  0.00    +0.009 A 
ATOM      6  C   UNL     1       0.274  -1.993  -1.045  0.00  0.00    +0.025 A 
ATOM      7  C   UNL     1       0.213  -2.788   0.094  0.00  0.00    +0.054 A 
ATOM      8  C   UNL     1       0.304  -2.205   1.350  0.00  0.00    +0.014 A 
ATOM      9  C   UNL     1       0.462  -0.832   1.465  0.00  0.00    +0.124 A 
ATOM     10  C   UNL     1       0.239  -3.063   2.587  0.00  0.00    +0.049 C 
BRANCH   9  11
ATOM     11  O   UNL     1       0.557  -0.259   2.693  0.00  0.00    -0.506 OA
ATOM     12  H   UNL     1      -0.294   0.002   3.072  0.00  0.00    +0.292 HD
ENDBRANCH   9  11
ENDBRANCH   1   7
BRANCH   1  13
ATOM     13  S   UNL     1       0.781  -4.979  -1.278  0.00  0.00    +0.079 S 
ATOM     14  O   UNL     1       0.558  -6.363  -1.051  0.00  0.00    -0.149 OA
ATOM     15  O   UNL     1       0.371  -4.327  -2.472  0.00  0.00    -0.149 OA
BRANCH  13  16
ATOM     16  C   UNL     1       2.518  -4.718  -1.134  0.00  0.00    +0.147 A 
ATOM     17  C   UNL     1       3.439  -5.456  -0.468  0.00  0.00    +0.038 A 
ATOM     18  C   UNL     1       4.763  -5.058  -0.493  0.00  0.00    +0.025 A 
ATOM     19  C   UNL     1       5.100  -3.940  -1.183  0.00  0.00    +0.057 A 
ATOM     20  S   UNL     1       3.522  -3.418  -1.834  0.00  0.00    -0.061 S 
ATOM     21 BR   UNL     1       6.801  -3.145  -1.405  0.00  0.00    -0.043 Br
ENDBRANCH  13  16
ENDBRANCH   1  13
TORSDOF 4
