REMARK  Name = ZINC05818998
REMARK  5 active torsions:
REMARK  status: ('A' for Active; 'I' for Inactive)
REMARK    1  A    between atoms: C_6  and  C_7
REMARK    2  A    between atoms: C_16  and  N_25
REMARK    3  A    between atoms: C_17  and  C_23
REMARK    4  A    between atoms: C_18  and  C_19
REMARK    5  A    between atoms: C_18  and  C_21
REMARK                            x       y       z     vdW  Elec       q    Type
REMARK                         _______ _______ _______ _____ _____    ______ ____
ROOT
ATOM      1  C   UNL     1       2.289   2.580   2.301  0.00  0.00    +0.066 C 
ATOM      2  C   UNL     1       2.203   1.532   1.189  0.00  0.00    +0.031 C 
ATOM      3  C   UNL     1       1.424   2.038  -0.002  0.00  0.00    +0.009 C 
ATOM      4  C   UNL     1      -0.019   1.538   0.008  0.00  0.00    +0.005 C 
ATOM      5  C   UNL     1       0.000   0.003  -0.004  0.00  0.00    +0.027 C 
ATOM      6  C   UNL     1       0.705  -0.458   1.245  0.00  0.00    -0.021 C 
ATOM      7  C   UNL     1       1.680   0.258   1.781  0.00  0.00    -0.026 C 
ATOM      8  C   UNL     1       2.271  -0.178   3.066  0.00  0.00    +0.044 C 
ATOM      9  C   UNL     1       3.012   0.701   3.791  0.00  0.00    +0.084 C 
ATOM     10  C   UNL     1       3.294   2.106   3.351  0.00  0.00    +0.186 C 
ENDROOT
BRANCH   1  16
ATOM     11  C   UNL     1       0.091   3.758   2.512  0.00  0.00    +0.007 A 
ATOM     12  C   UNL     1      -1.154   3.911   3.093  0.00  0.00    +0.038 A 
ATOM     13  C   UNL     1      -1.551   3.061   4.111  0.00  0.00    +0.123 A 
ATOM     14  C   UNL     1      -0.703   2.055   4.543  0.00  0.00    +0.038 A 
ATOM     15  C   UNL     1       0.539   1.901   3.957  0.00  0.00    +0.007 A 
ATOM     16  C   UNL     1       0.934   2.750   2.940  0.00  0.00    -0.041 A 
ATOM     17  F   UNL     1      -2.766   3.213   4.684  0.00  0.00    -0.205 F 
ENDBRANCH   1  16
BRANCH   8  18
ATOM     18  N   UNL     1       2.071  -1.465   3.525  0.00  0.00    -0.357 N 
ATOM     19  H   UNL     1       2.513  -1.783   4.481  0.00  0.00    +0.142 HD
ATOM     20  H   UNL     1       1.470  -2.172   2.934  0.00  0.00    +0.142 HD
ENDBRANCH   8  18
BRANCH  10  21
ATOM     21  C   UNL     1       4.650   2.168   2.781  0.00  0.00    +0.090 C 
ATOM     22  N   UNL     1       5.696   2.216   2.341  0.00  0.00    -0.195 NA
ENDBRANCH  10  21
BRANCH  10  23
ATOM     23  C   UNL     1       3.224   2.997   4.521  0.00  0.00    +0.090 C 
ATOM     24  N   UNL     1       3.169   3.685   5.423  0.00  0.00    -0.195 NA
ENDBRANCH  10  23
BRANCH   9  25
ATOM     25  C   UNL     1       3.553   0.261   5.042  0.00  0.00    +0.099 C 
ATOM     26  N   UNL     1       3.982  -0.088   6.034  0.00  0.00    -0.191 NA
ENDBRANCH   9  25
TORSDOF 5
