REMARK  Name = ZINC15002180
REMARK  4 active torsions:
REMARK  status: ('A' for Active; 'I' for Inactive)
REMARK    1  A    between atoms: C_8  and  N_54
REMARK    2  A    between atoms: C_10  and  N_54
REMARK    3  A    between atoms: N_21  and  C_24
REMARK    4  A    between atoms: C_24  and  C_25
REMARK                            x       y       z     vdW  Elec       q    Type
REMARK                         _______ _______ _______ _____ _____    ______ ____
ROOT
ATOM      1  C   UNL     1      -3.643   7.874   6.316  0.00  0.00    -0.066 C 
ATOM      2  C   UNL     1      -4.037   6.682   5.439  0.00  0.00    -0.011 C 
ATOM      3  C   UNL     1      -3.248   6.715   4.130  0.00  0.00    +0.035 C 
ATOM      4  C   UNL     1      -1.761   6.833   4.454  0.00  0.00    -0.023 A 
ATOM      5  C   UNL     1      -1.351   7.257   5.668  0.00  0.00    -0.006 A 
ATOM      6  S   UNL     1       0.419   7.235   5.589  0.00  0.00    -0.073 S 
ATOM      7  C   UNL     1       0.604   6.657   3.921  0.00  0.00    +0.116 A 
ATOM      8  C   UNL     1      -0.721   6.499   3.482  0.00  0.00    +0.076 A 
ATOM      9  C   UNL     1      -0.876   6.035   2.135  0.00  0.00    +0.263 A 
ATOM     10  O   UNL     1      -1.987   5.869   1.661  0.00  0.00    -0.267 OA
ATOM     11  N   UNL     1       0.225   5.780   1.404  0.00  0.00    -0.293 N 
ATOM     12  C   UNL     1       1.470   5.963   1.914  0.00  0.00    +0.203 A 
ATOM     13  N   UNL     1       1.644   6.388   3.137  0.00  0.00    -0.230 NA
ATOM     14  C   UNL     1      -2.212   7.658   6.827  0.00  0.00    +0.027 C 
ENDROOT
BRANCH   1  15
ATOM     15  N   UNL     1      -4.570   7.965   7.460  0.00  0.00    +0.383 N 
ATOM     16  H   UNL     1      -5.511   7.689   7.156  0.00  0.00    -0.085 HD
ATOM     17  H   UNL     1      -4.251   7.335   8.204  0.00  0.00    -0.085 HD
BRANCH  15  25
ATOM     18  C   UNL     1      -5.745  12.083  11.696  0.00  0.00    +0.000 A 
ATOM     19  C   UNL     1      -4.374  12.064  11.871  0.00  0.00    +0.000 A 
ATOM     20  C   UNL     1      -3.587  11.273  11.058  0.00  0.00    +0.004 A 
ATOM     21  C   UNL     1      -4.166  10.497  10.067  0.00  0.00    -0.046 A 
ATOM     22  C   UNL     1      -5.537  10.516   9.893  0.00  0.00    -0.046 A 
ATOM     23  C   UNL     1      -6.325  11.310  10.709  0.00  0.00    +0.004 A 
ATOM     24  C   UNL     1      -5.921   9.592   8.757  0.00  0.00    +0.020 C 
ATOM     25  C   UNL     1      -4.612   9.346   7.976  0.00  0.00    -0.063 C 
ATOM     26  C   UNL     1      -3.531   9.561   9.057  0.00  0.00    +0.020 C 
ENDBRANCH  15  25
ENDBRANCH   1  15
BRANCH  11  27
ATOM     27  C   UNL     1       0.077   5.302   0.027  0.00  0.00    +0.181 C 
BRANCH  27  28
ATOM     28  C   UNL     1       0.033   3.795   0.021  0.00  0.00    +0.061 A 
ATOM     29  C   UNL     1      -1.188   3.147   0.029  0.00  0.00    +0.025 A 
ATOM     30  C   UNL     1      -1.218   1.762   0.017  0.00  0.00    +0.003 A 
ATOM     31  C   UNL     1      -0.013   1.076   0.008  0.00  0.00    +0.020 A 
ATOM     32  C   UNL     1       1.169   1.792   0.001  0.00  0.00    +0.111 A 
ATOM     33  N   UNL     1       1.159   3.110   0.007  0.00  0.00    -0.258 NA
ENDBRANCH  27  28
ENDBRANCH  11  27
TORSDOF 4
