REMARK  Name = ZINC36202705
REMARK  14 active torsions:
REMARK  status: ('A' for Active; 'I' for Inactive)
REMARK    1  A    between atoms: C_1  and  O_2
REMARK    2  A    between atoms: O_2  and  C_3
REMARK    3  A    between atoms: C_6  and  C_9
REMARK    4  A    between atoms: C_9  and  C_10
REMARK    5  A    between atoms: C_9  and  C_18
REMARK    6  A    between atoms: C_9  and  O_37
REMARK    7  A    between atoms: C_13  and  O_16
REMARK    8  A    between atoms: O_16  and  C_17
REMARK    9  A    between atoms: C_21  and  C_23
REMARK   10  A    between atoms: C_23  and  N_24
REMARK   11  A    between atoms: N_24  and  C_25
REMARK   12  A    between atoms: N_24  and  C_31
REMARK   13  A    between atoms: C_25  and  C_26
REMARK   14  A    between atoms: C_31  and  C_32
REMARK                            x       y       z     vdW  Elec       q    Type
REMARK                         _______ _______ _______ _____ _____    ______ ____
ROOT
ATOM      1  C   UNL     1       3.878  -3.071   5.817  0.00  0.00    +0.146 A 
ATOM      2  C   UNL     1       4.813  -3.332   6.748  0.00  0.00    +0.048 A 
ATOM      3  C   UNL     1       6.001  -3.659   6.054  0.00  0.00    +0.043 A 
ATOM      4  C   UNL     1       5.720  -3.577   4.741  0.00  0.00    +0.089 A 
ATOM      5  O   UNL     1       4.431  -3.227   4.603  0.00  0.00    -0.463 OA
ENDROOT
BRANCH   1   6
ATOM      6  C   UNL     1       2.449  -2.677   6.090  0.00  0.00    +0.174 C 
BRANCH   6  10
ATOM      7  C   UNL     1       1.022  -0.201   2.913  0.00  0.00    +0.120 A 
ATOM      8  C   UNL     1       1.112   0.305   4.201  0.00  0.00    +0.046 A 
ATOM      9  C   UNL     1       1.573  -0.497   5.227  0.00  0.00    +0.011 A 
ATOM     10  C   UNL     1       1.946  -1.804   4.970  0.00  0.00    -0.004 A 
ATOM     11  C   UNL     1       1.858  -2.310   3.686  0.00  0.00    +0.011 A 
ATOM     12  C   UNL     1       1.392  -1.514   2.658  0.00  0.00    +0.046 A 
BRANCH   7  14
ATOM     13  C   UNL     1       0.206   1.928   2.237  0.00  0.00    +0.277 C 
ATOM     14  O   UNL     1       0.569   0.587   1.902  0.00  0.00    -0.495 OA
ENDBRANCH   7  14
ENDBRANCH   6  10
BRANCH   6  15
ATOM     15  C   UNL     1       1.595  -3.915   6.184  0.00  0.00    -0.004 A 
ATOM     16  C   UNL     1       1.800  -4.963   5.306  0.00  0.00    +0.011 A 
ATOM     17  C   UNL     1       1.019  -6.099   5.390  0.00  0.00    +0.046 A 
ATOM     18  C   UNL     1       0.028  -6.189   6.357  0.00  0.00    +0.120 A 
ATOM     19  C   UNL     1      -0.175  -5.136   7.237  0.00  0.00    +0.046 A 
ATOM     20  C   UNL     1       0.612  -4.004   7.152  0.00  0.00    +0.011 A 
BRANCH  18  21
ATOM     21  O   UNL     1      -0.742  -7.305   6.441  0.00  0.00    -0.495 OA
ATOM     22  C   UNL     1      -1.742  -7.327   7.461  0.00  0.00    +0.277 C 
ENDBRANCH  18  21
ENDBRANCH   6  15
BRANCH   6  23
ATOM     23  O   UNL     1       2.381  -1.957   7.323  0.00  0.00    -0.372 OA
ATOM     24  H   UNL     1       2.690  -2.459   8.089  0.00  0.00    +0.212 HD
ENDBRANCH   6  23
ENDBRANCH   1   6
BRANCH   4  25
ATOM     25  C   UNL     1       6.687  -3.840   3.615  0.00  0.00    -0.002 C 
BRANCH  25  26
ATOM     26  N   UNL     1       6.728  -5.281   3.332  0.00  0.00    +0.392 N 
ATOM     27  H   UNL     1       6.935  -5.785   4.181  0.00  0.00    -0.080 HD
BRANCH  26  28
ATOM     28  C   UNL     1       5.425  -5.715   2.809  0.00  0.00    -0.041 C 
BRANCH  28  29
ATOM     29  C   UNL     1       5.428  -7.212   2.635  0.00  0.00    -0.057 A 
ATOM     30  C   UNL     1       5.836  -7.778   1.442  0.00  0.00    +0.009 A 
ATOM     31  C   UNL     1       5.826  -9.128   1.317  0.00  0.00    +0.045 A 
ATOM     32  S   UNL     1       5.226  -9.642   2.918  0.00  0.00    -0.105 S 
ATOM     33  C   UNL     1       5.034  -8.023   3.647  0.00  0.00    +0.047 A 
ENDBRANCH  28  29
ENDBRANCH  26  28
BRANCH  26  34
ATOM     34  C   UNL     1       7.771  -5.554   2.334  0.00  0.00    -0.002 C 
BRANCH  34  35
ATOM     35  C   UNL     1       9.121  -5.218   2.913  0.00  0.00    +0.089 A 
ATOM     36  C   UNL     1       9.873  -6.029   3.678  0.00  0.00    +0.042 A 
ATOM     37  C   UNL     1      11.051  -5.315   3.998  0.00  0.00    +0.041 A 
ATOM     38  C   UNL     1      10.948  -4.109   3.409  0.00  0.00    +0.195 A 
ATOM     39  O   UNL     1       9.779  -4.059   2.749  0.00  0.00    -0.470 OA
ENDBRANCH  34  35
ENDBRANCH  26  34
ENDBRANCH  25  26
ENDBRANCH   4  25
TORSDOF 12
