REMARK  Name = ZINC23073687
REMARK  6 active torsions:
REMARK  status: ('A' for Active; 'I' for Inactive)
REMARK    1  A    between atoms: C_3  and  N_15
REMARK    2  A    between atoms: C_6  and  C_7
REMARK    3  A    between atoms: N_9  and  C_10
REMARK    4  A    between atoms: C_10  and  C_11
REMARK    5  A    between atoms: C_16  and  C_18
REMARK    6  A    between atoms: N_21  and  C_23
REMARK                            x       y       z     vdW  Elec       q    Type
REMARK                         _______ _______ _______ _____ _____    ______ ____
ROOT
ATOM      1  N   UNL     1      -6.029  -1.254  -0.114  0.00  0.00    -0.280 N 
ATOM      2  C   UNL     1      -6.015  -2.601  -0.162  0.00  0.00    +0.269 C 
ATOM      3  O   UNL     1      -4.957  -3.199  -0.149  0.00  0.00    -0.268 OA
ATOM      4  H   UNL     1      -6.985  -0.716  -0.038  0.00  0.00    +0.155 HD
ENDROOT
BRANCH   2   5
ATOM      5  C   UNL     1      -7.286  -3.350  -0.228  0.00  0.00    +0.151 A 
ATOM      6  C   UNL     1      -7.433  -4.747  -0.288  0.00  0.00    +0.006 A 
ATOM      7  C   UNL     1      -8.768  -4.979  -0.335  0.00  0.00    +0.049 A 
ATOM      8  N   UNL     1      -9.383  -3.776  -0.311  0.00  0.00    -0.236 N 
ATOM      9  N   UNL     1      -8.504  -2.836  -0.249  0.00  0.00    -0.161 NA
ATOM     10  C   UNL     1      -9.379  -6.354  -0.409  0.00  0.00    +0.056 C 
ATOM     11  C   UNL     1      -8.287  -7.344  -0.842  0.00  0.00    +0.006 C 
ATOM     12  C   UNL     1      -7.050  -7.157   0.040  0.00  0.00    +0.005 C 
ATOM     13  C   UNL     1      -6.379  -5.819  -0.296  0.00  0.00    +0.039 C 
BRANCH   8  14
ATOM     14  C   UNL     1     -10.770  -3.581  -0.347  0.00  0.00    +0.066 A 
ATOM     15  C   UNL     1     -11.310  -2.572  -1.133  0.00  0.00    +0.030 A 
ATOM     16  C   UNL     1     -12.677  -2.384  -1.171  0.00  0.00    +0.040 A 
ATOM     17  C   UNL     1     -13.510  -3.194  -0.417  0.00  0.00    +0.124 A 
ATOM     18  C   UNL     1     -12.973  -4.198   0.372  0.00  0.00    +0.040 A 
ATOM     19  C   UNL     1     -11.607  -4.392   0.408  0.00  0.00    +0.030 A 
ATOM     20  F   UNL     1     -14.847  -3.005  -0.451  0.00  0.00    -0.205 F 
ENDBRANCH   8  14
ENDBRANCH   2   5
BRANCH   1  23
ATOM     21  C   UNL     1      -3.522   1.354   0.500  0.00  0.00    +0.015 A 
ATOM     22  C   UNL     1      -4.706   0.653   0.539  0.00  0.00    +0.024 A 
ATOM     23  C   UNL     1      -4.831  -0.544  -0.161  0.00  0.00    +0.034 A 
ATOM     24  C   UNL     1      -3.763  -1.031  -0.907  0.00  0.00    +0.024 A 
ATOM     25  C   UNL     1      -2.579  -0.331  -0.956  0.00  0.00    +0.015 A 
ATOM     26  C   UNL     1      -2.449   0.870  -0.254  0.00  0.00    +0.037 A 
BRANCH  26  27
ATOM     27  C   UNL     1      -1.181   1.623  -0.303  0.00  0.00    +0.244 C 
ATOM     28  O   UNL     1      -0.247   1.198  -0.955  0.00  0.00    -0.270 OA
ATOM     29  N   UNL     1      -1.058   2.781   0.374  0.00  0.00    -0.303 N 
ATOM     30  H   UNL     1      -1.905   3.168   0.961  0.00  0.00    +0.149 HD
BRANCH  29  31
ATOM     31  C   UNL     1       0.203   3.526   0.330  0.00  0.00    +0.217 C 
BRANCH  31  32
ATOM     32  C   UNL     1       0.079   4.790   1.183  0.00  0.00    +0.405 C 
ATOM     33  F   UNL     1      -0.206   4.434   2.506  0.00  0.00    -0.169 F 
ATOM     34  F   UNL     1       1.284   5.501   1.141  0.00  0.00    -0.169 F 
ATOM     35  F   UNL     1      -0.953   5.591   0.682  0.00  0.00    -0.169 F 
ENDBRANCH  31  32
ENDBRANCH  29  31
ENDBRANCH  26  27
ENDBRANCH   1  23
TORSDOF 6
