REMARK  Name = ZINC34835437
REMARK  13 active torsions:
REMARK  status: ('A' for Active; 'I' for Inactive)
REMARK    1  A    between atoms: C_1  and  C_2
REMARK    2  A    between atoms: C_2  and  C_3
REMARK    3  A    between atoms: C_3  and  N_4
REMARK    4  A    between atoms: N_4  and  C_5
REMARK    5  A    between atoms: C_5  and  C_6
REMARK    6  A    between atoms: C_7  and  C_27
REMARK    7  A    between atoms: N_9  and  C_20
REMARK    8  A    between atoms: C_10  and  N_11
REMARK    9  A    between atoms: N_14  and  C_17
REMARK   10  A    between atoms: C_17  and  C_18
REMARK   11  A    between atoms: C_17  and  C_19
REMARK   12  A    between atoms: C_27  and  C_28
REMARK   13  A    between atoms: C_29  and  C_31
REMARK                            x       y       z     vdW  Elec       q    Type
REMARK                         _______ _______ _______ _____ _____    ______ ____
ROOT
ATOM      1  C   UNL     1      -0.660  -2.907  -3.934  0.00  0.00    +0.033 A 
ATOM      2  C   UNL     1      -0.742  -1.650  -4.539  0.00  0.00    +0.070 A 
ATOM      3  N   UNL     1       0.238  -1.538  -5.399  0.00  0.00    -0.169 NA
ATOM      4  N   UNL     1       0.986  -2.722  -5.374  0.00  0.00    -0.218 N 
ATOM      5  C   UNL     1       0.418  -3.553  -4.458  0.00  0.00    +0.130 A 
ENDROOT
BRANCH   5   6
ATOM      6  N   UNL     1       0.856  -4.831  -4.122  0.00  0.00    -0.318 N 
ATOM      7  C   UNL     1       0.764  -5.940  -5.085  0.00  0.00    +0.088 C 
ATOM      8  C   UNL     1       2.130  -6.629  -5.164  0.00  0.00    -0.059 C 
ATOM      9  N   UNL     1       2.553  -7.030  -3.816  0.00  0.00    +0.383 N 
ATOM     10  C   UNL     1       2.759  -5.839  -2.982  0.00  0.00    -0.059 C 
ATOM     11  C   UNL     1       1.429  -5.110  -2.797  0.00  0.00    +0.088 C 
ATOM     12  H   UNL     1       1.841  -7.612  -3.401  0.00  0.00    -0.081 HD
BRANCH   9  13
ATOM     13  C   UNL     1       3.809  -7.787  -3.905  0.00  0.00    -0.075 C 
ATOM     14  C   UNL     1       4.252  -8.206  -2.501  0.00  0.00    -0.014 C 
ATOM     15  C   UNL     1       3.594  -9.034  -4.765  0.00  0.00    -0.014 C 
ENDBRANCH   9  13
ENDBRANCH   5   6
BRANCH   4  16
ATOM     16  C   UNL     1       2.120  -3.000  -6.150  0.00  0.00    +0.068 A 
ATOM     17  C   UNL     1       3.223  -3.617  -5.574  0.00  0.00    +0.030 A 
ATOM     18  C   UNL     1       4.339  -3.889  -6.340  0.00  0.00    +0.040 A 
ATOM     19  C   UNL     1       4.359  -3.547  -7.682  0.00  0.00    +0.124 A 
ATOM     20  C   UNL     1       3.261  -2.931  -8.258  0.00  0.00    +0.040 A 
ATOM     21  C   UNL     1       2.141  -2.662  -7.497  0.00  0.00    +0.030 A 
ATOM     22  F   UNL     1       5.452  -3.814  -8.430  0.00  0.00    -0.205 F 
ENDBRANCH   4  16
BRANCH   2  23
ATOM     23  C   UNL     1      -1.785  -0.600  -4.252  0.00  0.00    +0.054 C 
ATOM     24  C   UNL     1      -1.236   0.398  -3.230  0.00  0.00    +0.010 C 
ENDBRANCH   2  23
BRANCH   1  25
ATOM     25  C   UNL     1      -1.594  -3.448  -2.882  0.00  0.00    +0.148 C 
BRANCH  25  26
ATOM     26  N   UNL     1      -2.531  -4.390  -3.499  0.00  0.00    -0.293 N 
ATOM     27  C   UNL     1      -3.738  -3.963  -3.918  0.00  0.00    +0.247 C 
ATOM     28  O   UNL     1      -4.029  -2.785  -3.835  0.00  0.00    -0.270 OA
BRANCH  27  29
ATOM     29  C   UNL     1      -4.709  -4.925  -4.476  0.00  0.00    +0.041 A 
ATOM     30  C   UNL     1      -4.613  -6.281  -4.157  0.00  0.00    +0.017 A 
ATOM     31  C   UNL     1      -5.520  -7.178  -4.679  0.00  0.00    +0.050 A 
ATOM     32  C   UNL     1      -6.531  -6.737  -5.523  0.00  0.00    +0.166 A 
ATOM     33  C   UNL     1      -6.632  -5.384  -5.846  0.00  0.00    +0.167 A 
ATOM     34  C   UNL     1      -5.729  -4.480  -5.321  0.00  0.00    +0.062 A 
ATOM     35  O   UNL     1      -7.698  -5.214  -6.682  0.00  0.00    -0.453 OA
ATOM     36  C   UNL     1      -7.999  -6.526  -7.192  0.00  0.00    +0.466 C 
ATOM     37  O   UNL     1      -7.533  -7.411  -6.156  0.00  0.00    -0.453 OA
ENDBRANCH  27  29
BRANCH  26  38
ATOM     38  C   UNL     1      -2.155  -5.797  -3.662  0.00  0.00    +0.108 C 
BRANCH  38  40
ATOM     39  C   UNL     1      -1.869  -7.981  -2.483  0.00  0.00    +0.005 C 
ATOM     40  C   UNL     1      -2.262  -6.512  -2.314  0.00  0.00    +0.016 C 
ENDBRANCH  38  40
ENDBRANCH  26  38
ENDBRANCH  25  26
ENDBRANCH   1  25
TORSDOF 9
