REMARK  Name = ZINC64188062
REMARK  6 active torsions:
REMARK  status: ('A' for Active; 'I' for Inactive)
REMARK    1  A    between atoms: C_1  and  C_2
REMARK    2  A    between atoms: N_10  and  N_11
REMARK    3  A    between atoms: C_12  and  C_14
REMARK    4  A    between atoms: C_14  and  C_15
REMARK    5  A    between atoms: C_15  and  C_16
REMARK    6  A    between atoms: C_24  and  C_26
REMARK                            x       y       z     vdW  Elec       q    Type
REMARK                         _______ _______ _______ _____ _____    ______ ____
ROOT
ATOM      1  C   UNL     1      -5.013  -5.079   4.961  0.00  0.00    +0.043 C 
ENDROOT
BRANCH   1   2
ATOM      2  C   UNL     1      -6.435  -5.575   4.903  0.00  0.00    -0.034 C 
ATOM      3  C   UNL     1      -7.351  -5.307   3.945  0.00  0.00    +0.002 A 
ATOM      4  C   UNL     1      -7.299  -4.505   2.717  0.00  0.00    +0.048 A 
ATOM      5  C   UNL     1      -8.405  -4.423   1.940  0.00  0.00    +0.124 A 
ATOM      6  C   UNL     1      -9.596  -5.085   2.279  0.00  0.00    +0.040 A 
ATOM      7  C   UNL     1      -9.718  -5.839   3.392  0.00  0.00    +0.029 A 
ATOM      8  C   UNL     1      -8.619  -5.994   4.280  0.00  0.00    +0.043 A 
ATOM      9  N   UNL     1      -8.491  -6.661   5.402  0.00  0.00    -0.374 N 
ATOM     10  C   UNL     1      -7.124  -6.477   5.902  0.00  0.00    +0.137 C 
ATOM     11  F   UNL     1      -8.361  -3.685   0.809  0.00  0.00    -0.205 F 
ATOM     12  H   UNL     1      -9.183  -7.190   5.828  0.00  0.00    +0.161 HD
BRANCH  10  13
ATOM     13  C   UNL     1      -7.155  -5.822   7.259  0.00  0.00    -0.021 A 
ATOM     14  C   UNL     1      -8.108  -4.862   7.541  0.00  0.00    +0.006 A 
ATOM     15  C   UNL     1      -8.137  -4.261   8.786  0.00  0.00    +0.000 A 
ATOM     16  C   UNL     1      -7.212  -4.620   9.748  0.00  0.00    +0.000 A 
ATOM     17  C   UNL     1      -6.259  -5.581   9.466  0.00  0.00    +0.000 A 
ATOM     18  C   UNL     1      -6.233  -6.185   8.223  0.00  0.00    +0.006 A 
ENDBRANCH  10  13
ENDBRANCH   1   2
BRANCH   1  19
ATOM     19  C   UNL     1      -4.732  -4.192   3.746  0.00  0.00    +0.102 C 
BRANCH  19  21
ATOM     20  N   UNL     1      -2.837  -2.892   2.831  0.00  0.00    -0.234 N 
ATOM     21  C   UNL     1      -3.310  -3.696   3.804  0.00  0.00    +0.229 C 
ATOM     22  O   UNL     1      -2.591  -4.021   4.725  0.00  0.00    -0.274 OA
ATOM     23  H   UNL     1      -3.412  -2.632   2.094  0.00  0.00    +0.173 HD
BRANCH  20  32
ATOM     24  C   UNL     1      -0.019   1.526   0.010  0.00  0.00    +0.044 C 
ATOM     25  C   UNL     1       0.002  -0.004   0.002  0.00  0.00    +0.210 C 
ATOM     26  C   UNL     1      -1.432  -0.493  -0.073  0.00  0.00    +0.265 C 
ATOM     27  O   UNL     1      -2.166  -0.177  -0.989  0.00  0.00    -0.271 OA
ATOM     28  N   UNL     1      -1.851  -1.291   0.921  0.00  0.00    -0.145 NA
ATOM     29  C   UNL     1      -1.036  -1.618   1.901  0.00  0.00    +0.218 C 
ATOM     30  N   UNL     1       0.254  -1.196   1.995  0.00  0.00    -0.253 N 
ATOM     31  N   UNL     1       0.791  -0.456   1.161  0.00  0.00    -0.197 NA
ATOM     32  N   UNL     1      -1.515  -2.432   2.884  0.00  0.00    -0.235 N 
ATOM     33  H   UNL     1      -0.940  -2.692   3.621  0.00  0.00    +0.173 HD
ATOM     34  H   UNL     1       0.780  -1.489   2.755  0.00  0.00    +0.191 HD
ENDBRANCH  20  32
ENDBRANCH  19  21
ENDBRANCH   1  19
TORSDOF 5
