REMARK  Name = ZINC63819012
REMARK  5 active torsions:
REMARK  status: ('A' for Active; 'I' for Inactive)
REMARK    1  A    between atoms: C_7  and  C_10
REMARK    2  A    between atoms: C_10  and  C_11
REMARK    3  A    between atoms: C_11  and  N_12
REMARK    4  A    between atoms: C_13  and  C_15
REMARK    5  A    between atoms: N_20  and  C_22
REMARK                            x       y       z     vdW  Elec       q    Type
REMARK                         _______ _______ _______ _____ _____    ______ ____
ROOT
ATOM      1  N   UNL     1      -0.437  -4.819  -1.470  0.00  0.00    -0.315 N 
ATOM      2  C   UNL     1      -0.798  -5.402  -2.630  0.00  0.00    +0.218 C 
ATOM      3  O   UNL     1      -0.354  -4.988  -3.681  0.00  0.00    -0.275 OA
ATOM      4  H   UNL     1      -0.792  -5.150  -0.630  0.00  0.00    +0.149 HD
ENDROOT
BRANCH   2   5
ATOM      5  C   UNL     1      -1.752  -6.568  -2.623  0.00  0.00    +0.101 C 
ATOM      6  C   UNL     1      -3.144  -6.141  -2.101  0.00  0.00    +0.110 C 
ATOM      7  C   UNL     1      -3.918  -5.789  -3.352  0.00  0.00    +0.221 C 
ATOM      8  O   UNL     1      -4.947  -5.149  -3.375  0.00  0.00    -0.275 OA
ATOM      9  N   UNL     1      -3.298  -6.290  -4.435  0.00  0.00    -0.271 N 
ATOM     10  C   UNL     1      -2.081  -7.023  -4.062  0.00  0.00    +0.127 C 
BRANCH   9  11
ATOM     11  C   UNL     1      -3.755  -6.134  -5.750  0.00  0.00    +0.040 A 
ATOM     12  C   UNL     1      -2.986  -6.592  -6.811  0.00  0.00    +0.027 A 
ATOM     13  C   UNL     1      -3.436  -6.438  -8.108  0.00  0.00    +0.051 A 
ATOM     14  C   UNL     1      -4.656  -5.825  -8.354  0.00  0.00    +0.162 A 
ATOM     15  C   UNL     1      -5.429  -5.368  -7.294  0.00  0.00    +0.164 A 
ATOM     16  C   UNL     1      -4.979  -5.526  -5.992  0.00  0.00    +0.073 A 
ATOM     17  O   UNL     1      -6.632  -4.771  -7.515  0.00  0.00    -0.485 OA
ATOM     18  C   UNL     1      -6.882  -4.300  -8.844  0.00  0.00    +0.270 C 
ATOM     19  C   UNL     1      -6.472  -5.402  -9.830  0.00  0.00    +0.270 C 
ATOM     20  O   UNL     1      -5.081  -5.678  -9.640  0.00  0.00    -0.485 OA
ENDBRANCH   9  11
ENDBRANCH   2   5
BRANCH   1  21
ATOM     21  C   UNL     1       0.491  -3.685  -1.478  0.00  0.00    +0.108 C 
BRANCH  21  22
ATOM     22  C   UNL     1       0.733  -3.215  -0.042  0.00  0.00    +0.052 C 
BRANCH  22  29
ATOM     23  C   UNL     1       0.079   1.327  -0.026  0.00  0.00    +0.001 A 
ATOM     24  C   UNL     1       1.270   2.067  -0.038  0.00  0.00    +0.002 A 
ATOM     25  C   UNL     1       2.488   1.486  -0.052  0.00  0.00    +0.026 A 
ATOM     26  C   UNL     1       2.609   0.069  -0.056  0.00  0.00    +0.043 A 
ATOM     27  N   UNL     1       3.658  -0.717  -0.069  0.00  0.00    -0.380 N 
ATOM     28  C   UNL     1       3.198  -2.111  -0.067  0.00  0.00    +0.144 C 
ATOM     29  C   UNL     1       1.687  -2.048  -0.050  0.00  0.00    -0.040 C 
ATOM     30  C   UNL     1       1.366  -0.735  -0.043  0.00  0.00    -0.001 A 
ATOM     31  C   UNL     1       0.081  -0.025  -0.028  0.00  0.00    +0.010 A 
ATOM     32  H   UNL     1       4.583  -0.427  -0.079  0.00  0.00    +0.160 HD
ENDBRANCH  22  29
ENDBRANCH  21  22
ENDBRANCH   1  21
TORSDOF 5
