REMARK  Name = ZINC04742260
REMARK  18 active torsions:
REMARK  status: ('A' for Active; 'I' for Inactive)
REMARK    1  A    between atoms: C_1  and  C_2
REMARK    2  A    between atoms: C_2  and  C_4
REMARK    3  A    between atoms: C_2  and  S_20
REMARK    4  A    between atoms: N_6  and  N_7
REMARK    5  A    between atoms: C_8  and  C_9
REMARK    6  A    between atoms: C_8  and  C_10
REMARK    7  A    between atoms: C_13  and  O_16
REMARK    8  A    between atoms: O_16  and  C_17
REMARK    9  A    between atoms: C_17  and  C_19
REMARK   10  A    between atoms: S_20  and  C_21
REMARK   11  A    between atoms: C_21  and  C_23
REMARK   12  A    between atoms: C_21  and  C_24
REMARK   13  A    between atoms: N_26  and  N_27
REMARK   14  A    between atoms: C_28  and  C_29
REMARK   15  A    between atoms: C_28  and  C_30
REMARK   16  A    between atoms: C_33  and  O_36
REMARK   17  A    between atoms: O_36  and  C_37
REMARK   18  A    between atoms: C_37  and  C_39
REMARK                            x       y       z     vdW  Elec       q    Type
REMARK                         _______ _______ _______ _____ _____    ______ ____
ROOT
ATOM      1  S   UNL     1       0.832  -3.431   1.494  0.00  0.00    -0.136 S 
ENDROOT
BRANCH   1   3
ATOM      2  C   UNL     1       0.767  -3.943  -1.192  0.00  0.00    +0.029 C 
ATOM      3  C   UNL     1      -0.088  -3.356  -0.067  0.00  0.00    +0.131 C 
BRANCH   3   4
ATOM      4  C   UNL     1      -1.362  -4.150   0.062  0.00  0.00    +0.245 C 
ATOM      5  O   UNL     1      -1.467  -4.991   0.930  0.00  0.00    -0.273 OA
ATOM      6  N   UNL     1      -2.385  -3.926  -0.786  0.00  0.00    -0.206 N 
ATOM      7  H   UNL     1      -2.301  -3.254  -1.480  0.00  0.00    +0.177 HD
BRANCH   6   8
ATOM      8  N   UNL     1      -3.570  -4.665  -0.666  0.00  0.00    -0.185 NA
ATOM      9  C   UNL     1      -4.555  -4.450  -1.483  0.00  0.00    +0.063 C 
ATOM     10  C   UNL     1      -4.424  -3.405  -2.561  0.00  0.00    +0.068 C 
BRANCH   9  11
ATOM     11  C   UNL     1      -5.801  -5.227  -1.356  0.00  0.00    -0.002 A 
ATOM     12  C   UNL     1      -6.861  -5.001  -2.239  0.00  0.00    +0.013 A 
ATOM     13  C   UNL     1      -8.024  -5.730  -2.117  0.00  0.00    +0.047 A 
ATOM     14  C   UNL     1      -8.143  -6.688  -1.119  0.00  0.00    +0.132 A 
ATOM     15  C   UNL     1      -7.093  -6.917  -0.240  0.00  0.00    +0.047 A 
ATOM     16  C   UNL     1      -5.924  -6.196  -0.357  0.00  0.00    +0.013 A 
BRANCH  14  17
ATOM     17  O   UNL     1      -9.292  -7.405  -1.002  0.00  0.00    -0.426 OA
BRANCH  17  18
ATOM     18  C   UNL     1      -9.491  -8.421  -1.857  0.00  0.00    +0.309 C 
ATOM     19  O   UNL     1      -8.705  -8.619  -2.753  0.00  0.00    -0.251 OA
ATOM     20  C   UNL     1     -10.695  -9.313  -1.700  0.00  0.00    +0.136 C 
ENDBRANCH  17  18
ENDBRANCH  14  17
ENDBRANCH   9  11
ENDBRANCH   6   8
ENDBRANCH   3   4
ENDBRANCH   1   3
BRANCH   1  21
ATOM     21  C   UNL     1      -0.185  -2.471   2.650  0.00  0.00    +0.131 C 
ATOM     22  C   UNL     1      -0.147  -0.993   2.257  0.00  0.00    +0.029 C 
BRANCH  21  23
ATOM     23  C   UNL     1       0.354  -2.634   4.048  0.00  0.00    +0.245 C 
ATOM     24  O   UNL     1       1.521  -2.917   4.218  0.00  0.00    -0.273 OA
ATOM     25  N   UNL     1      -0.460  -2.464   5.108  0.00  0.00    -0.206 N 
ATOM     26  H   UNL     1      -1.393  -2.238   4.971  0.00  0.00    +0.177 HD
BRANCH  25  27
ATOM     27  N   UNL     1       0.041  -2.615   6.407  0.00  0.00    -0.185 NA
ATOM     28  C   UNL     1      -0.764  -2.559   7.424  0.00  0.00    +0.063 C 
ATOM     29  C   UNL     1      -0.209  -2.559   8.825  0.00  0.00    +0.068 C 
BRANCH  28  30
ATOM     30  C   UNL     1      -2.221  -2.495   7.208  0.00  0.00    -0.002 A 
ATOM     31  C   UNL     1      -2.812  -3.246   6.189  0.00  0.00    +0.013 A 
ATOM     32  C   UNL     1      -4.174  -3.183   5.991  0.00  0.00    +0.047 A 
ATOM     33  C   UNL     1      -4.959  -2.375   6.803  0.00  0.00    +0.132 A 
ATOM     34  C   UNL     1      -4.376  -1.627   7.818  0.00  0.00    +0.047 A 
ATOM     35  C   UNL     1      -3.015  -1.687   8.026  0.00  0.00    +0.013 A 
BRANCH  33  36
ATOM     36  O   UNL     1      -6.302  -2.316   6.604  0.00  0.00    -0.426 OA
BRANCH  36  37
ATOM     37  C   UNL     1      -7.051  -3.336   7.053  0.00  0.00    +0.309 C 
ATOM     38  O   UNL     1      -6.539  -4.231   7.682  0.00  0.00    -0.251 OA
ATOM     39  C   UNL     1      -8.532  -3.364   6.772  0.00  0.00    +0.136 C 
ENDBRANCH  36  37
ENDBRANCH  33  36
ENDBRANCH  28  30
ENDBRANCH  25  27
ENDBRANCH  21  23
ENDBRANCH   1  21
TORSDOF 12
