REMARK  Name = ZINC13690336
REMARK  6 active torsions:
REMARK  status: ('A' for Active; 'I' for Inactive)
REMARK    1  A    between atoms: C_1  and  C_2
REMARK    2  A    between atoms: C_2  and  C_27
REMARK    3  A    between atoms: N_7  and  C_10
REMARK    4  A    between atoms: C_13  and  S_16
REMARK    5  A    between atoms: S_16  and  N_19
REMARK    6  A    between atoms: N_19  and  C_20
REMARK                            x       y       z     vdW  Elec       q    Type
REMARK                         _______ _______ _______ _____ _____    ______ ____
ROOT
ATOM      1  C   UNL     1      -0.897  -1.594   5.190  0.00  0.00    +0.059 A 
ATOM      2  C   UNL     1      -2.149  -1.595   4.588  0.00  0.00    +0.027 A 
ATOM      3  C   UNL     1      -2.258  -1.784   3.224  0.00  0.00    +0.030 A 
ATOM      4  C   UNL     1      -1.122  -1.973   2.458  0.00  0.00    +0.109 A 
ATOM      5  C   UNL     1       0.125  -1.978   3.055  0.00  0.00    +0.030 A 
ATOM      6  C   UNL     1       0.241  -1.784   4.418  0.00  0.00    +0.027 A 
ENDROOT
BRANCH   1  13
ATOM      7  C   UNL     1      -2.623  -0.862   9.636  0.00  0.00    +0.022 C 
ATOM      8  C   UNL     1      -1.355  -0.622   8.814  0.00  0.00    +0.064 C 
ATOM      9  C   UNL     1      -0.279  -1.673   9.196  0.00  0.00    +0.205 C 
ATOM     10  S   UNL     1       0.477  -1.929   7.539  0.00  0.00    +0.053 S 
ATOM     11  O   UNL     1       0.626  -3.313   7.257  0.00  0.00    -0.155 OA
ATOM     12  O   UNL     1       1.539  -1.011   7.319  0.00  0.00    -0.155 OA
ATOM     13  N   UNL     1      -0.784  -1.402   6.571  0.00  0.00    -0.143 N 
ATOM     14  C   UNL     1      -1.664  -0.759   7.354  0.00  0.00    +0.246 C 
ATOM     15  O   UNL     1      -2.687  -0.302   6.891  0.00  0.00    -0.273 OA
ATOM     16  C   UNL     1      -0.821   0.785   9.089  0.00  0.00    +0.022 C 
ENDBRANCH   1  13
BRANCH   4  17
ATOM     17  S   UNL     1      -1.265  -2.216   0.719  0.00  0.00    +0.072 S 
ATOM     18  O   UNL     1      -2.573  -2.718   0.485  0.00  0.00    -0.150 OA
ATOM     19  O   UNL     1      -0.097  -2.913   0.309  0.00  0.00    -0.150 OA
BRANCH  17  20
ATOM     20  N   UNL     1      -1.198  -0.721   0.009  0.00  0.00    -0.215 N 
ATOM     21  H   UNL     1      -1.945  -0.401  -0.520  0.00  0.00    +0.174 HD
BRANCH  20  22
ATOM     22  C   UNL     1      -0.064   0.080   0.172  0.00  0.00    +0.066 A 
ATOM     23  C   UNL     1       1.196  -0.501   0.232  0.00  0.00    +0.026 A 
ATOM     24  C   UNL     1       2.315   0.292   0.393  0.00  0.00    +0.002 A 
ATOM     25  C   UNL     1       2.182   1.665   0.495  0.00  0.00    +0.002 A 
ATOM     26  C   UNL     1       0.929   2.248   0.436  0.00  0.00    +0.022 A 
ATOM     27  C   UNL     1      -0.194   1.460   0.275  0.00  0.00    +0.063 A 
ATOM     28 CL   UNL     1      -1.766   2.192   0.194  0.00  0.00    -0.082 Cl
ENDBRANCH  20  22
ENDBRANCH  17  20
ENDBRANCH   4  17
TORSDOF 4
