REMARK  Name = ZINC03843999
REMARK  6 active torsions:
REMARK  status: ('A' for Active; 'I' for Inactive)
REMARK    1  A    between atoms: C_1  and  C_2
REMARK    2  A    between atoms: C_5  and  O_28
REMARK    3  A    between atoms: C_17  and  C_27
REMARK    4  A    between atoms: C_22  and  C_23
REMARK    5  A    between atoms: C_22  and  O_26
REMARK    6  A    between atoms: C_23  and  C_24
REMARK                            x       y       z     vdW  Elec       q    Type
REMARK                         _______ _______ _______ _____ _____    ______ ____
ROOT
ATOM      1  C   UNL     1       0.200   4.056   1.103  0.00  0.00    +0.016 C 
ATOM      2  C   UNL     1      -1.069   3.209   1.256  0.00  0.00    -0.008 C 
ATOM      3  C   UNL     1      -2.009   3.523   0.098  0.00  0.00    +0.014 C 
ATOM      4  C   UNL     1      -2.077   2.335  -0.862  0.00  0.00    +0.032 C 
ATOM      5  C   UNL     1      -0.691   1.857  -1.280  0.00  0.00    +0.119 C 
ATOM      6  C   UNL     1       0.080   1.321  -0.066  0.00  0.00    +0.062 C 
ATOM      7  C   UNL     1      -0.679   1.752   1.179  0.00  0.00    -0.065 C 
ATOM      8  C   UNL     1      -0.947   0.867   2.090  0.00  0.00    -0.027 C 
ATOM      9  C   UNL     1      -1.722   1.184   3.346  0.00  0.00    +0.031 C 
ATOM     10  C   UNL     1      -2.612   2.385   3.021  0.00  0.00    +0.000 C 
ATOM     11  C   UNL     1      -1.683   3.537   2.609  0.00  0.00    +0.003 C 
ATOM     12  C   UNL     1      -2.473   4.839   2.603  0.00  0.00    +0.005 C 
ATOM     13  C   UNL     1      -2.872   5.240   4.032  0.00  0.00    +0.010 C 
ATOM     14  C   UNL     1      -3.010   4.027   4.915  0.00  0.00    +0.000 C 
ATOM     15  C   UNL     1      -3.526   2.808   4.125  0.00  0.00    +0.001 C 
ATOM     16  C   UNL     1      -3.799   1.791   5.242  0.00  0.00    +0.007 C 
ATOM     17  C   UNL     1      -4.401   2.665   6.377  0.00  0.00    +0.036 C 
ATOM     18  C   UNL     1      -4.104   4.138   5.999  0.00  0.00    +0.075 C 
ATOM     19  C   UNL     1      -1.695   3.735   5.645  0.00  0.00    +0.014 C 
ENDROOT
BRANCH  18  20
ATOM     20  O   UNL     1      -5.266   4.766   5.467  0.00  0.00    -0.388 OA
ATOM     21  H   UNL     1      -5.987   4.862   6.104  0.00  0.00    +0.210 HD
ENDBRANCH  18  20
BRANCH   5  22
ATOM     22  O   UNL     1       0.037   2.929  -1.881  0.00  0.00    -0.391 OA
ATOM     23  H   UNL     1       0.918   2.681  -2.193  0.00  0.00    +0.210 HD
ENDBRANCH   5  22
BRANCH  18  24
ATOM     24  C   UNL     1      -3.566   4.905   7.204  0.00  0.00    +0.062 C 
BRANCH  24  25
ATOM     25  C   UNL     1      -4.597   4.902   8.303  0.00  0.00    -0.032 C 
ATOM     26  C   UNL     1      -4.282   4.462   9.496  0.00  0.00    +0.004 C 
ENDBRANCH  24  25
ENDBRANCH  18  24
TORSDOF 4
