REMARK  Name = ZINC60497649
REMARK  6 active torsions:
REMARK  status: ('A' for Active; 'I' for Inactive)
REMARK    1  A    between atoms: C_1  and  C_2
REMARK    2  A    between atoms: C_4  and  N_23
REMARK    3  A    between atoms: C_5  and  S_9
REMARK    4  A    between atoms: C_7  and  C_8
REMARK    5  A    between atoms: S_9  and  N_12
REMARK    6  A    between atoms: N_12  and  C_13
REMARK                            x       y       z     vdW  Elec       q    Type
REMARK                         _______ _______ _______ _____ _____    ______ ____
ROOT
ATOM      1  S   UNL     1       0.380  -4.059   0.000  0.00  0.00    +0.061 S 
ATOM      2  O   UNL     1       1.484  -4.461  -0.799  0.00  0.00    -0.153 OA
ATOM      3  O   UNL     1       0.483  -3.879   1.406  0.00  0.00    -0.153 OA
ENDROOT
BRANCH   1   8
ATOM      4  C   UNL     1      -1.583   1.174  -2.272  0.00  0.00    +0.044 C 
ATOM      5  C   UNL     1      -1.093  -0.133  -1.705  0.00  0.00    -0.045 A 
ATOM      6  C   UNL     1      -0.922  -1.226  -2.534  0.00  0.00    +0.038 A 
ATOM      7  C   UNL     1      -0.472  -2.425  -2.013  0.00  0.00    +0.153 A 
ATOM      8  C   UNL     1      -0.192  -2.531  -0.663  0.00  0.00    +0.136 A 
ATOM      9  C   UNL     1      -0.362  -1.438   0.165  0.00  0.00    +0.034 A 
ATOM     10  C   UNL     1      -0.808  -0.237  -0.356  0.00  0.00    -0.046 A 
ATOM     11  C   UNL     1      -0.989   0.956   0.547  0.00  0.00    +0.044 C 
BRANCH   7  12
ATOM     12  N   UNL     1      -0.290  -3.595  -2.901  0.00  0.00    +0.058 N 
ATOM     13  O   UNL     1      -0.414  -3.472  -4.097  0.00  0.00    -0.126 OA
ATOM     14  O   UNL     1      -0.017  -4.675  -2.430  0.00  0.00    -0.126 OA
ENDBRANCH   7  12
ENDBRANCH   1   8
BRANCH   1  15
ATOM     15  N   UNL     1      -0.815  -5.179  -0.247  0.00  0.00    -0.182 NA
ATOM     16  H   UNL     1      -0.644  -5.957  -0.800  0.00  0.00    +0.149 HD
BRANCH  15  17
ATOM     17  C   UNL     1      -2.131  -4.993   0.369  0.00  0.00    +0.113 C 
ATOM     18  C   UNL     1      -3.204  -4.958  -0.722  0.00  0.00    +0.066 C 
ATOM     19  C   UNL     1      -4.579  -5.062  -0.050  0.00  0.00    +0.231 C 
ATOM     20  O   UNL     1      -4.677  -6.342   0.578  0.00  0.00    -0.492 OA
ATOM     21  C   UNL     1      -3.650  -6.739   1.373  0.00  0.00    +0.125 A 
ATOM     22  C   UNL     1      -2.407  -6.134   1.316  0.00  0.00    +0.013 A 
ATOM     23  C   UNL     1      -1.387  -6.575   2.142  0.00  0.00    +0.009 A 
ATOM     24  C   UNL     1      -1.606  -7.616   3.024  0.00  0.00    +0.001 A 
ATOM     25  C   UNL     1      -2.847  -8.221   3.085  0.00  0.00    +0.004 A 
ATOM     26  C   UNL     1      -3.867  -7.786   2.264  0.00  0.00    +0.046 A 
ENDBRANCH  15  17
ENDBRANCH   1  15
TORSDOF 4
