REMARK  Name = ZINC39485371
REMARK  8 active torsions:
REMARK  status: ('A' for Active; 'I' for Inactive)
REMARK    1  A    between atoms: C_1  and  C_2
REMARK    2  A    between atoms: C_5  and  C_7
REMARK    3  A    between atoms: C_7  and  N_8
REMARK    4  A    between atoms: C_14  and  C_16
REMARK    5  A    between atoms: C_16  and  C_17
REMARK    6  A    between atoms: N_19  and  C_20
REMARK    7  A    between atoms: C_20  and  C_21
REMARK    8  A    between atoms: C_21  and  C_27
REMARK                            x       y       z     vdW  Elec       q    Type
REMARK                         _______ _______ _______ _____ _____    ______ ____
ROOT
ATOM      1  C   UNL     1       1.399  -5.848   0.262  0.00  0.00    +0.215 C 
ATOM      2  O   UNL     1       1.604  -4.775   0.788  0.00  0.00    -0.276 OA
ATOM      3  N   UNL     1       0.589  -6.747   0.858  0.00  0.00    -0.314 N 
ATOM      4  H   UNL     1       0.425  -7.605   0.437  0.00  0.00    +0.149 HD
ENDROOT
BRANCH   1   5
ATOM      5  C   UNL     1       2.048  -6.178  -1.057  0.00  0.00    +0.124 C 
BRANCH   5  12
ATOM      6  N   UNL     1       3.966  -4.803  -0.406  0.00  0.00    -0.282 NA
ATOM      7  C   UNL     1       4.721  -3.568  -0.674  0.00  0.00    +0.104 C 
ATOM      8  C   UNL     1       3.783  -2.372  -0.501  0.00  0.00    +0.119 C 
ATOM      9  N   UNL     1       2.555  -2.585  -1.262  0.00  0.00    -0.313 N 
ATOM     10  C   UNL     1       2.167  -3.789  -1.694  0.00  0.00    +0.231 C 
ATOM     11  O   UNL     1       1.116  -3.881  -2.292  0.00  0.00    -0.274 OA
ATOM     12  C   UNL     1       2.977  -5.034  -1.468  0.00  0.00    +0.152 C 
ATOM     13  H   UNL     1       1.996  -1.818  -1.462  0.00  0.00    +0.149 HD
BRANCH   6  14
ATOM     14  C   UNL     1       4.870  -5.953  -0.270  0.00  0.00    +0.159 C 
BRANCH  14  19
ATOM     15  C   UNL     1       8.373  -4.825   3.179  0.00  0.00    +0.086 C 
ATOM     16  C   UNL     1       7.121  -5.376   2.547  0.00  0.00    +0.102 A 
ATOM     17  C   UNL     1       6.162  -6.075   3.180  0.00  0.00    +0.044 A 
ATOM     18  C   UNL     1       5.180  -6.391   2.213  0.00  0.00    +0.046 A 
ATOM     19  C   UNL     1       5.598  -5.867   1.047  0.00  0.00    +0.119 A 
ATOM     20  O   UNL     1       6.771  -5.248   1.256  0.00  0.00    -0.464 OA
ENDBRANCH  14  19
ENDBRANCH   6  14
ENDBRANCH   5  12
ENDBRANCH   1   5
BRANCH   3  21
ATOM     21  C   UNL     1      -0.042  -6.426   2.140  0.00  0.00    +0.115 C 
BRANCH  21  22
ATOM     22  C   UNL     1      -1.015  -7.543   2.522  0.00  0.00    +0.015 C 
ATOM     23  C   UNL     1      -1.637  -7.236   3.888  0.00  0.00    +0.041 C 
ATOM     24  C   UNL     1      -2.449  -5.941   3.790  0.00  0.00    +0.160 C 
ATOM     25  O   UNL     1      -3.447  -6.082   2.777  0.00  0.00    -0.380 OA
ATOM     26  C   UNL     1      -2.922  -6.324   1.470  0.00  0.00    +0.160 C 
ATOM     27  C   UNL     1      -2.129  -7.633   1.474  0.00  0.00    +0.041 C 
BRANCH  22  28
ATOM     28  C   UNL     1      -0.277  -8.855   2.587  0.00  0.00    -0.040 A 
ATOM     29  C   UNL     1      -0.572  -9.860   1.683  0.00  0.00    +0.004 A 
ATOM     30  C   UNL     1       0.106 -11.063   1.743  0.00  0.00    +0.000 A 
ATOM     31  C   UNL     1       1.078 -11.262   2.704  0.00  0.00    +0.000 A 
ATOM     32  C   UNL     1       1.374 -10.258   3.607  0.00  0.00    +0.000 A 
ATOM     33  C   UNL     1       0.699  -9.053   3.545  0.00  0.00    +0.004 A 
ENDBRANCH  22  28
ENDBRANCH  21  22
ENDBRANCH   3  21
TORSDOF 7
