REMARK  Name = ZINC06892712
REMARK  4 active torsions:
REMARK  status: ('A' for Active; 'I' for Inactive)
REMARK    1  A    between atoms: C_1  and  C_2
REMARK    2  A    between atoms: C_5  and  C_24
REMARK    3  A    between atoms: N_8  and  S_10
REMARK    4  A    between atoms: S_10  and  C_13
REMARK                            x       y       z     vdW  Elec       q    Type
REMARK                         _______ _______ _______ _____ _____    ______ ____
ROOT
ATOM      1  C   UNL     1      -0.954   1.915  -1.397  0.00  0.00    +0.107 A 
ATOM      2  C   UNL     1      -0.755   3.170  -1.945  0.00  0.00    +0.030 A 
ATOM      3  C   UNL     1      -1.487   3.563  -3.050  0.00  0.00    +0.018 A 
ATOM      4  C   UNL     1      -2.417   2.700  -3.604  0.00  0.00    +0.030 A 
ATOM      5  C   UNL     1      -2.626   1.435  -3.055  0.00  0.00    +0.049 A 
ATOM      6  C   UNL     1      -1.877   1.049  -1.948  0.00  0.00    +0.053 A 
ATOM      7  N   UNL     1      -3.563   0.554  -3.588  0.00  0.00    -0.284 N 
ATOM      8  C   UNL     1      -4.050   0.578  -4.826  0.00  0.00    +0.227 C 
ATOM      9  O   UNL     1      -4.857  -0.271  -5.141  0.00  0.00    -0.275 OA
ATOM     10  C   UNL     1      -3.655   1.601  -5.857  0.00  0.00    +0.170 C 
ATOM     11  S   UNL     1      -3.351   3.186  -5.021  0.00  0.00    -0.114 S 
ATOM     12  H   UNL     1      -3.892  -0.145  -3.002  0.00  0.00    +0.155 HD
ENDROOT
BRANCH   1  13
ATOM     13  S   UNL     1      -0.017   1.417   0.010  0.00  0.00    +0.061 S 
ATOM     14  O   UNL     1       0.002  -0.004   0.002  0.00  0.00    -0.153 OA
ATOM     15  O   UNL     1       1.172   2.195   0.003  0.00  0.00    -0.153 OA
BRANCH  13  21
ATOM     16  C   UNL     1      -2.578   4.176   0.687  0.00  0.00    +0.009 C 
ATOM     17  C   UNL     1      -2.019   3.897   2.084  0.00  0.00    +0.002 C 
ATOM     18  C   UNL     1      -2.990   2.998   2.852  0.00  0.00    +0.009 C 
ATOM     19  C   UNL     1      -3.193   1.690   2.083  0.00  0.00    +0.002 C 
ATOM     20  C   UNL     1      -1.852   0.960   1.960  0.00  0.00    +0.112 C 
ATOM     21  N   UNL     1      -0.872   1.871   1.353  0.00  0.00    -0.176 NA
ATOM     22  C   UNL     1      -0.660   3.190   1.965  0.00  0.00    +0.112 C 
ATOM     23  C   UNL     1      -4.190   0.805   2.835  0.00  0.00    +0.009 C 
ENDBRANCH  13  21
ENDBRANCH   1  13
TORSDOF 2
