REMARK  Name = ZINC23054921
REMARK  8 active torsions:
REMARK  status: ('A' for Active; 'I' for Inactive)
REMARK    1  A    between atoms: C_1  and  C_2
REMARK    2  A    between atoms: C_2  and  C_4
REMARK    3  A    between atoms: C_2  and  N_12
REMARK    4  A    between atoms: N_12  and  C_13
REMARK    5  A    between atoms: C_13  and  C_15
REMARK    6  A    between atoms: C_13  and  C_16
REMARK    7  A    between atoms: N_18  and  C_19
REMARK    8  A    between atoms: C_21  and  N_26
REMARK                            x       y       z     vdW  Elec       q    Type
REMARK                         _______ _______ _______ _____ _____    ______ ____
ROOT
ATOM      1  C   UNL     1      -6.194  -0.911  -0.190  0.00  0.00    +0.014 C 
ATOM      2  C   UNL     1      -6.956  -0.447  -1.433  0.00  0.00    -0.004 C 
ENDROOT
BRANCH   1   3
ATOM      3  C   UNL     1      -4.898  -0.149  -0.081  0.00  0.00    +0.203 C 
ATOM      4  O   UNL     1      -3.842  -0.744  -0.093  0.00  0.00    -0.277 OA
ATOM      5  N   UNL     1      -4.914   1.194   0.029  0.00  0.00    -0.286 N 
ATOM      6  H   UNL     1      -5.871   1.727   0.132  0.00  0.00    +0.155 HD
BRANCH   5   7
ATOM      7  C   UNL     1      -3.712   1.912   0.012  0.00  0.00    +0.054 A 
ATOM      8  C   UNL     1      -2.591   1.377  -0.608  0.00  0.00    +0.057 A 
ATOM      9  C   UNL     1      -1.407   2.088  -0.623  0.00  0.00    +0.128 A 
ATOM     10  C   UNL     1      -1.335   3.329  -0.017  0.00  0.00    +0.034 A 
ATOM     11  C   UNL     1      -2.451   3.868   0.597  0.00  0.00    +0.024 A 
ATOM     12  C   UNL     1      -3.639   3.162   0.616  0.00  0.00    +0.062 A 
ATOM     13 CL   UNL     1      -5.038   3.835   1.392  0.00  0.00    -0.082 Cl
BRANCH   9  14
ATOM     14  N   UNL     1      -0.211   1.518  -1.284  0.00  0.00    +0.056 N 
ATOM     15  O   UNL     1      -0.272   0.423  -1.814  0.00  0.00    -0.126 OA
ATOM     16  O   UNL     1       0.832   2.146  -1.303  0.00  0.00    -0.126 OA
ENDBRANCH   9  14
ENDBRANCH   5   7
ENDBRANCH   1   3
BRANCH   1  17
ATOM     17  N   UNL     1      -5.909  -2.348  -0.298  0.00  0.00    +0.391 N 
ATOM     18  H   UNL     1      -5.037  -2.486  -0.955  0.00  0.00    -0.084 HD
ATOM     19  H   UNL     1      -6.783  -2.849  -0.739  0.00  0.00    -0.084 HD
BRANCH  17  21
ATOM     20  C   UNL     1      -6.929  -3.419   1.653  0.00  0.00    -0.009 C 
ATOM     21  C   UNL     1      -5.625  -2.929   1.021  0.00  0.00    -0.043 C 
BRANCH  21  22
ATOM     22  C   UNL     1      -4.676  -4.089   0.865  0.00  0.00    -0.060 A 
ATOM     23  C   UNL     1      -4.825  -4.967  -0.193  0.00  0.00    +0.003 A 
ATOM     24  C   UNL     1      -3.951  -6.028  -0.339  0.00  0.00    +0.021 A 
ATOM     25  C   UNL     1      -2.934  -6.218   0.579  0.00  0.00    +0.059 A 
ATOM     26  C   UNL     1      -2.788  -5.343   1.641  0.00  0.00    +0.059 A 
ATOM     27  C   UNL     1      -3.660  -4.278   1.783  0.00  0.00    +0.023 A 
ATOM     28 CL   UNL     1      -1.511  -5.580   2.793  0.00  0.00    -0.082 Cl
ATOM     29 CL   UNL     1      -1.841  -7.555   0.399  0.00  0.00    -0.082 Cl
ENDBRANCH  21  22
ENDBRANCH  17  21
ENDBRANCH   1  17
TORSDOF 6
