REMARK  Name = ZINC07418536
REMARK  6 active torsions:
REMARK  status: ('A' for Active; 'I' for Inactive)
REMARK    1  A    between atoms: C_6  and  C_7
REMARK    2  A    between atoms: C_7  and  S_8
REMARK    3  A    between atoms: S_8  and  C_9
REMARK    4  A    between atoms: N_16  and  C_19
REMARK    5  A    between atoms: C_19  and  C_20
REMARK    6  A    between atoms: C_20  and  O_21
REMARK                            x       y       z     vdW  Elec       q    Type
REMARK                         _______ _______ _______ _____ _____    ______ ____
ROOT
ATOM      1  C   UNL     1      -3.335  -1.973  -1.518  0.00  0.00    +0.194 A 
ATOM      2  N   UNL     1      -3.778  -2.244  -0.294  0.00  0.00    -0.183 NA
ATOM      3  C   UNL     1      -4.904  -2.916  -0.106  0.00  0.00    +0.285 A 
ATOM      4  O   UNL     1      -5.348  -3.187   1.143  0.00  0.00    -0.265 OA
ATOM      5  C   UNL     1      -5.630  -3.341  -1.235  0.00  0.00    +0.105 A 
ATOM      6  C   UNL     1      -6.833  -4.056  -1.428  0.00  0.00    +0.150 A 
ATOM      7  N   UNL     1      -7.042  -4.172  -2.708  0.00  0.00    -0.177 NA
ATOM      8  N   UNL     1      -6.005  -3.551  -3.415  0.00  0.00    -0.244 N 
ATOM      9  C   UNL     1      -5.124  -3.032  -2.513  0.00  0.00    +0.166 A 
ATOM     10  N   UNL     1      -3.986  -2.348  -2.607  0.00  0.00    -0.202 NA
ENDROOT
BRANCH   1  11
ATOM     11  S   UNL     1      -1.829  -1.075  -1.696  0.00  0.00    -0.081 S 
BRANCH  11  12
ATOM     12  C   UNL     1      -1.293  -0.775   0.011  0.00  0.00    +0.112 C 
BRANCH  12  18
ATOM     13  C   UNL     1      -0.017   1.378   0.010  0.00  0.00    +0.006 A 
ATOM     14  C   UNL     1       1.171   2.086   0.002  0.00  0.00    +0.022 A 
ATOM     15  C   UNL     1       2.378   1.412  -0.013  0.00  0.00    +0.059 A 
ATOM     16  C   UNL     1       2.397   0.027  -0.021  0.00  0.00    +0.060 A 
ATOM     17  C   UNL     1       1.208  -0.680  -0.013  0.00  0.00    +0.026 A 
ATOM     18  C   UNL     1       0.002  -0.004   0.002  0.00  0.00    -0.036 A 
ATOM     19 CL   UNL     1       3.912  -0.821  -0.040  0.00  0.00    -0.082 Cl
ATOM     20 CL   UNL     1       3.869   2.301  -0.023  0.00  0.00    -0.082 Cl
ENDBRANCH  12  18
ENDBRANCH  11  12
ENDBRANCH   1  11
BRANCH   8  21
ATOM     21  C   UNL     1      -5.886  -3.472  -4.873  0.00  0.00    +0.173 C 
BRANCH  21  22
ATOM     22  C   UNL     1      -6.583  -2.205  -5.374  0.00  0.00    +0.179 C 
BRANCH  22  23
ATOM     23  O   UNL     1      -6.467  -2.128  -6.796  0.00  0.00    -0.393 OA
ATOM     24  H   UNL     1      -6.887  -1.348  -7.183  0.00  0.00    +0.209 HD
ENDBRANCH  22  23
ENDBRANCH  21  22
ENDBRANCH   8  21
TORSDOF 6
