REMARK  Name = ZINC25061788
REMARK  12 active torsions:
REMARK  status: ('A' for Active; 'I' for Inactive)
REMARK    1  A    between atoms: C_1  and  C_2
REMARK    2  A    between atoms: C_5  and  S_27
REMARK    3  A    between atoms: C_7  and  C_8
REMARK    4  A    between atoms: C_8  and  N_10
REMARK    5  A    between atoms: C_13  and  C_16
REMARK    6  A    between atoms: C_16  and  N_17
REMARK    7  A    between atoms: C_19  and  C_26
REMARK    8  A    between atoms: C_22  and  C_25
REMARK    9  A    between atoms: S_27  and  N_30
REMARK   10  A    between atoms: N_30  and  C_31
REMARK   11  A    between atoms: C_31  and  C_32
REMARK   12  A    between atoms: C_31  and  C_33
REMARK                            x       y       z     vdW  Elec       q    Type
REMARK                         _______ _______ _______ _____ _____    ______ ____
ROOT
ATOM      1  C   UNL     1       2.512   1.230  -0.473  0.00  0.00    +0.270 C 
ATOM      2  O   UNL     1       3.514   1.912  -0.553  0.00  0.00    -0.268 OA
ENDROOT
BRANCH   1   9
ATOM      3  C   UNL     1       2.385   4.064   0.096  0.00  0.00    +0.044 C 
ATOM      4  C   UNL     1       1.129   3.233   0.053  0.00  0.00    -0.038 A 
ATOM      5  C   UNL     1      -0.097   3.821   0.287  0.00  0.00    +0.006 A 
ATOM      6  C   UNL     1      -1.252   3.060   0.249  0.00  0.00    +0.029 A 
ATOM      7  C   UNL     1      -1.186   1.706  -0.028  0.00  0.00    +0.106 A 
ATOM      8  C   UNL     1       0.033   1.104  -0.258  0.00  0.00    +0.042 A 
ATOM      9  C   UNL     1       1.202   1.867  -0.221  0.00  0.00    +0.044 A 
BRANCH   7  10
ATOM     10  S   UNL     1      -2.664   0.747  -0.081  0.00  0.00    +0.059 S 
ATOM     11  O   UNL     1      -3.723   1.649  -0.370  0.00  0.00    -0.153 OA
ATOM     12  O   UNL     1      -2.384  -0.385  -0.892  0.00  0.00    -0.153 OA
BRANCH  10  13
ATOM     13  N   UNL     1      -2.933   0.177   1.451  0.00  0.00    -0.187 NA
ATOM     14  H   UNL     1      -2.728  -0.880   1.674  0.00  0.00    +0.148 HD
BRANCH  13  15
ATOM     15  C   UNL     1      -3.226   1.112   2.539  0.00  0.00    +0.070 C 
ATOM     16  C   UNL     1      -4.221   0.471   3.508  0.00  0.00    +0.025 C 
ATOM     17  C   UNL     1      -1.933   1.449   3.285  0.00  0.00    +0.025 C 
ENDBRANCH  13  15
ENDBRANCH  10  13
ENDBRANCH   7  10
ENDBRANCH   1   9
BRANCH   1  18
ATOM     18  N   UNL     1       2.595  -0.108  -0.613  0.00  0.00    -0.152 NA
ATOM     19  C   UNL     1       3.825  -0.707  -0.850  0.00  0.00    +0.163 A 
ATOM     20  N   UNL     1       4.108  -1.985  -1.014  0.00  0.00    -0.338 N 
ATOM     21  C   UNL     1       5.343  -2.389  -1.232  0.00  0.00    +0.039 A 
ATOM     22  C   UNL     1       6.328  -1.459  -1.286  0.00  0.00    +0.071 A 
ATOM     23  S   UNL     1       5.387   0.036  -1.013  0.00  0.00    -0.060 S 
ATOM     24  H   UNL     1       3.305  -2.736  -0.969  0.00  0.00    +0.167 HD
BRANCH  21  25
ATOM     25  C   UNL     1       5.655  -3.852  -1.417  0.00  0.00    +0.138 C 
BRANCH  25  26
ATOM     26  N   UNL     1       5.837  -4.484  -0.104  0.00  0.00    -0.292 NA
ATOM     27  C   UNL     1       7.033  -3.961   0.572  0.00  0.00    +0.116 C 
ATOM     28  C   UNL     1       7.151  -4.601   1.958  0.00  0.00    +0.130 C 
ATOM     29  O   UNL     1       7.186  -6.024   1.819  0.00  0.00    -0.371 OA
ATOM     30  C   UNL     1       6.035  -6.567   1.166  0.00  0.00    +0.130 C 
ATOM     31  C   UNL     1       5.906  -5.947  -0.228  0.00  0.00    +0.116 C 
ATOM     32  C   UNL     1       4.783  -6.247   1.985  0.00  0.00    +0.039 C 
ATOM     33  C   UNL     1       8.436  -4.122   2.635  0.00  0.00    +0.039 C 
ENDBRANCH  25  26
ENDBRANCH  21  25
ENDBRANCH   1  18
TORSDOF 7
