REMARK  Name = ZINC02487948
REMARK  5 active torsions:
REMARK  status: ('A' for Active; 'I' for Inactive)
REMARK    1  A    between atoms: C_1  and  C_2
REMARK    2  A    between atoms: C_2  and  C_3
REMARK    3  A    between atoms: C_2  and  C_4
REMARK    4  A    between atoms: C_7  and  C_10
REMARK    5  A    between atoms: C_13  and  C_21
REMARK                            x       y       z     vdW  Elec       q    Type
REMARK                         _______ _______ _______ _____ _____    ______ ____
ROOT
ATOM      1  C   UNL     1      -2.514   0.980   0.019  0.00  0.00    +0.143 C 
ATOM      2  C   UNL     1      -3.338   1.357  -1.218  0.00  0.00    +0.058 C 
ATOM      3  C   UNL     1      -4.758   0.794  -1.084  0.00  0.00    +0.106 C 
ATOM      4  N   UNL     1      -5.402   1.413   0.091  0.00  0.00    -0.307 N 
ATOM      5  C   UNL     1      -4.622   1.515   1.235  0.00  0.00    +0.215 A 
ATOM      6  N   UNL     1      -3.282   1.314   1.218  0.00  0.00    -0.226 N 
ATOM      7  N   UNL     1      -2.838   1.492   2.529  0.00  0.00    -0.156 NA
ATOM      8  C   UNL     1      -3.892   1.783   3.249  0.00  0.00    +0.247 A 
ATOM      9  N   UNL     1      -4.973   1.796   2.461  0.00  0.00    -0.202 NA
ATOM     10  H   UNL     1      -6.318   1.731   0.065  0.00  0.00    +0.149 HD
ENDROOT
BRANCH   3  11
ATOM     11  C   UNL     1      -4.695  -0.700  -0.898  0.00  0.00    -0.027 A 
ATOM     12  C   UNL     1      -4.384  -1.229   0.341  0.00  0.00    +0.007 A 
ATOM     13  C   UNL     1      -4.332  -2.600   0.514  0.00  0.00    +0.020 A 
ATOM     14  C   UNL     1      -4.579  -3.442  -0.556  0.00  0.00    +0.041 A 
ATOM     15  C   UNL     1      -4.885  -2.911  -1.797  0.00  0.00    +0.020 A 
ATOM     16  C   UNL     1      -4.943  -1.541  -1.967  0.00  0.00    +0.007 A 
ATOM     17 CL   UNL     1      -4.506  -5.163  -0.341  0.00  0.00    -0.084 Cl
ENDBRANCH   3  11
BRANCH   1  21
ATOM     18  C   UNL     1       1.156   3.165   0.008  0.00  0.00    -0.045 A 
ATOM     19  C   UNL     1       1.175   1.783   0.000  0.00  0.00    +0.004 A 
ATOM     20  C   UNL     1      -0.013   1.076   0.008  0.00  0.00    +0.006 A 
ATOM     21  C   UNL     1      -1.219   1.751   0.017  0.00  0.00    -0.023 A 
ATOM     22  C   UNL     1      -1.238   3.133   0.030  0.00  0.00    +0.006 A 
ATOM     23  C   UNL     1      -0.050   3.840   0.022  0.00  0.00    +0.004 A 
BRANCH  18  25
ATOM     24  C   UNL     1       2.508   4.824  -1.246  0.00  0.00    +0.012 C 
ATOM     25  C   UNL     1       2.451   3.937  -0.001  0.00  0.00    +0.013 C 
ATOM     26  C   UNL     1       2.532   4.811   1.252  0.00  0.00    +0.012 C 
ENDBRANCH  18  25
ENDBRANCH   1  21
TORSDOF 3
