REMARK  Name = ZINC64776017
REMARK  7 active torsions:
REMARK  status: ('A' for Active; 'I' for Inactive)
REMARK    1  A    between atoms: C_1  and  C_2
REMARK    2  A    between atoms: C_2  and  C_4
REMARK    3  A    between atoms: C_2  and  N_18
REMARK    4  A    between atoms: N_6  and  C_7
REMARK    5  A    between atoms: C_7  and  C_8
REMARK    6  A    between atoms: C_8  and  C_9
REMARK    7  A    between atoms: N_28  and  C_33
REMARK                            x       y       z     vdW  Elec       q    Type
REMARK                         _______ _______ _______ _____ _____    ______ ____
ROOT
ATOM      1  C   UNL     1      -0.019   1.526   0.010  0.00  0.00    +0.038 C 
ATOM      2  C   UNL     1       0.002  -0.004   0.002  0.00  0.00    +0.157 C 
ENDROOT
BRANCH   2   3
ATOM      3  N   UNL     1      -1.372  -0.511   0.012  0.00  0.00    -0.303 N 
ATOM      4  C   UNL     1      -2.343  -0.259  -0.966  0.00  0.00    +0.039 A 
ATOM      5  C   UNL     1      -2.222   0.361  -2.204  0.00  0.00    +0.024 A 
ATOM      6  C   UNL     1      -3.320   0.491  -3.031  0.00  0.00    +0.002 A 
ATOM      7  C   UNL     1      -4.555   0.006  -2.638  0.00  0.00    +0.001 A 
ATOM      8  C   UNL     1      -4.699  -0.605  -1.410  0.00  0.00    +0.010 A 
ATOM      9  C   UNL     1      -3.600  -0.738  -0.559  0.00  0.00    +0.003 A 
ATOM     10  C   UNL     1      -3.455  -1.294   0.786  0.00  0.00    +0.006 C 
ATOM     11  C   UNL     1      -4.341  -1.667   1.715  0.00  0.00    +0.094 C 
ATOM     12  N   UNL     1      -3.740  -2.052   2.930  0.00  0.00    -0.269 N 
ATOM     13  N   UNL     1      -2.660  -1.253   3.373  0.00  0.00    -0.224 N 
ATOM     14  C   UNL     1      -1.740  -0.853   2.446  0.00  0.00    +0.256 C 
ATOM     15  O   UNL     1      -0.807  -0.133   2.733  0.00  0.00    -0.272 OA
ATOM     16  C   UNL     1      -1.954  -1.365   1.038  0.00  0.00    +0.194 C 
ATOM     17  C   UNL     1      -2.533  -0.868   4.780  0.00  0.00    +0.156 C 
ATOM     18  H   UNL     1      -4.050  -2.821   3.434  0.00  0.00    +0.170 HD
ENDBRANCH   2   3
BRANCH   2  19
ATOM     19  C   UNL     1       0.707  -0.490  -1.238  0.00  0.00    +0.233 C 
ATOM     20  O   UNL     1       0.120  -1.191  -2.034  0.00  0.00    -0.274 OA
ATOM     21  N   UNL     1       1.991  -0.146  -1.462  0.00  0.00    -0.313 N 
ATOM     22  H   UNL     1       2.461   0.415  -0.825  0.00  0.00    +0.149 HD
BRANCH  21  23
ATOM     23  C   UNL     1       2.677  -0.618  -2.667  0.00  0.00    +0.108 C 
BRANCH  23  24
ATOM     24  C   UNL     1       4.112  -0.089  -2.678  0.00  0.00    +0.052 C 
BRANCH  24  25
ATOM     25  C   UNL     1       4.818  -0.575  -3.918  0.00  0.00    -0.040 C 
ATOM     26  C   UNL     1       4.953   0.088  -5.089  0.00  0.00    -0.001 A 
ATOM     27  C   UNL     1       4.501   1.409  -5.542  0.00  0.00    +0.010 A 
ATOM     28  C   UNL     1       4.795   1.807  -6.800  0.00  0.00    +0.001 A 
ATOM     29  C   UNL     1       5.519   0.992  -7.681  0.00  0.00    +0.002 A 
ATOM     30  C   UNL     1       5.968  -0.234  -7.338  0.00  0.00    +0.026 A 
ATOM     31  C   UNL     1       5.716  -0.754  -6.038  0.00  0.00    +0.043 A 
ATOM     32  N   UNL     1       6.039  -1.893  -5.475  0.00  0.00    -0.380 N 
ATOM     33  C   UNL     1       5.523  -1.900  -4.102  0.00  0.00    +0.144 C 
ATOM     34  H   UNL     1       6.540  -2.610  -5.896  0.00  0.00    +0.160 HD
ENDBRANCH  24  25
ENDBRANCH  23  24
ENDBRANCH  21  23
ENDBRANCH   2  19
TORSDOF 5
