REMARK  Name = ZINC17158046
REMARK  4 active torsions:
REMARK  status: ('A' for Active; 'I' for Inactive)
REMARK    1  A    between atoms: N_11  and  C_14
REMARK    2  A    between atoms: C_14  and  C_15
REMARK    3  A    between atoms: N_17  and  N_18
REMARK    4  A    between atoms: C_19  and  C_21
REMARK                            x       y       z     vdW  Elec       q    Type
REMARK                         _______ _______ _______ _____ _____    ______ ____
ROOT
ATOM      1  C   UNL     1       3.544  -4.020   1.598  0.00  0.00    +0.247 C 
ATOM      2  O   UNL     1       3.609  -3.642   0.447  0.00  0.00    -0.273 OA
ATOM      3  N   UNL     1       4.107  -5.191   1.955  0.00  0.00    -0.233 N 
ATOM      4  H   UNL     1       4.056  -5.493   2.876  0.00  0.00    +0.173 HD
ENDROOT
BRANCH   3   5
ATOM      5  N   UNL     1       4.768  -5.971   0.998  0.00  0.00    -0.234 N 
ATOM      6  C   UNL     1       5.332  -7.142   1.355  0.00  0.00    +0.235 C 
ATOM      7  O   UNL     1       5.267  -7.520   2.506  0.00  0.00    -0.274 OA
ATOM      8  H   UNL     1       4.820  -5.669   0.078  0.00  0.00    +0.173 HD
BRANCH   6   9
ATOM      9  C   UNL     1       6.043  -7.982   0.326  0.00  0.00    +0.049 C 
ATOM     10  C   UNL     1       7.201  -7.182  -0.274  0.00  0.00    +0.019 C 
ATOM     11  C   UNL     1       7.923  -8.034  -1.319  0.00  0.00    -0.009 C 
ATOM     12  C   UNL     1       8.467  -9.301  -0.656  0.00  0.00    +0.007 C 
ATOM     13  C   UNL     1       7.309 -10.101  -0.057  0.00  0.00    -0.009 C 
ATOM     14  C   UNL     1       6.587  -9.249   0.988  0.00  0.00    +0.019 C 
ATOM     15  C   UNL     1       6.328 -10.487  -1.167  0.00  0.00    +0.007 C 
ATOM     16  C   UNL     1       5.784  -9.220  -1.829  0.00  0.00    -0.009 C 
ATOM     17  C   UNL     1       6.942  -8.420  -2.428  0.00  0.00    +0.007 C 
ATOM     18  C   UNL     1       5.062  -8.367  -0.783  0.00  0.00    +0.019 C 
ENDBRANCH   6   9
ENDBRANCH   3   5
BRANCH   1  19
ATOM     19  C   UNL     1       2.833  -3.180   2.628  0.00  0.00    +0.213 C 
BRANCH  19  28
ATOM     20  C   UNL     1      -0.019   1.536   0.011  0.00  0.00    +0.001 C 
ATOM     21  C   UNL     1       1.386   2.129   0.000  0.00  0.00    +0.001 C 
ATOM     22  C   UNL     1       2.260   1.554   1.132  0.00  0.00    +0.013 C 
ATOM     23  C   UNL     1       2.277   0.054   0.932  0.00  0.00    +0.087 C 
ATOM     24  C   UNL     1       0.821  -0.434   1.196  0.00  0.00    +0.087 C 
ATOM     25  C   UNL     1       0.002  -0.004   0.002  0.00  0.00    +0.013 C 
ATOM     26  C   UNL     1       1.072  -1.888   1.438  0.00  0.00    +0.226 C 
ATOM     27  O   UNL     1       0.324  -2.809   1.189  0.00  0.00    -0.275 OA
ATOM     28  N   UNL     1       2.312  -1.967   1.993  0.00  0.00    -0.233 N 
ATOM     29  C   UNL     1       3.036  -0.807   1.892  0.00  0.00    +0.226 C 
ATOM     30  O   UNL     1       4.069  -0.529   2.462  0.00  0.00    -0.275 OA
ENDBRANCH  19  28
ENDBRANCH   1  19
TORSDOF 4
