REMARK  Name = ZINC16751485
REMARK  9 active torsions:
REMARK  status: ('A' for Active; 'I' for Inactive)
REMARK    1  A    between atoms: C_1  and  C_2
REMARK    2  A    between atoms: C_2  and  O_3
REMARK    3  A    between atoms: O_3  and  C_4
REMARK    4  A    between atoms: N_6  and  C_7
REMARK    5  A    between atoms: C_8  and  C_22
REMARK    6  A    between atoms: N_12  and  N_13
REMARK    7  A    between atoms: C_14  and  C_15
REMARK    8  A    between atoms: C_18  and  O_21
REMARK    9  A    between atoms: C_25  and  C_28
REMARK                            x       y       z     vdW  Elec       q    Type
REMARK                         _______ _______ _______ _____ _____    ______ ____
ROOT
ATOM      1  C   UNL     1      -0.495   4.022   0.028  0.00  0.00    +0.104 A 
ATOM      2  C   UNL     1       0.793   3.545   0.013  0.00  0.00    +0.102 A 
ATOM      3  N   UNL     1       0.995   2.228   0.004  0.00  0.00    -0.222 NA
ATOM      4  C   UNL     1      -0.017   1.381   0.010  0.00  0.00    +0.180 A 
ATOM      5  S   UNL     1      -1.418   2.491   0.021  0.00  0.00    -0.035 S 
ATOM      6  N   UNL     1       0.002  -0.004   0.002  0.00  0.00    -0.215 N 
ATOM      7  H   UNL     1       0.849  -0.478  -0.009  0.00  0.00    +0.176 HD
ENDROOT
BRANCH   2   8
ATOM      8  C   UNL     1       1.940   4.481   0.007  0.00  0.00    +0.003 A 
ATOM      9  C   UNL     1       1.854   5.691  -0.683  0.00  0.00    +0.010 A 
ATOM     10  C   UNL     1       2.925   6.561  -0.681  0.00  0.00    +0.004 A 
ATOM     11  C   UNL     1       4.086   6.232  -0.005  0.00  0.00    -0.050 A 
ATOM     12  C   UNL     1       4.180   5.031   0.676  0.00  0.00    +0.004 A 
ATOM     13  C   UNL     1       3.115   4.155   0.686  0.00  0.00    +0.010 A 
ATOM     14  C   UNL     1       5.254   7.184  -0.012  0.00  0.00    +0.044 C 
ENDBRANCH   2   8
BRANCH   1  17
ATOM     15  C   UNL     1      -2.281   5.589   0.054  0.00  0.00    +0.405 C 
ATOM     16  O   UNL     1      -3.074   4.667   0.056  0.00  0.00    -0.226 OA
ATOM     17  N   UNL     1      -0.957   5.339   0.041  0.00  0.00    -0.243 N 
ATOM     18  H   UNL     1      -0.325   6.075   0.039  0.00  0.00    +0.159 HD
BRANCH  15  19
ATOM     19  O   UNL     1      -2.727   6.860   0.066  0.00  0.00    -0.450 OA
BRANCH  19  21
ATOM     20  C   UNL     1      -4.478   8.552   0.092  0.00  0.00    +0.048 C 
ATOM     21  C   UNL     1      -4.166   7.054   0.081  0.00  0.00    +0.230 C 
ENDBRANCH  19  21
ENDBRANCH  15  19
ENDBRANCH   1  17
BRANCH   6  22
ATOM     22  N   UNL     1      -1.202  -0.721   0.010  0.00  0.00    -0.188 NA
ATOM     23  C   UNL     1      -1.184  -2.019   0.003  0.00  0.00    +0.138 C 
BRANCH  23  24
ATOM     24  C   UNL     1      -2.450  -2.774   0.011  0.00  0.00    -0.005 A 
ATOM     25  C   UNL     1      -3.671  -2.094   0.032  0.00  0.00    +0.013 A 
ATOM     26  C   UNL     1      -4.853  -2.803   0.035  0.00  0.00    +0.046 A 
ATOM     27  C   UNL     1      -4.831  -4.192   0.027  0.00  0.00    +0.117 A 
ATOM     28  C   UNL     1      -3.620  -4.872   0.011  0.00  0.00    +0.046 A 
ATOM     29  C   UNL     1      -2.434  -4.171   0.003  0.00  0.00    +0.013 A 
BRANCH  27  30
ATOM     30  O   UNL     1      -5.999  -4.887   0.035  0.00  0.00    -0.507 OA
ATOM     31  H   UNL     1      -6.328  -5.093   0.920  0.00  0.00    +0.292 HD
ENDBRANCH  27  30
ENDBRANCH  23  24
ENDBRANCH   6  22
TORSDOF 7
