REMARK  Name = ZINC66088222
REMARK  3 active torsions:
REMARK  status: ('A' for Active; 'I' for Inactive)
REMARK    1  A    between atoms: C_3  and  C_8
REMARK    2  A    between atoms: C_12  and  C_18
REMARK    3  A    between atoms: C_15  and  N_16
REMARK                            x       y       z     vdW  Elec       q    Type
REMARK                         _______ _______ _______ _____ _____    ______ ____
ROOT
ATOM      1  C   UNL     1       3.672   2.183  -0.022  0.00  0.00    +0.093 C 
ATOM      2  C   UNL     1       4.470   1.829   1.200  0.00  0.00    +0.048 A 
ATOM      3  C   UNL     1       5.534   0.950   1.102  0.00  0.00    +0.156 A 
ATOM      4  C   UNL     1       6.263   0.643   2.267  0.00  0.00    +0.134 A 
ATOM      5  C   UNL     1       5.878   1.241   3.480  0.00  0.00    +0.139 A 
ATOM      6  N   UNL     1       4.850   2.073   3.521  0.00  0.00    -0.216 NA
ATOM      7  C   UNL     1       4.149   2.378   2.436  0.00  0.00    +0.126 A 
ATOM      8  N   UNL     1       6.578   0.956   4.638  0.00  0.00    -0.342 N 
ATOM      9  O   UNL     1       5.863   0.397  -0.081  0.00  0.00    -0.458 OA
ATOM     10  C   UNL     1       5.479   0.981  -1.233  0.00  0.00    +0.113 C 
ATOM     11  C   UNL     1       4.449   1.841  -1.270  0.00  0.00    +0.045 C 
ATOM     12  C   UNL     1       4.063   2.457  -2.476  0.00  0.00    +0.163 C 
ATOM     13  O   UNL     1       3.119   3.221  -2.479  0.00  0.00    -0.292 OA
ATOM     14  C   UNL     1       4.798   2.186  -3.760  0.00  0.00    +0.080 C 
ATOM     15  C   UNL     1       6.249   1.819  -3.435  0.00  0.00    +0.016 C 
ATOM     16  C   UNL     1       6.240   0.630  -2.490  0.00  0.00    +0.075 C 
ATOM     17  H   UNL     1       7.332   0.346   4.612  0.00  0.00    +0.144 HD
ATOM     18  H   UNL     1       6.315   1.366   5.477  0.00  0.00    +0.144 HD
ENDROOT
BRANCH   1  21
ATOM     19  C   UNL     1      -0.017   1.378   0.010  0.00  0.00    +0.001 A 
ATOM     20  C   UNL     1       1.171   2.086   0.002  0.00  0.00    +0.004 A 
ATOM     21  C   UNL     1       2.378   1.411  -0.013  0.00  0.00    -0.034 A 
ATOM     22  C   UNL     1       2.397   0.029  -0.022  0.00  0.00    +0.019 A 
ATOM     23  C   UNL     1       1.210  -0.679  -0.014  0.00  0.00    +0.018 A 
ATOM     24  C   UNL     1       0.002  -0.004   0.002  0.00  0.00    +0.015 A 
ATOM     25 BR   UNL     1       1.236  -2.570  -0.025  0.00  0.00    -0.050 Br
ENDBRANCH   1  21
BRANCH   7  26
ATOM     26  N   UNL     1       3.082   3.257   2.537  0.00  0.00    -0.343 N 
ATOM     27  H   UNL     1       2.566   3.485   1.749  0.00  0.00    +0.144 HD
ATOM     28  H   UNL     1       2.852   3.644   3.396  0.00  0.00    +0.144 HD
ENDBRANCH   7  26
BRANCH   4  29
ATOM     29  C   UNL     1       7.374  -0.259   2.217  0.00  0.00    +0.106 C 
ATOM     30  N   UNL     1       8.255  -0.975   2.178  0.00  0.00    -0.191 NA
ENDBRANCH   4  29
TORSDOF 3
