REMARK  Name = ZINC42696818
REMARK  7 active torsions:
REMARK  status: ('A' for Active; 'I' for Inactive)
REMARK    1  A    between atoms: C_1  and  C_2
REMARK    2  A    between atoms: C_2  and  C_33
REMARK    3  A    between atoms: C_4  and  N_10
REMARK    4  A    between atoms: C_6  and  C_8
REMARK    5  A    between atoms: C_6  and  C_9
REMARK    6  A    between atoms: C_11  and  C_13
REMARK    7  A    between atoms: N_24  and  C_26
REMARK                            x       y       z     vdW  Elec       q    Type
REMARK                         _______ _______ _______ _____ _____    ______ ____
ROOT
ATOM      1  C   UNL     1       4.312  -0.866  -4.426  0.00  0.00    +0.122 C 
ATOM      2  C   UNL     1       5.182   0.211  -5.150  0.00  0.00    +0.155 C 
ATOM      3  C   UNL     1       5.603  -0.389  -6.497  0.00  0.00    +0.004 C 
ATOM      4  C   UNL     1       6.527  -1.324  -6.245  0.00  0.00    +0.008 C 
ATOM      5  C   UNL     1       6.637  -1.321  -4.762  0.00  0.00    +0.116 C 
ATOM      6  C   UNL     1       5.337  -1.987  -4.179  0.00  0.00    +0.127 C 
ATOM      7  C   UNL     1       5.715  -2.193  -2.740  0.00  0.00    +0.227 C 
ATOM      8  O   UNL     1       4.936  -2.275  -1.814  0.00  0.00    -0.275 OA
ATOM      9  N   UNL     1       7.066  -2.275  -2.639  0.00  0.00    -0.268 N 
ATOM     10  C   UNL     1       7.708  -2.021  -3.986  0.00  0.00    +0.153 C 
ATOM     11  O   UNL     1       6.434   0.085  -4.382  0.00  0.00    -0.359 OA
ENDROOT
BRANCH   9  12
ATOM     12  C   UNL     1       7.758  -2.577  -1.460  0.00  0.00    +0.036 A 
ATOM     13  C   UNL     1       9.146  -2.629  -1.462  0.00  0.00    +0.023 A 
ATOM     14  C   UNL     1       9.825  -2.928  -0.298  0.00  0.00    +0.002 A 
ATOM     15  C   UNL     1       9.126  -3.175   0.869  0.00  0.00    +0.000 A 
ATOM     16  C   UNL     1       7.744  -3.124   0.874  0.00  0.00    +0.002 A 
ATOM     17  C   UNL     1       7.058  -2.820  -0.286  0.00  0.00    +0.023 A 
ENDBRANCH   9  12
BRANCH   1  19
ATOM     18  N   UNL     1       2.613  -0.816  -2.628  0.00  0.00    -0.312 N 
ATOM     19  C   UNL     1       3.770  -0.334  -3.123  0.00  0.00    +0.220 C 
ATOM     20  O   UNL     1       4.376   0.527  -2.521  0.00  0.00    -0.275 OA
ATOM     21  H   UNL     1       2.129  -1.504  -3.110  0.00  0.00    +0.149 HD
BRANCH  18  25
ATOM     22  C   UNL     1      -0.017   1.536   0.008  0.00  0.00    -0.010 C 
ATOM     23  C   UNL     1      -0.001   0.004  -0.003  0.00  0.00    -0.072 C 
ATOM     24  C   UNL     1       0.570  -0.496  -1.325  0.00  0.00    +0.009 C 
ATOM     25  C   UNL     1       2.086  -0.298  -1.360  0.00  0.00    +0.070 C 
ATOM     26  C   UNL     1       2.696  -1.086  -0.201  0.00  0.00    +0.009 C 
ATOM     27  C   UNL     1       2.141  -0.591   1.130  0.00  0.00    -0.072 C 
ATOM     28  N   UNL     1       0.690  -0.525   1.160  0.00  0.00    +0.386 N 
ATOM     29  C   UNL     1       2.767   0.763   1.481  0.00  0.00    -0.010 C 
ATOM     30  C   UNL     1       2.588  -1.593   2.220  0.00  0.00    -0.010 C 
ATOM     31  C   UNL     1      -1.473  -0.464   0.071  0.00  0.00    -0.010 C 
ATOM     32  H   UNL     1       0.410   0.025   1.978  0.00  0.00    -0.084 HD
ATOM     33  H   UNL     1       0.331  -1.467   1.345  0.00  0.00    -0.084 HD
ENDBRANCH  18  25
ENDBRANCH   1  19
TORSDOF 3
