REMARK  Name = ZINC62233446
REMARK  8 active torsions:
REMARK  status: ('A' for Active; 'I' for Inactive)
REMARK    1  A    between atoms: C_1  and  C_2
REMARK    2  A    between atoms: C_2  and  C_3
REMARK    3  A    between atoms: C_3  and  N_4
REMARK    4  A    between atoms: N_4  and  C_5
REMARK    5  A    between atoms: C_5  and  C_7
REMARK    6  A    between atoms: C_5  and  C_17
REMARK    7  A    between atoms: C_12  and  O_13
REMARK    8  A    between atoms: O_13  and  C_14
REMARK                            x       y       z     vdW  Elec       q    Type
REMARK                         _______ _______ _______ _____ _____    ______ ____
ROOT
ATOM      1  C   UNL     1      -2.792  -2.511   0.015  0.00  0.00    -0.032 C 
ENDROOT
BRANCH   1   2
ATOM      2  C   UNL     1      -2.774  -4.012  -0.117  0.00  0.00    -0.017 A 
ATOM      3  C   UNL     1      -1.665  -4.729   0.289  0.00  0.00    +0.025 A 
ATOM      4  C   UNL     1      -1.648  -6.107   0.169  0.00  0.00    +0.042 A 
ATOM      5  C   UNL     1      -2.742  -6.771  -0.359  0.00  0.00    +0.039 A 
ATOM      6  C   UNL     1      -3.853  -6.058  -0.767  0.00  0.00    +0.061 A 
ATOM      7  C   UNL     1      -3.874  -4.675  -0.641  0.00  0.00    +0.136 A 
ATOM      8 BR   UNL     1      -5.347  -6.964  -1.489  0.00  0.00    -0.046 Br
ATOM      9 CL   UNL     1      -0.253  -7.005   0.680  0.00  0.00    -0.083 Cl
BRANCH   7  10
ATOM     10  O   UNL     1      -4.968  -3.972  -1.036  0.00  0.00    -0.494 OA
ATOM     11  C   UNL     1      -4.998  -3.528  -2.394  0.00  0.00    +0.277 C 
ENDBRANCH   7  10
ENDBRANCH   1   2
BRANCH   1  12
ATOM     12  C   UNL     1      -3.469  -2.123   1.331  0.00  0.00    +0.005 C 
ATOM     13  C   UNL     1      -4.905  -2.655   1.345  0.00  0.00    +0.007 C 
ATOM     14  C   UNL     1      -5.546  -2.328   2.697  0.00  0.00    +0.028 C 
ATOM     15  C   UNL     1      -4.693  -2.930   3.816  0.00  0.00    +0.160 C 
ATOM     16  O   UNL     1      -3.362  -2.417   3.728  0.00  0.00    -0.380 OA
ATOM     17  C   UNL     1      -2.695  -2.731   2.504  0.00  0.00    +0.162 C 
ENDBRANCH   1  12
BRANCH   1  18
ATOM     18  N   UNL     1      -1.413  -2.002   0.005  0.00  0.00    +0.384 N 
ATOM     19  H   UNL     1      -0.941  -2.328  -0.825  0.00  0.00    -0.085 HD
ATOM     20  H   UNL     1      -0.925  -2.337   0.822  0.00  0.00    -0.085 HD
BRANCH  18  21
ATOM     21  C   UNL     1      -1.433  -0.534   0.013  0.00  0.00    -0.082 C 
BRANCH  21  23
ATOM     22  C   UNL     1      -0.019   1.526   0.010  0.00  0.00    +0.002 C 
ATOM     23  C   UNL     1       0.002  -0.004   0.002  0.00  0.00    -0.022 C 
ENDBRANCH  21  23
ENDBRANCH  18  21
ENDBRANCH   1  18
TORSDOF 6
