REMARK  Name = ZINC00721186
REMARK  2 active torsions:
REMARK  status: ('A' for Active; 'I' for Inactive)
REMARK    1  A    between atoms: C_6  and  C_7
REMARK    2  A    between atoms: C_10  and  C_13
REMARK                            x       y       z     vdW  Elec       q    Type
REMARK                         _______ _______ _______ _____ _____    ______ ____
ROOT
ATOM      1  C   UNL     1      -1.349  -0.688  -0.240  0.00  0.00    +0.184 A 
ATOM      2  N   UNL     1      -1.214  -2.010  -0.221  0.00  0.00    -0.209 NA
ATOM      3  C   UNL     1      -2.270  -2.770   0.046  0.00  0.00    +0.147 A 
ATOM      4  C   UNL     1      -3.505  -2.140   0.300  0.00  0.00    +0.133 A 
ATOM      5  N   UNL     1      -3.571  -0.815   0.265  0.00  0.00    -0.144 NA
ATOM      6  N   UNL     1      -2.521  -0.116   0.008  0.00  0.00    -0.128 NA
ATOM      7  N   UNL     1      -2.160  -4.149   0.072  0.00  0.00    -0.341 N 
ATOM      8  H   UNL     1      -1.287  -4.567   0.013  0.00  0.00    +0.144 HD
ATOM      9  H   UNL     1      -2.956  -4.697   0.150  0.00  0.00    +0.144 HD
ENDROOT
BRANCH   1  15
ATOM     10  C   UNL     1      -0.296   1.550  -0.555  0.00  0.00    +0.013 A 
ATOM     11  C   UNL     1       0.803   2.336  -0.831  0.00  0.00    +0.021 A 
ATOM     12  C   UNL     1       2.030   1.748  -1.090  0.00  0.00    +0.041 A 
ATOM     13  C   UNL     1       2.160   0.370  -1.074  0.00  0.00    +0.021 A 
ATOM     14  C   UNL     1       1.066  -0.425  -0.799  0.00  0.00    +0.013 A 
ATOM     15  C   UNL     1      -0.171   0.162  -0.537  0.00  0.00    +0.021 A 
ATOM     16 CL   UNL     1       3.409   2.743  -1.437  0.00  0.00    -0.084 Cl
ENDBRANCH   1  15
BRANCH   4  17
ATOM     17  C   UNL     1      -4.712  -2.946   0.602  0.00  0.00    +0.006 A 
ATOM     18  C   UNL     1      -4.631  -4.025   1.482  0.00  0.00    +0.011 A 
ATOM     19  C   UNL     1      -5.758  -4.771   1.759  0.00  0.00    +0.016 A 
ATOM     20  C   UNL     1      -6.967  -4.451   1.165  0.00  0.00    +0.018 A 
ATOM     21  C   UNL     1      -7.053  -3.381   0.291  0.00  0.00    +0.016 A 
ATOM     22  C   UNL     1      -5.934  -2.624   0.011  0.00  0.00    +0.011 A 
ATOM     23 BR   UNL     1      -8.507  -5.479   1.549  0.00  0.00    -0.050 Br
ENDBRANCH   4  17
TORSDOF 2
