REMARK  Name = ZINC35300727
REMARK  9 active torsions:
REMARK  status: ('A' for Active; 'I' for Inactive)
REMARK    1  A    between atoms: C_1  and  C_2
REMARK    2  A    between atoms: C_5  and  C_8
REMARK    3  A    between atoms: C_17  and  C_25
REMARK    4  A    between atoms: C_18  and  N_24
REMARK    5  A    between atoms: C_19  and  C_20
REMARK    6  A    between atoms: C_19  and  C_22
REMARK    7  A    between atoms: C_27  and  O_29
REMARK    8  A    between atoms: O_29  and  C_30
REMARK    9  A    between atoms: C_30  and  C_31
REMARK                            x       y       z     vdW  Elec       q    Type
REMARK                         _______ _______ _______ _____ _____    ______ ____
ROOT
ATOM      1  C   UNL     1       0.059  -4.275  -0.021  0.00  0.00    +0.068 C 
ATOM      2  C   UNL     1      -1.107  -4.807   0.814  0.00  0.00    +0.048 C 
ATOM      3  C   UNL     1      -2.420  -4.171   0.417  0.00  0.00    +0.120 C 
ATOM      4  N   UNL     1      -3.239  -5.095  -0.375  0.00  0.00    -0.263 N 
ATOM      5  C   UNL     1      -3.493  -6.429   0.198  0.00  0.00    +0.138 C 
ATOM      6  C   UNL     1      -2.151  -7.049   0.492  0.00  0.00    -0.003 C 
ATOM      7  C   UNL     1      -1.107  -6.304   0.725  0.00  0.00    -0.026 C 
ATOM      8  C   UNL     1       0.206  -6.984   0.891  0.00  0.00    +0.074 C 
ATOM      9  C   UNL     1       1.347  -6.255   0.812  0.00  0.00    +0.054 C 
ATOM     10  C   UNL     1       1.373  -4.774   0.583  0.00  0.00    +0.188 C 
ATOM     11  C   UNL     1      -3.738  -4.738  -1.575  0.00  0.00    +0.403 C 
ATOM     12  O   UNL     1      -3.513  -3.631  -2.022  0.00  0.00    -0.226 OA
ENDROOT
BRANCH   1  17
ATOM     13  C   UNL     1      -0.018   1.503   0.010  0.00  0.00    +0.044 C 
ATOM     14  C   UNL     1       0.002  -0.004   0.002  0.00  0.00    -0.050 A 
ATOM     15  C   UNL     1       0.221  -0.686  -1.181  0.00  0.00    +0.003 A 
ATOM     16  C   UNL     1       0.240  -2.068  -1.188  0.00  0.00    +0.004 A 
ATOM     17  C   UNL     1       0.040  -2.768  -0.013  0.00  0.00    -0.041 A 
ATOM     18  C   UNL     1      -0.178  -2.087   1.169  0.00  0.00    +0.004 A 
ATOM     19  C   UNL     1      -0.192  -0.704   1.177  0.00  0.00    +0.003 A 
ENDBRANCH   1  17
BRANCH   9  20
ATOM     20  N   UNL     1       2.541  -6.908   0.945  0.00  0.00    -0.358 N 
ATOM     21  H   UNL     1       2.556  -7.866   1.093  0.00  0.00    +0.142 HD
ATOM     22  H   UNL     1       3.373  -6.412   0.893  0.00  0.00    +0.142 HD
ENDBRANCH   9  20
BRANCH  10  23
ATOM     23  C   UNL     1       2.478  -4.445  -0.332  0.00  0.00    +0.091 C 
ATOM     24  N   UNL     1       3.331  -4.191  -1.038  0.00  0.00    -0.194 NA
ENDBRANCH  10  23
BRANCH  10  25
ATOM     25  C   UNL     1       1.598  -4.095   1.869  0.00  0.00    +0.091 C 
ATOM     26  N   UNL     1       1.772  -3.571   2.862  0.00  0.00    -0.194 NA
ENDBRANCH  10  25
BRANCH   8  27
ATOM     27  C   UNL     1       0.265  -8.395   1.134  0.00  0.00    +0.101 C 
ATOM     28  N   UNL     1       0.311  -9.513   1.326  0.00  0.00    -0.191 NA
ENDBRANCH   8  27
BRANCH  11  29
ATOM     29  O   UNL     1      -4.487  -5.609  -2.278  0.00  0.00    -0.445 OA
BRANCH  29  30
ATOM     30  C   UNL     1      -4.983  -5.164  -3.542  0.00  0.00    +0.269 C 
BRANCH  30  31
ATOM     31  C   UNL     1      -5.793  -6.264  -4.179  0.00  0.00    -0.010 A 
ATOM     32  C   UNL     1      -5.177  -7.189  -5.001  0.00  0.00    +0.007 A 
ATOM     33  C   UNL     1      -5.919  -8.198  -5.585  0.00  0.00    +0.000 A 
ATOM     34  C   UNL     1      -7.278  -8.283  -5.346  0.00  0.00    +0.000 A 
ATOM     35  C   UNL     1      -7.895  -7.358  -4.524  0.00  0.00    +0.000 A 
ATOM     36  C   UNL     1      -7.151  -6.352  -3.936  0.00  0.00    +0.007 A 
ENDBRANCH  30  31
ENDBRANCH  29  30
ENDBRANCH  11  29
TORSDOF 8
