REMARK  Name = ZINC63667240
REMARK  5 active torsions:
REMARK  status: ('A' for Active; 'I' for Inactive)
REMARK    1  A    between atoms: C_1  and  N_2
REMARK    2  A    between atoms: C_8  and  C_9
REMARK    3  A    between atoms: N_11  and  C_12
REMARK    4  A    between atoms: C_12  and  C_13
REMARK    5  A    between atoms: C_13  and  C_14
REMARK                            x       y       z     vdW  Elec       q    Type
REMARK                         _______ _______ _______ _____ _____    ______ ____
ROOT
ATOM      1  C   UNL     1       2.503  -0.233  -0.240  0.00  0.00    +0.258 C 
ATOM      2  O   UNL     1       2.677   0.968  -0.157  0.00  0.00    -0.269 OA
ATOM      3  N   UNL     1       3.551  -1.053  -0.448  0.00  0.00    -0.310 N 
ATOM      4  H   UNL     1       3.412  -2.011  -0.514  0.00  0.00    +0.149 HD
ENDROOT
BRANCH   1  10
ATOM      5  C   UNL     1      -0.019   1.461   0.003  0.00  0.00    +0.131 C 
ATOM      6  N   UNL     1       0.001  -0.004  -0.001  0.00  0.00    -0.307 N 
ATOM      7  C   UNL     1      -1.181  -0.870   0.105  0.00  0.00    +0.209 C 
ATOM      8  C   UNL     1      -0.601  -2.306   0.043  0.00  0.00    +0.143 C 
ATOM      9  C   UNL     1       0.889  -2.093  -0.090  0.00  0.00    +0.018 C 
ATOM     10  C   UNL     1       1.143  -0.791  -0.113  0.00  0.00    +0.090 C 
ATOM     11  C   UNL     1      -0.829  -3.155   1.274  0.00  0.00    +0.235 C 
ATOM     12  O   UNL     1      -0.406  -4.290   1.318  0.00  0.00    -0.274 OA
ATOM     13  N   UNL     1      -1.506  -2.640   2.322  0.00  0.00    -0.231 N 
ATOM     14  C   UNL     1      -1.691  -3.461   3.413  0.00  0.00    +0.085 C 
ATOM     15  C   UNL     1      -2.352  -3.034   4.502  0.00  0.00    +0.016 C 
ATOM     16  C   UNL     1      -2.873  -1.726   4.549  0.00  0.00    +0.005 C 
ATOM     17  C   UNL     1      -2.705  -0.901   3.489  0.00  0.00    +0.044 C 
ATOM     18  C   UNL     1      -2.005  -1.358   2.336  0.00  0.00    +0.129 C 
ATOM     19  N   UNL     1      -1.874  -0.495   1.342  0.00  0.00    -0.245 NA
ENDBRANCH   1  10
BRANCH   3  20
ATOM     20  C   UNL     1       4.902  -0.499  -0.574  0.00  0.00    +0.109 C 
BRANCH  20  21
ATOM     21  C   UNL     1       5.900  -1.635  -0.803  0.00  0.00    +0.052 C 
BRANCH  21  22
ATOM     22  C   UNL     1       7.289  -1.065  -0.933  0.00  0.00    -0.040 C 
ATOM     23  C   UNL     1       8.213  -0.943   0.047  0.00  0.00    -0.001 A 
ATOM     24  C   UNL     1       8.201  -1.290   1.473  0.00  0.00    +0.010 A 
ATOM     25  C   UNL     1       9.302  -1.041   2.218  0.00  0.00    +0.001 A 
ATOM     26  C   UNL     1      10.452  -0.461   1.663  0.00  0.00    +0.002 A 
ATOM     27  C   UNL     1      10.538  -0.115   0.361  0.00  0.00    +0.026 A 
ATOM     28  C   UNL     1       9.439  -0.332  -0.514  0.00  0.00    +0.043 A 
ATOM     29  N   UNL     1       9.279  -0.086  -1.792  0.00  0.00    -0.380 N 
ATOM     30  C   UNL     1       7.934  -0.520  -2.188  0.00  0.00    +0.144 C 
ATOM     31  H   UNL     1       9.941   0.311  -2.379  0.00  0.00    +0.160 HD
ENDBRANCH  21  22
ENDBRANCH  20  21
ENDBRANCH   3  20
TORSDOF 4
