REMARK  Name = ZINC22874242
REMARK  7 active torsions:
REMARK  status: ('A' for Active; 'I' for Inactive)
REMARK    1  A    between atoms: C_1  and  C_2
REMARK    2  A    between atoms: C_2  and  N_3
REMARK    3  A    between atoms: N_6  and  C_9
REMARK    4  A    between atoms: C_9  and  N_10
REMARK    5  A    between atoms: N_13  and  C_26
REMARK    6  A    between atoms: C_14  and  C_16
REMARK    7  A    between atoms: C_26  and  C_27
REMARK                            x       y       z     vdW  Elec       q    Type
REMARK                         _______ _______ _______ _____ _____    ______ ____
ROOT
ATOM      1  N   UNL     1      -4.853  -4.018  -1.619  0.00  0.00    -0.226 N 
ATOM      2  C   UNL     1      -5.232  -4.547  -2.800  0.00  0.00    +0.180 A 
ATOM      3  S   UNL     1      -5.891  -3.689  -4.127  0.00  0.00    -0.011 S 
ATOM      4  N   UNL     1      -4.996  -5.873  -2.749  0.00  0.00    -0.300 N 
ATOM      5  C   UNL     1      -4.462  -6.171  -1.511  0.00  0.00    +0.165 A 
ATOM      6  N   UNL     1      -4.365  -5.065  -0.825  0.00  0.00    -0.149 NA
ENDROOT
BRANCH   5   7
ATOM      7  C   UNL     1      -4.061  -7.514  -1.044  0.00  0.00    +0.044 A 
ATOM      8  C   UNL     1      -4.048  -8.657  -1.777  0.00  0.00    +0.095 A 
ATOM      9  N   UNL     1      -3.618  -9.695  -1.004  0.00  0.00    -0.360 N 
ATOM     10  H   UNL     1      -3.526 -10.611  -1.307  0.00  0.00    +0.165 HD
ATOM     11  C   UNL     1      -3.334  -9.254   0.271  0.00  0.00    +0.047 A 
ATOM     12  C   UNL     1      -3.590  -7.872   0.304  0.00  0.00    +0.010 A 
ATOM     13  C   UNL     1      -3.383  -7.152   1.479  0.00  0.00    +0.011 A 
ATOM     14  C   UNL     1      -2.923  -7.801   2.604  0.00  0.00    +0.001 A 
ATOM     15  C   UNL     1      -2.666  -9.164   2.571  0.00  0.00    +0.002 A 
ATOM     16  C   UNL     1      -2.874  -9.890   1.419  0.00  0.00    +0.026 A 
ENDBRANCH   5   7
BRANCH   1  17
ATOM     17  C   UNL     1      -4.933  -2.606  -1.237  0.00  0.00    +0.232 C 
BRANCH  17  21
ATOM     18  N   UNL     1      -1.516  -0.281  -0.350  0.00  0.00    +0.381 N 
ATOM     19  C   UNL     1      -2.247   0.012  -1.590  0.00  0.00    -0.063 C 
ATOM     20  C   UNL     1      -3.664  -0.559  -1.493  0.00  0.00    +0.067 C 
ATOM     21  N   UNL     1      -3.590  -2.011  -1.279  0.00  0.00    -0.287 NA
ATOM     22  C   UNL     1      -2.839  -2.321  -0.054  0.00  0.00    +0.067 C 
ATOM     23  C   UNL     1      -1.429  -1.736  -0.163  0.00  0.00    -0.063 C 
ATOM     24  H   UNL     1      -2.002   0.130   0.432  0.00  0.00    -0.082 HD
BRANCH  18  26
ATOM     25  C   UNL     1      -0.248   1.808  -0.506  0.00  0.00    -0.017 C 
ATOM     26  C   UNL     1      -0.162   0.282  -0.436  0.00  0.00    -0.082 C 
ENDBRANCH  18  26
ENDBRANCH  17  21
ENDBRANCH   1  17
BRANCH   4  27
ATOM     27  C   UNL     1      -5.263  -6.834  -3.822  0.00  0.00    +0.157 C 
BRANCH  27  28
ATOM     28  C   UNL     1      -4.051  -6.908  -4.753  0.00  0.00    +0.138 C 
ATOM     29  C   UNL     1      -4.367  -7.827  -5.953  0.00  0.00    +0.035 C 
ATOM     30  C   UNL     1      -3.026  -8.585  -6.151  0.00  0.00    +0.031 C 
ATOM     31  C   UNL     1      -2.537  -8.704  -4.685  0.00  0.00    +0.160 C 
ATOM     32  O   UNL     1      -2.935  -7.474  -4.055  0.00  0.00    -0.375 OA
ENDBRANCH  27  28
ENDBRANCH   4  27
TORSDOF 6
