REMARK  Name = ZINC22900199
REMARK  6 active torsions:
REMARK  status: ('A' for Active; 'I' for Inactive)
REMARK    1  A    between atoms: C_1  and  N_2
REMARK    2  A    between atoms: N_7  and  C_8
REMARK    3  A    between atoms: C_8  and  C_10
REMARK    4  A    between atoms: C_10  and  N_11
REMARK    5  A    between atoms: C_12  and  C_14
REMARK    6  A    between atoms: C_18  and  N_20
REMARK                            x       y       z     vdW  Elec       q    Type
REMARK                         _______ _______ _______ _____ _____    ______ ____
ROOT
ATOM      1  N   UNL     1      -6.155   1.822   0.042  0.00  0.00    -0.303 N 
ATOM      2  C   UNL     1      -4.981   1.160   0.033  0.00  0.00    +0.245 C 
ATOM      3  O   UNL     1      -4.969  -0.056   0.026  0.00  0.00    -0.270 OA
ATOM      4  H   UNL     1      -6.165   2.922   0.047  0.00  0.00    +0.150 HD
ENDROOT
BRANCH   2   5
ATOM      5  C   UNL     1      -3.708   1.912   0.030  0.00  0.00    +0.039 A 
ATOM      6  C   UNL     1      -3.718   3.308   0.038  0.00  0.00    +0.013 A 
ATOM      7  C   UNL     1      -2.527   4.003   0.036  0.00  0.00    +0.003 A 
ATOM      8  C   UNL     1      -1.323   3.320   0.032  0.00  0.00    +0.033 A 
ATOM      9  C   UNL     1      -1.306   1.936   0.019  0.00  0.00    +0.127 A 
ATOM     10  C   UNL     1      -2.491   1.229   0.021  0.00  0.00    +0.045 A 
BRANCH   9  11
ATOM     11  N   UNL     1      -0.014   1.214   0.009  0.00  0.00    +0.056 N 
ATOM     12  O   UNL     1       0.002  -0.004   0.002  0.00  0.00    -0.126 OA
ATOM     13  O   UNL     1       1.032   1.837   0.002  0.00  0.00    -0.126 OA
ENDBRANCH   9  11
ENDBRANCH   2   5
BRANCH   1  14
ATOM     14  C   UNL     1      -7.416   1.078   0.044  0.00  0.00    +0.202 C 
BRANCH  14  15
ATOM     15  C   UNL     1      -8.571   2.046   0.055  0.00  0.00    +0.256 C 
ATOM     16  O   UNL     1      -8.360   3.244   0.060  0.00  0.00    -0.272 OA
BRANCH  15  23
ATOM     17  C   UNL     1     -12.664   0.803   0.068  0.00  0.00    +0.150 C 
ATOM     18  N   UNL     1     -12.178   2.185   0.073  0.00  0.00    -0.331 N 
ATOM     19  C   UNL     1     -13.053   3.224   0.083  0.00  0.00    +0.094 A 
ATOM     20  C   UNL     1     -12.569   4.471   0.087  0.00  0.00    +0.066 A 
ATOM     21  S   UNL     1     -10.808   4.183   0.084  0.00  0.00    -0.061 S 
ATOM     22  C   UNL     1     -10.841   2.449   0.068  0.00  0.00    +0.165 A 
ATOM     23  N   UNL     1      -9.818   1.591   0.059  0.00  0.00    -0.155 NA
ENDBRANCH  15  23
ENDBRANCH  14  15
ENDBRANCH   1  14
TORSDOF 5
