REMARK  Name = ZINC09451206
REMARK  8 active torsions:
REMARK  status: ('A' for Active; 'I' for Inactive)
REMARK    1  A    between atoms: C_1  and  C_2
REMARK    2  A    between atoms: C_2  and  N_3
REMARK    3  A    between atoms: N_3  and  C_4
REMARK    4  A    between atoms: C_4  and  C_5
REMARK    5  A    between atoms: C_16  and  C_18
REMARK    6  A    between atoms: C_18  and  N_19
REMARK    7  A    between atoms: C_22  and  C_27
REMARK    8  A    between atoms: C_27  and  C_28
REMARK                            x       y       z     vdW  Elec       q    Type
REMARK                         _______ _______ _______ _____ _____    ______ ____
ROOT
ATOM      1  N   UNL     1      -4.612  -0.238  -2.128  0.00  0.00    -0.216 N 
ATOM      2  C   UNL     1      -4.541   0.914  -1.433  0.00  0.00    +0.244 C 
ATOM      3  O   UNL     1      -5.460   1.521  -0.926  0.00  0.00    -0.273 OA
ATOM      4  C   UNL     1      -3.073   1.293  -1.416  0.00  0.00    +0.165 C 
ATOM      5  N   UNL     1      -2.427   0.208  -2.175  0.00  0.00    -0.287 N 
ATOM      6  C   UNL     1      -3.405  -0.636  -2.549  0.00  0.00    +0.310 C 
ATOM      7  O   UNL     1      -3.215  -1.647  -3.195  0.00  0.00    -0.252 OA
ATOM      8  H   UNL     1      -1.480   0.120  -2.368  0.00  0.00    +0.151 HD
ENDROOT
BRANCH   1   9
ATOM      9  C   UNL     1      -5.856  -0.965  -2.392  0.00  0.00    +0.213 C 
BRANCH   9  11
ATOM     10  N   UNL     1      -7.614  -1.008  -4.132  0.00  0.00    -0.297 N 
ATOM     11  C   UNL     1      -6.458  -0.478  -3.685  0.00  0.00    +0.234 C 
ATOM     12  O   UNL     1      -5.902   0.391  -4.323  0.00  0.00    -0.274 OA
BRANCH  10  14
ATOM     13  C   UNL     1      -9.259  -1.418  -2.369  0.00  0.00    +0.024 C 
ATOM     14  C   UNL     1      -8.285  -2.057  -3.361  0.00  0.00    +0.104 C 
ENDBRANCH  10  14
BRANCH  10  15
ATOM     15  C   UNL     1      -8.199  -0.534  -5.389  0.00  0.00    +0.155 C 
BRANCH  15  16
ATOM     16  C   UNL     1      -7.662  -1.374  -6.550  0.00  0.00    +0.228 C 
ATOM     17  C   UNL     1      -8.198  -0.823  -7.878  0.00  0.00    +0.275 C 
ATOM     18  O   UNL     1      -7.689  -1.638  -8.939  0.00  0.00    -0.485 OA
ATOM     19  C   UNL     1      -7.765  -2.986  -8.766  0.00  0.00    +0.162 A 
ATOM     20  C   UNL     1      -7.631  -3.822  -9.864  0.00  0.00    +0.049 A 
ATOM     21  C   UNL     1      -7.699  -5.193  -9.703  0.00  0.00    +0.004 A 
ATOM     22  C   UNL     1      -7.901  -5.734  -8.447  0.00  0.00    +0.004 A 
ATOM     23  C   UNL     1      -8.037  -4.907  -7.349  0.00  0.00    +0.049 A 
ATOM     24  C   UNL     1      -7.970  -3.530  -7.504  0.00  0.00    +0.163 A 
ATOM     25  O   UNL     1      -8.109  -2.727  -6.413  0.00  0.00    -0.480 OA
ENDBRANCH  15  16
ENDBRANCH  10  15
ENDBRANCH   9  11
ENDBRANCH   1   9
BRANCH   4  26
ATOM     26  C   UNL     1      -2.545   1.335   0.020  0.00  0.00    +0.069 C 
BRANCH  26  27
ATOM     27  C   UNL     1      -1.122   1.831   0.017  0.00  0.00    -0.020 A 
ATOM     28  C   UNL     1      -0.013   1.076   0.008  0.00  0.00    +0.087 A 
ATOM     29  N   UNL     1       1.097   1.876   0.002  0.00  0.00    -0.360 N 
ATOM     30  H   UNL     1       2.014   1.559  -0.008  0.00  0.00    +0.165 HD
ATOM     31  C   UNL     1       0.719   3.200   0.012  0.00  0.00    +0.047 A 
ATOM     32  C   UNL     1      -0.688   3.230   0.026  0.00  0.00    +0.003 A 
ATOM     33  C   UNL     1      -1.358   4.455   0.039  0.00  0.00    +0.010 A 
ATOM     34  C   UNL     1      -0.643   5.620   0.039  0.00  0.00    +0.001 A 
ATOM     35  C   UNL     1       0.744   5.595   0.026  0.00  0.00    +0.002 A 
ATOM     36  C   UNL     1       1.426   4.398   0.013  0.00  0.00    +0.026 A 
ENDBRANCH  26  27
ENDBRANCH   4  26
TORSDOF 7
