REMARK  Name = ZINC08298919
REMARK  8 active torsions:
REMARK  status: ('A' for Active; 'I' for Inactive)
REMARK    1  A    between atoms: C_1  and  C_2
REMARK    2  A    between atoms: C_2  and  C_3
REMARK    3  A    between atoms: C_2  and  C_4
REMARK    4  A    between atoms: C_2  and  C_5
REMARK    5  A    between atoms: N_7  and  C_10
REMARK    6  A    between atoms: C_10  and  C_11
REMARK    7  A    between atoms: C_20  and  C_22
REMARK    8  A    between atoms: N_24  and  C_25
REMARK                            x       y       z     vdW  Elec       q    Type
REMARK                         _______ _______ _______ _____ _____    ______ ____
ROOT
ATOM      1  C   UNL     1       0.002  -0.004   0.002  0.00  0.00    -0.046 C 
ATOM      2  C   UNL     1       0.609  -0.500  -1.314  0.00  0.00    -0.010 C 
ATOM      3  C   UNL     1       1.857  -1.333  -1.000  0.00  0.00    -0.004 C 
ATOM      4  C   UNL     1       1.464  -2.520  -0.112  0.00  0.00    -0.015 C 
ATOM      5  C   UNL     1       0.819  -1.958   1.179  0.00  0.00    -0.078 C 
ATOM      6  N   UNL     1       0.814  -0.489   1.126  0.00  0.00    +0.383 N 
ATOM      7  C   UNL     1       2.183   0.039   1.056  0.00  0.00    -0.065 C 
ATOM      8  C   UNL     1       2.852  -0.455  -0.231  0.00  0.00    +0.061 C 
ATOM      9  H   UNL     1       0.356  -0.119   2.056  0.00  0.00    -0.081 HD
ENDROOT
BRANCH   8  10
ATOM     10  C   UNL     1       3.245   0.726  -1.080  0.00  0.00    +0.215 C 
ATOM     11  O   UNL     1       2.788   0.849  -2.197  0.00  0.00    -0.276 OA
ATOM     12  N   UNL     1       4.106   1.645  -0.600  0.00  0.00    -0.312 N 
ATOM     13  H   UNL     1       4.521   1.534   0.413  0.00  0.00    +0.149 HD
BRANCH  12  14
ATOM     14  C   UNL     1       4.489   2.793  -1.426  0.00  0.00    +0.073 C 
ATOM     15  C   UNL     1       5.650   2.398  -2.341  0.00  0.00    +0.022 C 
ATOM     16  C   UNL     1       6.049   3.597  -3.204  0.00  0.00    +0.002 C 
ATOM     17  C   UNL     1       6.482   4.754  -2.301  0.00  0.00    +0.000 C 
ATOM     18  C   UNL     1       5.321   5.148  -1.386  0.00  0.00    +0.002 C 
ATOM     19  C   UNL     1       4.921   3.950  -0.523  0.00  0.00    +0.022 C 
ENDBRANCH  12  14
ENDBRANCH   8  10
BRANCH   1  20
ATOM     20  C   UNL     1      -0.019   1.526   0.010  0.00  0.00    +0.130 C 
BRANCH  20  23
ATOM     21  C   UNL     1      -1.160   3.017   3.070  0.00  0.00    +0.088 A 
ATOM     22  C   UNL     1      -0.198   2.857   2.131  0.00  0.00    +0.134 A 
ATOM     23  N   UNL     1      -0.704   1.998   1.216  0.00  0.00    -0.253 N 
ATOM     24  N   UNL     1      -1.894   1.672   1.584  0.00  0.00    -0.065 NA
ATOM     25  N   UNL     1      -2.193   2.258   2.689  0.00  0.00    -0.134 NA
BRANCH  21  27
ATOM     26  C   UNL     1      -1.232   5.351   3.906  0.00  0.00    +0.017 C 
ATOM     27  C   UNL     1      -1.081   3.880   4.303  0.00  0.00    +0.008 C 
ATOM     28  C   UNL     1      -2.204   3.494   5.268  0.00  0.00    +0.017 C 
ATOM     29  C   UNL     1       0.272   3.673   4.985  0.00  0.00    +0.017 C 
ENDBRANCH  21  27
ENDBRANCH  20  23
ENDBRANCH   1  20
TORSDOF 5
