REMARK  Name = ZINC39947151
REMARK  5 active torsions:
REMARK  status: ('A' for Active; 'I' for Inactive)
REMARK    1  A    between atoms: C_1  and  C_2
REMARK    2  A    between atoms: C_2  and  C_4
REMARK    3  A    between atoms: C_2  and  S_15
REMARK    4  A    between atoms: S_15  and  C_16
REMARK    5  A    between atoms: C_20  and  C_22
REMARK                            x       y       z     vdW  Elec       q    Type
REMARK                         _______ _______ _______ _____ _____    ______ ____
ROOT
ATOM      1  C   UNL     1      -2.347  -0.091   1.627  0.00  0.00    +0.340 C 
ATOM      2  N   UNL     1      -1.514  -0.607   2.726  0.00  0.00    -0.219 N 
ATOM      3  N   UNL     1      -1.011   0.527   3.381  0.00  0.00    -0.145 NA
ATOM      4  C   UNL     1      -1.448   1.612   2.799  0.00  0.00    +0.238 C 
ATOM      5  O   UNL     1      -2.254   1.335   1.742  0.00  0.00    -0.443 OA
ATOM      6  H   UNL     1      -1.347  -1.536   2.951  0.00  0.00    +0.173 HD
ENDROOT
BRANCH   4   7
ATOM      7  C   UNL     1      -1.124   2.910   3.218  0.00  0.00    +0.043 C 
ATOM      8  C   UNL     1      -0.303   3.272   4.287  0.00  0.00    +0.008 A 
ATOM      9  C   UNL     1       0.421   2.514   5.232  0.00  0.00    +0.010 A 
ATOM     10  C   UNL     1       1.153   3.146   6.184  0.00  0.00    +0.001 A 
ATOM     11  C   UNL     1       1.212   4.540   6.256  0.00  0.00    +0.002 A 
ATOM     12  C   UNL     1       0.543   5.330   5.381  0.00  0.00    +0.026 A 
ATOM     13  C   UNL     1      -0.244   4.741   4.358  0.00  0.00    +0.043 A 
ATOM     14  N   UNL     1      -0.976   5.278   3.402  0.00  0.00    -0.380 N 
ATOM     15  C   UNL     1      -1.586   4.212   2.602  0.00  0.00    +0.154 C 
ATOM     16  H   UNL     1      -1.091   6.229   3.250  0.00  0.00    +0.160 HD
ENDBRANCH   4   7
BRANCH   1  17
ATOM     17  S   UNL     1      -1.694  -0.641   0.026  0.00  0.00    -0.084 S 
BRANCH  17  19
ATOM     18  C   UNL     1      -0.034   1.533  -0.010  0.00  0.00    +0.029 C 
ATOM     19  C   UNL     1       0.002   0.003  -0.001  0.00  0.00    +0.135 C 
BRANCH  19  20
ATOM     20  C   UNL     1       0.707  -0.490  -1.238  0.00  0.00    +0.233 C 
ATOM     21  O   UNL     1       0.063  -0.874  -2.191  0.00  0.00    -0.274 OA
ATOM     22  N   UNL     1       2.054  -0.505  -1.285  0.00  0.00    -0.270 N 
ATOM     23  C   UNL     1       2.938  -0.180  -0.162  0.00  0.00    +0.118 C 
ATOM     24  C   UNL     1       4.364  -0.341  -0.711  0.00  0.00    +0.056 C 
ATOM     25  C   UNL     1       4.173  -0.759  -2.152  0.00  0.00    -0.024 A 
ATOM     26  C   UNL     1       2.813  -0.839  -2.411  0.00  0.00    +0.040 A 
ATOM     27  C   UNL     1       2.387  -1.215  -3.686  0.00  0.00    +0.024 A 
ATOM     28  C   UNL     1       3.309  -1.506  -4.669  0.00  0.00    +0.002 A 
ATOM     29  C   UNL     1       4.663  -1.428  -4.399  0.00  0.00    +0.000 A 
ATOM     30  C   UNL     1       5.093  -1.047  -3.141  0.00  0.00    +0.005 A 
ENDBRANCH  19  20
ENDBRANCH  17  19
ENDBRANCH   1  17
TORSDOF 4
