REMARK  Name = ZINC48605029
REMARK  10 active torsions:
REMARK  status: ('A' for Active; 'I' for Inactive)
REMARK    1  A    between atoms: C_1  and  C_2
REMARK    2  A    between atoms: C_2  and  C_3
REMARK    3  A    between atoms: N_5  and  C_6
REMARK    4  A    between atoms: C_9  and  N_12
REMARK    5  A    between atoms: C_13  and  C_15
REMARK    6  A    between atoms: N_17  and  C_18
REMARK    7  A    between atoms: C_20  and  C_26
REMARK    8  A    between atoms: C_20  and  C_27
REMARK    9  A    between atoms: C_22  and  C_24
REMARK   10  A    between atoms: C_22  and  C_25
REMARK                            x       y       z     vdW  Elec       q    Type
REMARK                         _______ _______ _______ _____ _____    ______ ____
ROOT
ATOM      1  N   UNL     1       3.952  -3.856   5.596  0.00  0.00    -0.278 N 
ATOM      2  C   UNL     1       4.170  -5.183   5.673  0.00  0.00    +0.303 C 
ATOM      3  O   UNL     1       3.659  -5.930   4.864  0.00  0.00    -0.265 OA
ATOM      4  H   UNL     1       4.308  -3.265   6.278  0.00  0.00    +0.155 HD
ENDROOT
BRANCH   1   8
ATOM      5  C   UNL     1       1.746  -2.286   2.427  0.00  0.00    +0.033 A 
ATOM      6  C   UNL     1       1.415  -3.527   2.956  0.00  0.00    +0.025 A 
ATOM      7  C   UNL     1       2.146  -4.047   4.005  0.00  0.00    +0.025 A 
ATOM      8  C   UNL     1       3.212  -3.329   4.532  0.00  0.00    +0.034 A 
ATOM      9  C   UNL     1       3.543  -2.088   4.003  0.00  0.00    +0.025 A 
ATOM     10  C   UNL     1       2.816  -1.571   2.950  0.00  0.00    +0.025 A 
BRANCH   5  13
ATOM     11  C   UNL     1       1.620  -1.029   0.409  0.00  0.00    +0.217 C 
ATOM     12  O   UNL     1       2.798  -0.763   0.515  0.00  0.00    -0.275 OA
ATOM     13  N   UNL     1       1.005  -1.758   1.362  0.00  0.00    -0.286 N 
ATOM     14  H   UNL     1       0.050  -1.917   1.311  0.00  0.00    +0.155 HD
BRANCH  11  16
ATOM     15  C   UNL     1       1.768   0.252  -1.708  0.00  0.00    +0.013 C 
ATOM     16  C   UNL     1       0.842  -0.545  -0.787  0.00  0.00    +0.093 C 
ENDBRANCH  11  16
ENDBRANCH   5  13
ENDBRANCH   1   8
BRANCH   2  17
ATOM     17  C   UNL     1       5.041  -5.736   6.753  0.00  0.00    +0.300 C 
ATOM     18  O   UNL     1       5.552  -4.989   7.561  0.00  0.00    -0.265 OA
ATOM     19  N   UNL     1       5.259  -7.063   6.829  0.00  0.00    -0.305 N 
ATOM     20  H   UNL     1       4.850  -7.660   6.183  0.00  0.00    +0.149 HD
BRANCH  19  21
ATOM     21  C   UNL     1       6.116  -7.606   7.891  0.00  0.00    +0.071 C 
ATOM     22  C   UNL     1       7.573  -7.577   7.426  0.00  0.00    +0.009 C 
ATOM     23  C   UNL     1       8.476  -8.151   8.517  0.00  0.00    -0.072 C 
ATOM     24  N   UNL     1       8.052  -9.478   8.938  0.00  0.00    +0.386 N 
ATOM     25  C   UNL     1       6.638  -9.679   9.213  0.00  0.00    -0.072 C 
ATOM     26  C   UNL     1       5.727  -9.060   8.158  0.00  0.00    +0.009 C 
ATOM     27  C   UNL     1       6.252  -9.167  10.602  0.00  0.00    -0.010 C 
ATOM     28  C   UNL     1       6.377 -11.205   9.206  0.00  0.00    -0.010 C 
ATOM     29  C   UNL     1       8.572  -7.177   9.691  0.00  0.00    -0.010 C 
ATOM     30  C   UNL     1       9.894  -8.284   7.914  0.00  0.00    -0.010 C 
ATOM     31  H   UNL     1       8.340 -10.149   8.222  0.00  0.00    -0.084 HD
ATOM     32  H   UNL     1       8.583  -9.734   9.774  0.00  0.00    -0.084 HD
ENDBRANCH  19  21
ENDBRANCH   2  17
TORSDOF 5
