REMARK  Name = ZINC46056132
REMARK  9 active torsions:
REMARK  status: ('A' for Active; 'I' for Inactive)
REMARK    1  A    between atoms: C_1  and  C_2
REMARK    2  A    between atoms: C_2  and  C_3
REMARK    3  A    between atoms: C_10  and  C_29
REMARK    4  A    between atoms: C_11  and  S_15
REMARK    5  A    between atoms: S_15  and  N_18
REMARK    6  A    between atoms: N_18  and  C_19
REMARK    7  A    between atoms: N_18  and  C_20
REMARK    8  A    between atoms: C_20  and  C_21
REMARK    9  A    between atoms: N_23  and  C_24
REMARK                            x       y       z     vdW  Elec       q    Type
REMARK                         _______ _______ _______ _____ _____    ______ ____
ROOT
ATOM      1  C   UNL     1       1.607  -4.115  -3.084  0.00  0.00    +0.259 C 
ATOM      2  C   UNL     1       0.654  -4.149  -1.916  0.00  0.00    +0.258 C 
ATOM      3  O   UNL     1       0.932  -4.789  -0.923  0.00  0.00    -0.271 OA
ATOM      4  N   UNL     1      -0.507  -3.465  -1.979  0.00  0.00    -0.280 N 
ATOM      5  C   UNL     1      -0.751  -2.632  -3.079  0.00  0.00    +0.076 A 
ATOM      6  C   UNL     1      -2.011  -2.097  -3.292  0.00  0.00    +0.032 A 
ATOM      7  C   UNL     1      -2.239  -1.287  -4.389  0.00  0.00    -0.022 A 
ATOM      8  C   UNL     1      -1.213  -1.011  -5.274  0.00  0.00    +0.112 A 
ATOM      9  C   UNL     1       0.048  -1.538  -5.065  0.00  0.00    +0.076 A 
ATOM     10  C   UNL     1       0.285  -2.345  -3.965  0.00  0.00    +0.145 A 
ATOM     11  O   UNL     1       1.528  -2.843  -3.731  0.00  0.00    -0.478 OA
ATOM     12  C   UNL     1      -3.609  -0.704  -4.621  0.00  0.00    +0.046 C 
ATOM     13  H   UNL     1      -1.165  -3.549  -1.272  0.00  0.00    +0.155 HD
ENDROOT
BRANCH   8  14
ATOM     14  S   UNL     1      -1.515   0.016  -6.674  0.00  0.00    +0.061 S 
ATOM     15  O   UNL     1      -2.102  -0.814  -7.667  0.00  0.00    -0.153 OA
ATOM     16  O   UNL     1      -2.152   1.189  -6.188  0.00  0.00    -0.153 OA
BRANCH  14  17
ATOM     17  N   UNL     1      -0.040   0.487  -7.262  0.00  0.00    -0.171 NA
ATOM     18  C   UNL     1       0.723  -0.411  -8.133  0.00  0.00    +0.132 C 
BRANCH  17  19
ATOM     19  C   UNL     1       0.502   1.802  -6.912  0.00  0.00    +0.204 C 
BRANCH  19  20
ATOM     20  C   UNL     1       1.501   1.652  -5.793  0.00  0.00    +0.229 C 
ATOM     21  O   UNL     1       1.756   0.552  -5.352  0.00  0.00    -0.274 OA
ATOM     22  N   UNL     1       2.110   2.741  -5.284  0.00  0.00    -0.311 N 
ATOM     23  H   UNL     1       1.906   3.621  -5.637  0.00  0.00    +0.149 HD
BRANCH  22  24
ATOM     24  C   UNL     1       3.081   2.595  -4.196  0.00  0.00    +0.073 C 
ATOM     25  C   UNL     1       2.358   2.631  -2.834  0.00  0.00    +0.022 C 
ATOM     26  C   UNL     1       3.331   3.402  -1.908  0.00  0.00    +0.002 C 
ATOM     27  C   UNL     1       3.902   4.494  -2.846  0.00  0.00    +0.002 C 
ATOM     28  C   UNL     1       4.063   3.780  -4.204  0.00  0.00    +0.022 C 
ENDBRANCH  22  24
ENDBRANCH  19  20
ENDBRANCH  17  19
ENDBRANCH  14  17
ENDBRANCH   8  14
BRANCH   1  30
ATOM     29  C   UNL     1       2.272  -5.265  -5.201  0.00  0.00    +0.008 C 
ATOM     30  C   UNL     1       1.232  -5.216  -4.079  0.00  0.00    +0.051 C 
ENDBRANCH   1  30
TORSDOF 6
