REMARK  Name = ZINC02360153
REMARK  7 active torsions:
REMARK  status: ('A' for Active; 'I' for Inactive)
REMARK    1  A    between atoms: C_1  and  C_2
REMARK    2  A    between atoms: C_2  and  C_3
REMARK    3  A    between atoms: C_2  and  C_4
REMARK    4  A    between atoms: C_4  and  C_5
REMARK    5  A    between atoms: C_11  and  C_13
REMARK    6  A    between atoms: C_15  and  C_19
REMARK    7  A    between atoms: C_24  and  O_25
REMARK                            x       y       z     vdW  Elec       q    Type
REMARK                         _______ _______ _______ _____ _____    ______ ____
ROOT
ATOM      1  C   UNL     1      -1.351  -8.346  -0.902  0.00  0.00    +0.121 A 
ATOM      2  C   UNL     1      -1.316  -9.516  -0.166  0.00  0.00    +0.062 A 
ATOM      3  C   UNL     1      -1.330 -10.553  -1.117  0.00  0.00    +0.097 A 
ATOM      4  N   UNL     1      -1.370  -9.998  -2.310  0.00  0.00    -0.173 NA
ATOM      5  N   UNL     1      -1.390  -8.717  -2.217  0.00  0.00    -0.272 N 
ATOM      6  H   UNL     1      -1.423  -8.104  -2.968  0.00  0.00    +0.189 HD
ENDROOT
BRANCH   1  13
ATOM      7  C   UNL     1      -1.416  -2.035  -0.119  0.00  0.00    +0.104 A 
ATOM      8  N   UNL     1      -1.372  -2.967   0.812  0.00  0.00    -0.145 NA
ATOM      9  N   UNL     1      -1.364  -4.196   0.532  0.00  0.00    -0.126 NA
ATOM     10  C   UNL     1      -1.399  -4.628  -0.721  0.00  0.00    +0.188 A 
ATOM     11  S   UNL     1      -1.457  -3.061  -1.586  0.00  0.00    -0.035 S 
ATOM     12  N   UNL     1      -1.397  -5.925  -1.220  0.00  0.00    -0.258 N 
ATOM     13  C   UNL     1      -1.354  -6.973  -0.373  0.00  0.00    +0.268 C 
ATOM     14  O   UNL     1      -1.317  -6.783   0.828  0.00  0.00    -0.268 OA
ATOM     15  H   UNL     1      -1.426  -6.077  -2.178  0.00  0.00    +0.157 HD
BRANCH   7  16
ATOM     16  C   UNL     1      -1.433  -0.534   0.013  0.00  0.00    +0.068 C 
BRANCH  16  18
ATOM     17  C   UNL     1      -0.019   1.526   0.010  0.00  0.00    +0.007 C 
ATOM     18  C   UNL     1       0.002  -0.004   0.002  0.00  0.00    -0.011 C 
ATOM     19  C   UNL     1       0.742  -0.511   1.242  0.00  0.00    +0.007 C 
ENDBRANCH  16  18
ENDBRANCH   7  16
ENDBRANCH   1  13
BRANCH   3  20
ATOM     20  C   UNL     1      -1.303 -12.008  -0.828  0.00  0.00    +0.045 A 
ATOM     21  C   UNL     1      -1.267 -12.459   0.490  0.00  0.00    +0.033 A 
ATOM     22  C   UNL     1      -1.243 -13.814   0.754  0.00  0.00    +0.042 A 
ATOM     23  C   UNL     1      -1.254 -14.727  -0.287  0.00  0.00    +0.023 A 
ATOM     24  C   UNL     1      -1.291 -14.290  -1.597  0.00  0.00    +0.047 A 
ATOM     25  C   UNL     1      -1.321 -12.932  -1.875  0.00  0.00    +0.126 A 
ATOM     26 CL   UNL     1      -1.197 -14.375   2.396  0.00  0.00    -0.084 Cl
BRANCH  25  27
ATOM     27  O   UNL     1      -1.363 -12.502  -3.163  0.00  0.00    -0.506 OA
ATOM     28  H   UNL     1      -0.492 -12.366  -3.561  0.00  0.00    +0.292 HD
ENDBRANCH  25  27
ENDBRANCH   3  20
TORSDOF 5
