REMARK  Name = ZINC36364777
REMARK  6 active torsions:
REMARK  status: ('A' for Active; 'I' for Inactive)
REMARK    1  A    between atoms: C_1  and  N_2
REMARK    2  A    between atoms: C_19  and  O_30
REMARK    3  A    between atoms: N_20  and  C_21
REMARK    4  A    between atoms: C_21  and  C_22
REMARK    5  A    between atoms: C_22  and  C_23
REMARK    6  A    between atoms: C_23  and  N_24
REMARK                            x       y       z     vdW  Elec       q    Type
REMARK                         _______ _______ _______ _____ _____    ______ ____
ROOT
ATOM      1  C   UNL     1      -0.018   1.461   0.010  0.00  0.00    +0.138 C 
ATOM      2  N   UNL     1       0.002  -0.004   0.002  0.00  0.00    -0.270 N 
ATOM      3  C   UNL     1      -1.135  -0.793   0.003  0.00  0.00    +0.044 A 
ATOM      4  C   UNL     1      -2.478  -0.412   0.012  0.00  0.00    +0.024 A 
ATOM      5  C   UNL     1      -3.423  -1.426   0.012  0.00  0.00    +0.002 A 
ATOM      6  C   UNL     1      -3.066  -2.759   0.003  0.00  0.00    +0.001 A 
ATOM      7  C   UNL     1      -1.732  -3.151  -0.006  0.00  0.00    +0.010 A 
ATOM      8  C   UNL     1      -0.786  -2.148  -0.007  0.00  0.00    +0.027 A 
ATOM      9  C   UNL     1       0.710  -2.199  -0.015  0.00  0.00    +0.215 C 
ATOM     10  C   UNL     1       1.131  -0.743  -0.013  0.00  0.00    +0.269 C 
ATOM     11  O   UNL     1       2.268  -0.321  -0.021  0.00  0.00    -0.270 OA
ATOM     12  N   UNL     1       1.214  -2.866   1.184  0.00  0.00    -0.352 N 
ATOM     13  C   UNL     1       1.535  -4.148   1.165  0.00  0.00    +0.050 A 
ATOM     14  C   UNL     1       1.936  -4.827   2.336  0.00  0.00    +0.026 A 
ATOM     15  C   UNL     1       2.164  -6.167   2.287  0.00  0.00    +0.002 A 
ATOM     16  C   UNL     1       2.024  -6.894   1.106  0.00  0.00    +0.001 A 
ATOM     17  C   UNL     1       1.678  -6.293  -0.066  0.00  0.00    +0.015 A 
ATOM     18  C   UNL     1       1.466  -4.906  -0.093  0.00  0.00    +0.055 A 
ATOM     19  C   UNL     1       1.227  -4.214  -1.291  0.00  0.00    +0.192 C 
ATOM     20  N   UNL     1       1.201  -2.848  -1.230  0.00  0.00    -0.267 N 
ATOM     21  H   UNL     1       1.315  -2.360   2.005  0.00  0.00    +0.162 HD
ENDROOT
BRANCH  19  22
ATOM     22  O   UNL     1       1.031  -4.867  -2.450  0.00  0.00    -0.495 OA
ATOM     23  H   UNL     1       1.072  -5.830  -2.371  0.00  0.00    +0.293 HD
ENDBRANCH  19  22
BRANCH  20  24
ATOM     24  C   UNL     1       1.658  -2.046  -2.367  0.00  0.00    +0.112 C 
BRANCH  24  25
ATOM     25  C   UNL     1       3.156  -1.765  -2.224  0.00  0.00    +0.034 C 
BRANCH  25  26
ATOM     26  C   UNL     1       3.633  -0.928  -3.412  0.00  0.00    +0.086 C 
BRANCH  26  27
ATOM     27  N   UNL     1       5.071  -0.658  -3.274  0.00  0.00    -0.298 NA
ATOM     28  C   UNL     1       5.336   0.207  -2.115  0.00  0.00    +0.112 C 
ATOM     29  C   UNL     1       6.846   0.413  -1.974  0.00  0.00    +0.175 C 
ATOM     30  O   UNL     1       7.363   0.963  -3.190  0.00  0.00    -0.377 OA
ATOM     31  C   UNL     1       7.123   0.145  -4.339  0.00  0.00    +0.175 C 
ATOM     32  C   UNL     1       5.615  -0.064  -4.504  0.00  0.00    +0.112 C 
ENDBRANCH  26  27
ENDBRANCH  25  26
ENDBRANCH  24  25
ENDBRANCH  20  24
TORSDOF 5
