REMARK  Name = ZINC36238086
REMARK  4 active torsions:
REMARK  status: ('A' for Active; 'I' for Inactive)
REMARK    1  A    between atoms: C_1  and  C_2
REMARK    2  A    between atoms: C_9  and  C_19
REMARK    3  A    between atoms: C_10  and  C_11
REMARK    4  A    between atoms: C_11  and  N_12
REMARK                            x       y       z     vdW  Elec       q    Type
REMARK                         _______ _______ _______ _____ _____    ______ ____
ROOT
ATOM      1  C   UNL     1      -0.018   1.503   0.010  0.00  0.00    +0.044 C 
ATOM      2  C   UNL     1       0.002  -0.004   0.002  0.00  0.00    -0.046 A 
ATOM      3  C   UNL     1       0.006  -0.703  -1.216  0.00  0.00    +0.021 A 
ATOM      4  C   UNL     1       0.024  -2.052  -1.227  0.00  0.00    +0.093 A 
ATOM      5  N   UNL     1       0.039  -2.757  -0.058  0.00  0.00    -0.303 N 
ATOM      6  C   UNL     1       0.035  -2.103   1.147  0.00  0.00    +0.116 A 
ATOM      7  C   UNL     1       0.023  -0.694   1.174  0.00  0.00    +0.048 A 
ATOM      8  N   UNL     1       0.051  -3.010   2.112  0.00  0.00    -0.339 N 
ATOM      9  C   UNL     1       0.064  -4.236   1.564  0.00  0.00    +0.069 A 
ATOM     10  C   UNL     1       0.057  -4.098   0.209  0.00  0.00    +0.063 A 
ATOM     11  H   UNL     1       0.053  -2.820   3.063  0.00  0.00    +0.167 HD
ENDROOT
BRANCH   9  12
ATOM     12  C   UNL     1       0.083  -5.520   2.307  0.00  0.00    +0.002 A 
ATOM     13  C   UNL     1       0.952  -6.538   1.918  0.00  0.00    +0.014 A 
ATOM     14  C   UNL     1       0.972  -7.734   2.609  0.00  0.00    +0.048 A 
ATOM     15  C   UNL     1       0.128  -7.924   3.689  0.00  0.00    +0.142 A 
ATOM     16  C   UNL     1      -0.745  -6.909   4.083  0.00  0.00    +0.076 A 
ATOM     17  C   UNL     1      -0.764  -5.707   3.398  0.00  0.00    +0.037 A 
ATOM     18  N   UNL     1      -1.594  -7.121   5.179  0.00  0.00    -0.280 N 
ATOM     19  C   UNL     1      -1.339  -8.150   6.015  0.00  0.00    +0.255 C 
ATOM     20  O   UNL     1      -2.076  -8.371   6.952  0.00  0.00    -0.272 OA
ATOM     21  C   UNL     1      -0.133  -9.024   5.779  0.00  0.00    +0.325 C 
ATOM     22  O   UNL     1       0.140  -9.098   4.377  0.00  0.00    -0.481 OA
ATOM     23  H   UNL     1      -2.352  -6.537   5.334  0.00  0.00    +0.155 HD
ENDBRANCH   9  12
BRANCH  10  24
ATOM     24  C   UNL     1       0.066  -5.213  -0.805  0.00  0.00    +0.140 C 
BRANCH  24  25
ATOM     25  N   UNL     1       1.454  -5.558  -1.141  0.00  0.00    -0.299 NA
ATOM     26  C   UNL     1       2.148  -4.412  -1.773  0.00  0.00    +0.083 C 
ATOM     27  C   UNL     1       3.631  -4.572  -1.556  0.00  0.00    -0.004 C 
ATOM     28  C   UNL     1       4.322  -5.312  -2.712  0.00  0.00    -0.081 C 
ATOM     29  N   UNL     1       3.537  -6.468  -3.200  0.00  0.00    +0.380 N 
ATOM     30  C   UNL     1       2.950  -7.226  -2.119  0.00  0.00    -0.067 C 
ATOM     31  C   UNL     1       1.508  -6.731  -1.901  0.00  0.00    +0.066 C 
ATOM     32  H   UNL     1       2.800  -6.132  -3.802  0.00  0.00    -0.086 HD
ATOM     33  H   UNL     1       4.143  -7.073  -3.733  0.00  0.00    -0.086 HD
ENDBRANCH  24  25
ENDBRANCH  10  24
TORSDOF 3
