REMARK  Name = ZINC23478242
REMARK  6 active torsions:
REMARK  status: ('A' for Active; 'I' for Inactive)
REMARK    1  A    between atoms: C_1  and  C_2
REMARK    2  A    between atoms: C_7  and  C_11
REMARK    3  A    between atoms: C_14  and  N_17
REMARK    4  A    between atoms: C_20  and  N_23
REMARK    5  A    between atoms: N_23  and  C_24
REMARK    6  A    between atoms: N_26  and  C_29
REMARK                            x       y       z     vdW  Elec       q    Type
REMARK                         _______ _______ _______ _____ _____    ______ ____
ROOT
ATOM      1  C   UNL     1       3.404   0.848  -5.997  0.00  0.00    +0.002 A 
ATOM      2  C   UNL     1       2.189   1.531  -6.031  0.00  0.00    +0.012 A 
ATOM      3  C   UNL     1       1.521   1.805  -4.856  0.00  0.00    +0.024 A 
ATOM      4  C   UNL     1       2.057   1.402  -3.639  0.00  0.00    +0.030 A 
ATOM      5  C   UNL     1       3.271   0.726  -3.603  0.00  0.00    +0.024 A 
ATOM      6  C   UNL     1       3.940   0.444  -4.776  0.00  0.00    +0.012 A 
ENDROOT
BRANCH   1  13
ATOM      7  C   UNL     1       5.809   0.097 -12.943  0.00  0.00    +0.044 C 
ATOM      8  C   UNL     1       5.730   0.012 -11.441  0.00  0.00    -0.046 A 
ATOM      9  C   UNL     1       6.751  -0.622 -10.715  0.00  0.00    +0.021 A 
ATOM     10  C   UNL     1       6.683  -0.699  -9.369  0.00  0.00    +0.093 A 
ATOM     11  N   UNL     1       5.624  -0.164  -8.694  0.00  0.00    -0.306 N 
ATOM     12  C   UNL     1       5.314  -0.104  -7.364  0.00  0.00    +0.121 A 
ATOM     13  C   UNL     1       4.125   0.553  -7.260  0.00  0.00    +0.090 A 
ATOM     14  N   UNL     1       3.715   0.881  -8.495  0.00  0.00    -0.228 NA
ATOM     15  C   UNL     1       4.611   0.462  -9.376  0.00  0.00    +0.138 A 
ATOM     16  C   UNL     1       4.668   0.550 -10.782  0.00  0.00    +0.050 A 
ENDBRANCH   1  13
BRANCH   4  17
ATOM     17  N   UNL     1       1.379   1.681  -2.451  0.00  0.00    -0.330 N 
ATOM     18  C   UNL     1       2.118   1.169  -1.290  0.00  0.00    +0.107 C 
ATOM     19  C   UNL     1       1.423   1.617  -0.003  0.00  0.00    +0.041 C 
ATOM     20  C   UNL     1      -0.013   1.086   0.008  0.00  0.00    +0.075 C 
ATOM     21  C   UNL     1      -0.746   1.595  -1.236  0.00  0.00    +0.041 C 
ATOM     22  C   UNL     1       0.012   1.147  -2.488  0.00  0.00    +0.107 C 
BRANCH  20  23
ATOM     23  N   UNL     1      -0.701   1.560   1.212  0.00  0.00    -0.323 N 
ATOM     24  H   UNL     1      -0.365   2.481   1.710  0.00  0.00    +0.148 HD
BRANCH  23  25
ATOM     25  C   UNL     1      -1.789   0.838   1.728  0.00  0.00    +0.161 A 
ATOM     26  C   UNL     1      -2.316  -0.310   1.227  0.00  0.00    +0.153 A 
ATOM     27  N   UNL     1      -3.349  -0.640   2.052  0.00  0.00    -0.253 N 
ATOM     28  N   UNL     1      -3.425   0.252   2.976  0.00  0.00    -0.064 NA
ATOM     29  N   UNL     1      -2.509   1.141   2.817  0.00  0.00    -0.115 NA
ATOM     30  C   UNL     1      -4.221  -1.809   1.912  0.00  0.00    +0.174 C 
ENDBRANCH  23  25
ENDBRANCH  20  23
ENDBRANCH   4  17
TORSDOF 4
