REMARK  Name = ZINC45918950
REMARK  8 active torsions:
REMARK  status: ('A' for Active; 'I' for Inactive)
REMARK    1  A    between atoms: C_1  and  C_2
REMARK    2  A    between atoms: C_2  and  N_3
REMARK    3  A    between atoms: C_5  and  C_14
REMARK    4  A    between atoms: C_10  and  O_12
REMARK    5  A    between atoms: O_12  and  C_13
REMARK    6  A    between atoms: C_21  and  O_27
REMARK    7  A    between atoms: C_22  and  C_25
REMARK    8  A    between atoms: C_25  and  O_26
REMARK                            x       y       z     vdW  Elec       q    Type
REMARK                         _______ _______ _______ _____ _____    ______ ____
ROOT
ATOM      1  C   UNL     1       0.760  -1.669  -4.652  0.00  0.00    +0.060 C 
ATOM      2  C   UNL     1      -0.516  -1.726  -5.127  0.00  0.00    +0.176 C 
ATOM      3  C   UNL     1      -0.898  -2.147  -6.428  0.00  0.00    +0.231 C 
ATOM      4  O   UNL     1      -0.167  -2.525  -7.330  0.00  0.00    -0.283 OA
ATOM      5  C   UNL     1      -2.366  -2.032  -6.456  0.00  0.00    +0.068 A 
ATOM      6  C   UNL     1      -3.333  -2.289  -7.428  0.00  0.00    +0.019 A 
ATOM      7  C   UNL     1      -4.653  -2.079  -7.148  0.00  0.00    +0.047 A 
ATOM      8  C   UNL     1      -5.037  -1.608  -5.895  0.00  0.00    +0.126 A 
ATOM      9  C   UNL     1      -4.089  -1.348  -4.919  0.00  0.00    +0.062 A 
ATOM     10  C   UNL     1      -2.743  -1.557  -5.189  0.00  0.00    +0.148 A 
ATOM     11  O   UNL     1      -1.633  -1.395  -4.437  0.00  0.00    -0.451 OA
ENDROOT
BRANCH   1  14
ATOM     12  N   UNL     1       0.688  -0.476  -1.203  0.00  0.00    -0.346 N 
ATOM     13  C   UNL     1       0.069  -0.822  -2.359  0.00  0.00    +0.094 A 
ATOM     14  C   UNL     1       1.010  -1.219  -3.284  0.00  0.00    +0.004 A 
ATOM     15  C   UNL     1       2.322  -1.100  -2.618  0.00  0.00    +0.011 A 
ATOM     16  C   UNL     1       2.056  -0.626  -1.323  0.00  0.00    +0.050 A 
ATOM     17  C   UNL     1       3.113  -0.406  -0.446  0.00  0.00    +0.030 A 
ATOM     18  C   UNL     1       4.407  -0.649  -0.851  0.00  0.00    +0.047 A 
ATOM     19  C   UNL     1       4.671  -1.115  -2.135  0.00  0.00    +0.121 A 
ATOM     20  C   UNL     1       3.632  -1.347  -3.017  0.00  0.00    +0.056 A 
BRANCH  12  22
ATOM     21  C   UNL     1      -0.019   1.526   0.010  0.00  0.00    +0.027 C 
ATOM     22  C   UNL     1       0.002  -0.004   0.002  0.00  0.00    +0.118 C 
ENDBRANCH  12  22
BRANCH  19  23
ATOM     23  O   UNL     1       5.954  -1.350  -2.521  0.00  0.00    -0.495 OA
ATOM     24  C   UNL     1       6.978  -1.098  -1.557  0.00  0.00    +0.277 C 
ENDBRANCH  19  23
ENDBRANCH   1  14
BRANCH   8  25
ATOM     25  O   UNL     1      -6.352  -1.402  -5.628  0.00  0.00    -0.506 OA
ATOM     26  H   UNL     1      -6.805  -2.173  -5.260  0.00  0.00    +0.292 HD
ENDBRANCH   8  25
BRANCH   9  27
ATOM     27  C   UNL     1      -4.518  -0.838  -3.567  0.00  0.00    +0.198 C 
BRANCH  27  28
ATOM     28  O   UNL     1      -4.762  -1.944  -2.697  0.00  0.00    -0.390 OA
ATOM     29  H   UNL     1      -5.042  -1.690  -1.807  0.00  0.00    +0.210 HD
ENDBRANCH  27  28
ENDBRANCH   9  27
TORSDOF 6
