REMARK  Name = ZINC04073772
REMARK  9 active torsions:
REMARK  status: ('A' for Active; 'I' for Inactive)
REMARK    1  A    between atoms: C_1  and  C_2
REMARK    2  A    between atoms: C_2  and  C_3
REMARK    3  A    between atoms: C_9  and  O_30
REMARK    4  A    between atoms: C_10  and  O_28
REMARK    5  A    between atoms: N_19  and  O_20
REMARK    6  A    between atoms: C_24  and  C_26
REMARK    7  A    between atoms: C_24  and  C_27
REMARK    8  A    between atoms: O_28  and  C_29
REMARK    9  A    between atoms: O_30  and  C_31
REMARK                            x       y       z     vdW  Elec       q    Type
REMARK                         _______ _______ _______ _____ _____    ______ ____
ROOT
ATOM      1  C   UNL     1       0.870  -0.796  -1.514  0.00  0.00    +0.066 C 
ATOM      2  C   UNL     1       1.098  -2.305  -1.371  0.00  0.00    +0.113 C 
ATOM      3  C   UNL     1      -0.218  -3.010  -1.563  0.00  0.00    -0.020 A 
ATOM      4  C   UNL     1      -0.947  -2.712  -2.708  0.00  0.00    +0.055 A 
ATOM      5  C   UNL     1      -2.161  -3.329  -2.949  0.00  0.00    +0.162 A 
ATOM      6  C   UNL     1      -2.655  -4.256  -2.036  0.00  0.00    +0.162 A 
ATOM      7  C   UNL     1      -1.927  -4.547  -0.897  0.00  0.00    +0.053 A 
ATOM      8  C   UNL     1      -0.709  -3.921  -0.657  0.00  0.00    -0.037 A 
ATOM      9  C   UNL     1       0.023  -4.269   0.606  0.00  0.00    +0.054 C 
ATOM     10  C   UNL     1       1.497  -3.934   0.531  0.00  0.00    +0.110 C 
ATOM     11  N   UNL     1       1.716  -2.638  -0.102  0.00  0.00    -0.324 N 
ATOM     12  C   UNL     1       2.561  -1.793   0.547  0.00  0.00    +0.020 C 
ATOM     13  C   UNL     1       2.841  -0.534   0.063  0.00  0.00    +0.059 C 
ATOM     14  C   UNL     1       2.181  -0.098  -1.206  0.00  0.00    +0.097 C 
ATOM     15  N   UNL     1       2.674   0.817  -1.979  0.00  0.00    -0.091 NA
ATOM     16  C   UNL     1       3.729   0.337   0.727  0.00  0.00    +0.167 C 
ATOM     17  O   UNL     1       3.969   1.430   0.255  0.00  0.00    -0.292 OA
ATOM     18  C   UNL     1       4.382  -0.081   2.019  0.00  0.00    +0.086 C 
ATOM     19  C   UNL     1       3.462  -1.067   2.745  0.00  0.00    -0.023 C 
ATOM     20  C   UNL     1       3.197  -2.267   1.832  0.00  0.00    +0.058 C 
ATOM     21  C   UNL     1       2.138  -0.379   3.082  0.00  0.00    +0.011 C 
ATOM     22  C   UNL     1       4.136  -1.544   4.033  0.00  0.00    +0.011 C 
ENDROOT
BRANCH   1  24
ATOM     23  C   UNL     1      -0.502   1.146  -0.747  0.00  0.00    +0.004 C 
ATOM     24  C   UNL     1      -0.206  -0.339  -0.527  0.00  0.00    +0.008 C 
ENDBRANCH   1  24
BRANCH  15  25
ATOM     25  O   UNL     1       4.019   1.228  -1.821  0.00  0.00    -0.409 OA
ATOM     26  H   UNL     1       4.297   1.915  -2.443  0.00  0.00    +0.328 HD
ENDBRANCH  15  25
BRANCH   6  27
ATOM     27  O   UNL     1      -3.846  -4.871  -2.262  0.00  0.00    -0.491 OA
ATOM     28  C   UNL     1      -4.288  -5.810  -1.280  0.00  0.00    +0.277 C 
ENDBRANCH   6  27
BRANCH   5  29
ATOM     29  O   UNL     1      -2.868  -3.032  -4.072  0.00  0.00    -0.491 OA
ATOM     30  C   UNL     1      -2.297  -2.071  -4.963  0.00  0.00    +0.277 C 
ENDBRANCH   5  29
TORSDOF 4
