REMARK  Name = ZINC04787888
REMARK  8 active torsions:
REMARK  status: ('A' for Active; 'I' for Inactive)
REMARK    1  A    between atoms: C_1  and  C_2
REMARK    2  A    between atoms: C_5  and  C_8
REMARK    3  A    between atoms: C_8  and  N_9
REMARK    4  A    between atoms: N_9  and  C_10
REMARK    5  A    between atoms: C_11  and  C_13
REMARK    6  A    between atoms: C_13  and  N_14
REMARK    7  A    between atoms: C_17  and  C_21
REMARK    8  A    between atoms: C_17  and  C_22
REMARK                            x       y       z     vdW  Elec       q    Type
REMARK                         _______ _______ _______ _____ _____    ______ ____
ROOT
ATOM      1  N   UNL     1       3.865   3.969  -1.800  0.00  0.00    -0.215 N 
ATOM      2  C   UNL     1       3.521   3.171  -0.770  0.00  0.00    +0.251 C 
ATOM      3  O   UNL     1       3.968   2.075  -0.512  0.00  0.00    -0.272 OA
ATOM      4  C   UNL     1       2.458   3.931  -0.001  0.00  0.00    +0.135 C 
ATOM      5  N   UNL     1       2.313   5.189  -0.755  0.00  0.00    -0.281 N 
ATOM      6  C   UNL     1       3.175   5.115  -1.789  0.00  0.00    +0.310 C 
ATOM      7  O   UNL     1       3.312   5.994  -2.618  0.00  0.00    -0.252 OA
ATOM      8  C   UNL     1       2.925   4.212   1.428  0.00  0.00    +0.047 C 
ATOM      9  H   UNL     1       1.714   5.923  -0.548  0.00  0.00    +0.152 HD
ENDROOT
BRANCH   4  10
ATOM     10  C   UNL     1       1.160   3.165   0.007  0.00  0.00    -0.012 A 
ATOM     11  C   UNL     1       1.175   1.783   0.000  0.00  0.00    +0.010 A 
ATOM     12  C   UNL     1      -0.013   1.076   0.008  0.00  0.00    +0.050 A 
ATOM     13  C   UNL     1      -1.222   1.752   0.017  0.00  0.00    +0.166 A 
ATOM     14  C   UNL     1      -1.237   3.144   0.031  0.00  0.00    +0.167 A 
ATOM     15  C   UNL     1      -0.043   3.846   0.022  0.00  0.00    +0.055 A 
ATOM     16  O   UNL     1      -2.535   3.567   0.046  0.00  0.00    -0.453 OA
ATOM     17  C   UNL     1      -3.306   2.424   0.460  0.00  0.00    +0.466 C 
ATOM     18  O   UNL     1      -2.510   1.302   0.035  0.00  0.00    -0.453 OA
ENDBRANCH   4  10
BRANCH   1  19
ATOM     19  C   UNL     1       4.872   3.624  -2.807  0.00  0.00    +0.213 C 
BRANCH  19  22
ATOM     20  N   UNL     1       4.945   2.489  -5.004  0.00  0.00    -0.299 N 
ATOM     21  C   UNL     1       6.389   2.735  -5.030  0.00  0.00    +0.132 C 
ATOM     22  C   UNL     1       4.209   2.905  -3.954  0.00  0.00    +0.234 C 
ATOM     23  O   UNL     1       3.014   2.702  -3.933  0.00  0.00    -0.274 OA
BRANCH  20  24
ATOM     24  C   UNL     1       4.300   1.791  -6.119  0.00  0.00    +0.142 C 
BRANCH  24  29
ATOM     25  C   UNL     1       2.595   5.640 -10.078  0.00  0.00    +0.044 C 
ATOM     26  C   UNL     1       3.040   4.637  -9.045  0.00  0.00    -0.050 A 
ATOM     27  C   UNL     1       4.302   4.079  -9.122  0.00  0.00    +0.003 A 
ATOM     28  C   UNL     1       4.710   3.158  -8.175  0.00  0.00    +0.005 A 
ATOM     29  C   UNL     1       3.856   2.795  -7.151  0.00  0.00    -0.030 A 
ATOM     30  C   UNL     1       2.591   3.349  -7.077  0.00  0.00    +0.005 A 
ATOM     31  C   UNL     1       2.185   4.274  -8.021  0.00  0.00    +0.003 A 
ENDBRANCH  24  29
ENDBRANCH  20  24
ENDBRANCH  19  22
ENDBRANCH   1  19
TORSDOF 5
