REMARK  Name = ZINC39935792
REMARK  12 active torsions:
REMARK  status: ('A' for Active; 'I' for Inactive)
REMARK    1  A    between atoms: C_1  and  C_2
REMARK    2  A    between atoms: C_2  and  C_3
REMARK    3  A    between atoms: C_3  and  N_4
REMARK    4  A    between atoms: C_5  and  C_7
REMARK    5  A    between atoms: C_7  and  C_8
REMARK    6  A    between atoms: C_8  and  C_9
REMARK    7  A    between atoms: C_9  and  C_11
REMARK    8  A    between atoms: C_9  and  C_12
REMARK    9  A    between atoms: C_18  and  C_41
REMARK   10  A    between atoms: C_19  and  O_40
REMARK   11  A    between atoms: C_30  and  C_37
REMARK   12  A    between atoms: C_33  and  O_36
REMARK                            x       y       z     vdW  Elec       q    Type
REMARK                         _______ _______ _______ _____ _____    ______ ____
ROOT
ATOM      1  C   UNL     1       3.075  -6.052   4.704  0.00  0.00    +0.001 C 
ATOM      2  C   UNL     1       2.308  -5.824   6.032  0.00  0.00    +0.005 C 
ATOM      3  C   UNL     1       2.846  -6.892   7.032  0.00  0.00    +0.005 C 
ATOM      4  C   UNL     1       4.197  -7.256   6.400  0.00  0.00    +0.005 C 
ATOM      5  C   UNL     1       3.799  -7.402   4.915  0.00  0.00    +0.000 C 
ATOM      6  C   UNL     1       5.008  -7.611   4.045  0.00  0.00    +0.121 C 
ATOM      7  C   UNL     1       5.970  -8.651   4.631  0.00  0.00    +0.036 C 
ATOM      8  C   UNL     1       5.406  -9.376   5.833  0.00  0.00    +0.005 C 
ATOM      9  C   UNL     1       4.962  -8.413   6.934  0.00  0.00    +0.050 C 
ATOM     10  C   UNL     1       4.297  -9.229   8.030  0.00  0.00    +0.195 C 
ATOM     11  C   UNL     1       5.223 -10.286   8.648  0.00  0.00    +0.062 C 
ATOM     12  C   UNL     1       6.558 -10.236   7.902  0.00  0.00    +0.002 C 
ATOM     13  C   UNL     1       6.378 -10.411   6.401  0.00  0.00    -0.026 C 
ATOM     14  C   UNL     1       7.734 -10.300   5.704  0.00  0.00    +0.010 C 
ATOM     15  C   UNL     1       8.713 -11.332   6.259  0.00  0.00    +0.032 C 
ATOM     16  C   UNL     1       8.871 -11.166   7.769  0.00  0.00    +0.115 C 
ATOM     17  C   UNL     1       7.513 -11.290   8.460  0.00  0.00    +0.035 C 
ATOM     18  C   UNL     1       5.783 -11.791   6.106  0.00  0.00    +0.012 C 
ATOM     19  N   UNL     1       3.244  -8.656   8.851  0.00  0.00    -0.158 NA
ATOM     20  N   UNL     1       2.866  -9.484   8.004  0.00  0.00    -0.158 NA
ATOM     21  C   UNL     1       2.759  -8.497   4.684  0.00  0.00    +0.014 C 
ENDROOT
BRANCH   1  22
ATOM     22  C   UNL     1       2.099  -6.162   3.537  0.00  0.00    -0.010 C 
ATOM     23  C   UNL     1       2.881  -6.323   2.231  0.00  0.00    +0.008 C 
BRANCH  22  24
ATOM     24  C   UNL     1       1.243  -4.896   3.466  0.00  0.00    +0.013 C 
BRANCH  24  25
ATOM     25  C   UNL     1       0.182  -5.057   2.375  0.00  0.00    +0.096 C 
BRANCH  25  27
ATOM     26  N   UNL     1      -1.665  -3.724   1.411  0.00  0.00    -0.315 N 
ATOM     27  C   UNL     1      -0.660  -3.810   2.306  0.00  0.00    +0.213 C 
ATOM     28  O   UNL     1      -0.435  -2.883   3.054  0.00  0.00    -0.276 OA
ATOM     29  H   UNL     1      -1.846  -4.466   0.813  0.00  0.00    +0.149 HD
BRANCH  26  30
ATOM     30  C   UNL     1      -2.484  -2.511   1.344  0.00  0.00    +0.104 C 
BRANCH  30  32
ATOM     31  C   UNL     1      -4.401  -1.407   0.183  0.00  0.00    +0.005 C 
ATOM     32  C   UNL     1      -3.545  -2.673   0.253  0.00  0.00    +0.015 C 
ENDBRANCH  30  32
ENDBRANCH  26  30
ENDBRANCH  25  27
ENDBRANCH  24  25
ENDBRANCH  22  24
ENDBRANCH   1  22
BRANCH  16  33
ATOM     33  O   UNL     1       9.750 -12.179   8.268  0.00  0.00    -0.392 OA
ATOM     34  H   UNL     1      10.636 -12.155   7.883  0.00  0.00    +0.210 HD
ENDBRANCH  16  33
BRANCH   6  35
ATOM     35  O   UNL     1       4.597  -8.030   2.734  0.00  0.00    -0.391 OA
ATOM     36  H   UNL     1       5.330  -8.183   2.122  0.00  0.00    +0.210 HD
ENDBRANCH   6  35
TORSDOF 8
