REMARK  Name = ZINC42017272
REMARK  9 active torsions:
REMARK  status: ('A' for Active; 'I' for Inactive)
REMARK    1  A    between atoms: C_1  and  C_2
REMARK    2  A    between atoms: C_4  and  C_25
REMARK    3  A    between atoms: C_6  and  C_24
REMARK    4  A    between atoms: C_10  and  C_11
REMARK    5  A    between atoms: N_13  and  C_14
REMARK    6  A    between atoms: C_14  and  C_15
REMARK    7  A    between atoms: C_15  and  N_21
REMARK    8  A    between atoms: N_21  and  C_22
REMARK    9  A    between atoms: N_21  and  C_23
REMARK                            x       y       z     vdW  Elec       q    Type
REMARK                         _______ _______ _______ _____ _____    ______ ____
ROOT
ATOM      1  C   UNL     1       2.446   0.452   2.415  0.00  0.00    +0.251 C 
ATOM      2  O   UNL     1       2.540   1.662   2.326  0.00  0.00    -0.270 OA
ATOM      3  N   UNL     1       3.085  -0.203   3.405  0.00  0.00    -0.312 N 
ATOM      4  H   UNL     1       3.010  -1.167   3.475  0.00  0.00    +0.149 HD
ENDROOT
BRANCH   1  14
ATOM      5  C   UNL     1       0.907   1.662   0.097  0.00  0.00    +0.046 C 
ATOM      6  C   UNL     1       0.926   0.183   0.386  0.00  0.00    -0.020 A 
ATOM      7  C   UNL     1       0.214  -0.704  -0.437  0.00  0.00    +0.032 A 
ATOM      8  C   UNL     1      -0.579  -0.430  -1.579  0.00  0.00    +0.050 A 
ATOM      9  N   UNL     1      -1.166  -1.423  -2.210  0.00  0.00    -0.237 NA
ATOM     10  C   UNL     1      -1.046  -2.680  -1.819  0.00  0.00    +0.128 A 
ATOM     11  N   UNL     1      -0.323  -3.006  -0.764  0.00  0.00    -0.225 NA
ATOM     12  C   UNL     1       0.298  -2.074  -0.075  0.00  0.00    +0.113 A 
ATOM     13  S   UNL     1       1.342  -2.054   1.359  0.00  0.00    -0.064 S 
ATOM     14  C   UNL     1       1.636  -0.295   1.442  0.00  0.00    +0.079 A 
ATOM     15  C   UNL     1      -1.749  -3.764  -2.595  0.00  0.00    +0.088 C 
ATOM     16  C   UNL     1      -0.748   0.986  -2.065  0.00  0.00    +0.066 C 
ENDBRANCH   1  14
BRANCH   3  17
ATOM     17  C   UNL     1       3.892   0.543   4.374  0.00  0.00    +0.092 C 
BRANCH  17  18
ATOM     18  C   UNL     1       4.601  -0.439   5.309  0.00  0.00    -0.050 C 
ATOM     19  C   UNL     1       5.299   0.336   6.428  0.00  0.00    -0.010 C 
ATOM     20  C   UNL     1       6.326   1.294   5.821  0.00  0.00    -0.001 C 
ATOM     21  C   UNL     1       7.364   0.495   5.030  0.00  0.00    -0.000 C 
ATOM     22  C   UNL     1       6.666  -0.280   3.911  0.00  0.00    -0.001 C 
ATOM     23  C   UNL     1       5.639  -1.238   4.518  0.00  0.00    -0.010 C 
BRANCH  18  24
ATOM     24  N   UNL     1       3.615  -1.359   5.892  0.00  0.00    +0.381 N 
ATOM     25  C   UNL     1       4.289  -2.270   6.827  0.00  0.00    -0.096 C 
ATOM     26  C   UNL     1       2.591  -0.589   6.610  0.00  0.00    -0.096 C 
ATOM     27  H   UNL     1       3.179  -1.895   5.156  0.00  0.00    -0.082 HD
ENDBRANCH  18  24
ENDBRANCH  17  18
ENDBRANCH   3  17
TORSDOF 4
