REMARK  Name = ZINC58345937
REMARK  8 active torsions:
REMARK  status: ('A' for Active; 'I' for Inactive)
REMARK    1  A    between atoms: C_1  and  C_2
REMARK    2  A    between atoms: C_2  and  C_3
REMARK    3  A    between atoms: C_2  and  C_4
REMARK    4  A    between atoms: C_4  and  C_5
REMARK    5  A    between atoms: C_4  and  N_19
REMARK    6  A    between atoms: C_5  and  N_6
REMARK    7  A    between atoms: C_7  and  C_9
REMARK    8  A    between atoms: C_10  and  N_14
REMARK                            x       y       z     vdW  Elec       q    Type
REMARK                         _______ _______ _______ _____ _____    ______ ____
ROOT
ATOM      1  C   UNL     1      -1.370  -0.571  -0.161  0.00  0.00    -0.048 C 
ENDROOT
BRANCH   1   2
ATOM      2  N   UNL     1      -1.563  -0.463  -1.613  0.00  0.00    +0.386 N 
ATOM      3  C   UNL     1      -2.855  -1.061  -1.983  0.00  0.00    -0.073 C 
ATOM      4  C   UNL     1      -3.177  -0.671  -3.427  0.00  0.00    +0.017 C 
ATOM      5  C   UNL     1      -1.999  -0.983  -4.314  0.00  0.00    -0.048 A 
ATOM      6  C   UNL     1      -2.194  -1.033  -5.685  0.00  0.00    +0.004 A 
ATOM      7  C   UNL     1      -1.137  -1.312  -6.529  0.00  0.00    +0.000 A 
ATOM      8  C   UNL     1       0.120  -1.543  -6.004  0.00  0.00    +0.000 A 
ATOM      9  C   UNL     1       0.315  -1.495  -4.638  0.00  0.00    +0.002 A 
ATOM     10  C   UNL     1      -0.745  -1.216  -3.789  0.00  0.00    -0.061 A 
ATOM     11  C   UNL     1      -0.489  -1.182  -2.305  0.00  0.00    -0.042 C 
ATOM     12  H   UNL     1      -1.549   0.508  -1.884  0.00  0.00    -0.081 HD
ENDBRANCH   1   2
BRANCH   1  14
ATOM     13  C   UNL     1       0.007   1.510  -0.285  0.00  0.00    +0.005 C 
ATOM     14  C   UNL     1      -0.035   0.068   0.225  0.00  0.00    -0.029 C 
ATOM     15  C   UNL     1       0.112   0.062   1.748  0.00  0.00    +0.005 C 
ENDBRANCH   1  14
BRANCH   1  16
ATOM     16  C   UNL     1      -1.366  -2.046   0.245  0.00  0.00    +0.089 C 
BRANCH  16  17
ATOM     17  N   UNL     1      -2.713  -2.601   0.087  0.00  0.00    -0.312 N 
ATOM     18  C   UNL     1      -2.921  -3.923   0.246  0.00  0.00    +0.253 C 
ATOM     19  O   UNL     1      -1.989  -4.657   0.521  0.00  0.00    -0.270 OA
ATOM     20  H   UNL     1      -3.455  -2.016  -0.133  0.00  0.00    +0.149 HD
BRANCH  18  21
ATOM     21  C   UNL     1      -4.265  -4.476   0.088  0.00  0.00    +0.099 A 
ATOM     22  C   UNL     1      -4.692  -5.796   0.213  0.00  0.00    +0.088 A 
ATOM     23  C   UNL     1      -6.040  -6.007   0.003  0.00  0.00    +0.036 A 
ATOM     24  C   UNL     1      -6.830  -4.951  -0.301  0.00  0.00    +0.048 A 
ATOM     25  S   UNL     1      -5.786  -3.635  -0.308  0.00  0.00    -0.090 S 
BRANCH  22  26
ATOM     26  N   UNL     1      -3.813  -6.838   0.531  0.00  0.00    -0.199 N 
ATOM     27  C   UNL     1      -4.111  -8.149   0.673  0.00  0.00    +0.250 A 
ATOM     28  N   UNL     1      -3.000  -8.770   0.970  0.00  0.00    -0.116 NA
ATOM     29  N   UNL     1      -2.020  -7.942   1.026  0.00  0.00    -0.023 NA
ATOM     30  N   UNL     1      -2.430  -6.748   0.765  0.00  0.00    -0.039 NA
ENDBRANCH  22  26
ENDBRANCH  18  21
ENDBRANCH  16  17
ENDBRANCH   1  16
TORSDOF 6
