REMARK  Name = ZINC42953916
REMARK  8 active torsions:
REMARK  status: ('A' for Active; 'I' for Inactive)
REMARK    1  A    between atoms: C_1  and  C_2
REMARK    2  A    between atoms: C_2  and  C_3
REMARK    3  A    between atoms: C_3  and  C_5
REMARK    4  A    between atoms: C_3  and  N_24
REMARK    5  A    between atoms: C_5  and  C_7
REMARK    6  A    between atoms: C_5  and  N_14
REMARK    7  A    between atoms: N_14  and  C_15
REMARK    8  A    between atoms: N_14  and  C_16
REMARK                            x       y       z     vdW  Elec       q    Type
REMARK                         _______ _______ _______ _____ _____    ______ ____
ROOT
ATOM      1  C   UNL     1      -1.471  -2.051   0.169  0.00  0.00    -0.052 C 
ENDROOT
BRANCH   1   2
ATOM      2  C   UNL     1      -0.772  -2.325  -1.139  0.00  0.00    -0.062 A 
ATOM      3  C   UNL     1       0.561  -1.995  -1.292  0.00  0.00    +0.003 A 
ATOM      4  C   UNL     1       1.202  -2.247  -2.490  0.00  0.00    +0.015 A 
ATOM      5  C   UNL     1       0.509  -2.829  -3.536  0.00  0.00    +0.018 A 
ATOM      6  C   UNL     1      -0.826  -3.159  -3.382  0.00  0.00    +0.015 A 
ATOM      7  C   UNL     1      -1.464  -2.912  -2.182  0.00  0.00    +0.003 A 
ATOM      8 BR   UNL     1       1.385  -3.173  -5.176  0.00  0.00    -0.050 Br
ENDBRANCH   1   2
BRANCH   1   9
ATOM      9  N   UNL     1      -0.643  -2.543   1.278  0.00  0.00    +0.384 N 
ATOM     10  C   UNL     1      -1.222  -2.101   2.554  0.00  0.00    -0.095 C 
ATOM     11  H   UNL     1       0.292  -2.177   1.188  0.00  0.00    -0.081 HD
BRANCH   9  12
ATOM     12  C   UNL     1      -0.600  -4.011   1.243  0.00  0.00    -0.045 C 
ATOM     13  C   UNL     1       0.129  -4.539   2.490  0.00  0.00    +0.009 C 
ATOM     14  C   UNL     1       0.461  -6.040   2.311  0.00  0.00    +0.164 C 
ATOM     15  S   UNL     1       0.615  -6.205   0.485  0.00  0.00    -0.033 S 
ATOM     16  O   UNL     1      -0.393  -7.088   0.014  0.00  0.00    -0.174 OA
ATOM     17  O   UNL     1       1.975  -6.455   0.157  0.00  0.00    -0.174 OA
ATOM     18  C   UNL     1       0.185  -4.484  -0.013  0.00  0.00    +0.151 C 
ENDBRANCH   9  12
ENDBRANCH   1   9
BRANCH   1  19
ATOM     19  C   UNL     1      -1.689  -0.545   0.324  0.00  0.00    -0.085 C 
BRANCH  19  20
ATOM     20  N   UNL     1      -2.414  -0.032  -0.846  0.00  0.00    +0.379 N 
ATOM     21  H   UNL     1      -1.874  -0.209  -1.680  0.00  0.00    -0.090 HD
ATOM     22  H   UNL     1      -3.307  -0.495  -0.918  0.00  0.00    -0.090 HD
ATOM     23  H   UNL     1      -2.558   0.962  -0.744  0.00  0.00    -0.090 HD
ENDBRANCH  19  20
BRANCH  19  25
ATOM     24  C   UNL     1      -0.553   1.646   0.714  0.00  0.00    +0.002 C 
ATOM     25  C   UNL     1      -0.334   0.158   0.434  0.00  0.00    -0.021 C 
ENDBRANCH  19  25
ENDBRANCH   1  19
TORSDOF 6
