REMARK  Name = ZINC12898623
REMARK  5 active torsions:
REMARK  status: ('A' for Active; 'I' for Inactive)
REMARK    1  A    between atoms: C_8  and  C_12
REMARK    2  A    between atoms: C_16  and  C_18
REMARK    3  A    between atoms: N_20  and  C_21
REMARK    4  A    between atoms: C_21  and  C_22
REMARK    5  A    between atoms: C_22  and  C_23
REMARK                            x       y       z     vdW  Elec       q    Type
REMARK                         _______ _______ _______ _____ _____    ______ ____
ROOT
ATOM      1  C   UNL     1      -6.384  -4.399  -3.749  0.00  0.00    -0.010 A 
ATOM      2  C   UNL     1      -6.855  -4.906  -2.537  0.00  0.00    +0.009 A 
ATOM      3  C   UNL     1      -6.225  -4.573  -1.355  0.00  0.00    +0.001 A 
ATOM      4  C   UNL     1      -5.123  -3.741  -1.363  0.00  0.00    +0.013 A 
ATOM      5  C   UNL     1      -4.645  -3.222  -2.568  0.00  0.00    +0.037 A 
ATOM      6  C   UNL     1      -5.277  -3.555  -3.765  0.00  0.00    +0.021 A 
ENDROOT
BRANCH   1  14
ATOM      7  C   UNL     1      -8.928  -7.949  -8.119  0.00  0.00    +0.001 A 
ATOM      8  C   UNL     1      -9.271  -6.913  -8.977  0.00  0.00    +0.004 A 
ATOM      9  C   UNL     1      -8.986  -5.605  -8.649  0.00  0.00    +0.047 A 
ATOM     10  C   UNL     1      -8.349  -5.314  -7.448  0.00  0.00    +0.139 A 
ATOM     11  C   UNL     1      -8.002  -6.365  -6.581  0.00  0.00    +0.018 A 
ATOM     12  C   UNL     1      -8.300  -7.687  -6.934  0.00  0.00    +0.011 A 
ATOM     13  C   UNL     1      -7.331  -6.066  -5.315  0.00  0.00    +0.027 A 
ATOM     14  C   UNL     1      -7.062  -4.758  -5.017  0.00  0.00    +0.067 A 
ATOM     15  C   UNL     1      -7.459  -3.716  -5.969  0.00  0.00    +0.345 A 
ATOM     16  O   UNL     1      -7.230  -2.549  -5.713  0.00  0.00    -0.245 OA
ATOM     17  O   UNL     1      -8.067  -4.034  -7.122  0.00  0.00    -0.422 OA
ENDBRANCH   1  14
BRANCH   5  18
ATOM     18  C   UNL     1      -3.469  -2.326  -2.575  0.00  0.00    +0.244 C 
ATOM     19  O   UNL     1      -3.051  -1.880  -3.626  0.00  0.00    -0.270 OA
ATOM     20  N   UNL     1      -2.859  -2.005  -1.417  0.00  0.00    -0.311 N 
ATOM     21  H   UNL     1      -3.192  -2.362  -0.578  0.00  0.00    +0.149 HD
BRANCH  20  22
ATOM     22  C   UNL     1      -1.694  -1.118  -1.424  0.00  0.00    +0.109 C 
BRANCH  22  23
ATOM     23  C   UNL     1      -1.197  -0.917   0.009  0.00  0.00    +0.056 C 
BRANCH  23  24
ATOM     24  C   UNL     1       0.002  -0.004   0.002  0.00  0.00    -0.021 A 
ATOM     25  C   UNL     1       1.291  -0.379  -0.012  0.00  0.00    +0.087 A 
ATOM     26  N   UNL     1       2.098   0.726  -0.014  0.00  0.00    -0.360 N 
ATOM     27  H   UNL     1       3.068   0.707  -0.023  0.00  0.00    +0.165 HD
ATOM     28  C   UNL     1       1.329   1.868  -0.001  0.00  0.00    +0.047 A 
ATOM     29  C   UNL     1      -0.018   1.461   0.010  0.00  0.00    +0.003 A 
ATOM     30  C   UNL     1      -1.034   2.417   0.030  0.00  0.00    +0.010 A 
ATOM     31  C   UNL     1      -0.716   3.746   0.030  0.00  0.00    +0.001 A 
ATOM     32  C   UNL     1       0.611   4.153   0.019  0.00  0.00    +0.002 A 
ATOM     33  C   UNL     1       1.631   3.225   0.004  0.00  0.00    +0.026 A 
ENDBRANCH  23  24
ENDBRANCH  22  23
ENDBRANCH  20  22
ENDBRANCH   5  18
TORSDOF 5
