REMARK  Name = ZINC01062187
REMARK  5 active torsions:
REMARK  status: ('A' for Active; 'I' for Inactive)
REMARK    1  A    between atoms: C_1  and  C_2
REMARK    2  A    between atoms: C_7  and  C_8
REMARK    3  A    between atoms: C_8  and  O_10
REMARK    4  A    between atoms: O_10  and  C_11
REMARK    5  A    between atoms: C_17  and  C_22
REMARK                            x       y       z     vdW  Elec       q    Type
REMARK                         _______ _______ _______ _____ _____    ______ ____
ROOT
ATOM      1  C   UNL     1      -4.057  -0.818   2.967  0.00  0.00    +0.047 C 
ATOM      2  C   UNL     1      -3.525   0.525   3.395  0.00  0.00    -0.008 A 
ATOM      3  C   UNL     1      -3.979   1.301   4.468  0.00  0.00    +0.042 A 
ATOM      4  C   UNL     1      -3.208   2.463   4.507  0.00  0.00    +0.028 A 
ATOM      5  N   UNL     1      -2.325   2.403   3.511  0.00  0.00    -0.352 N 
ATOM      6  H   UNL     1      -1.661   3.081   3.308  0.00  0.00    +0.166 HD
ATOM      7  C   UNL     1      -2.504   1.224   2.812  0.00  0.00    +0.128 A 
ATOM      8  C   UNL     1      -3.407   3.542   5.542  0.00  0.00    +0.062 C 
ATOM      9  C   UNL     1      -4.150   2.957   6.746  0.00  0.00    +0.034 C 
ATOM     10  C   UNL     1      -5.436   2.254   6.299  0.00  0.00    +0.088 C 
ATOM     11  C   UNL     1      -5.055   1.056   5.441  0.00  0.00    +0.166 C 
ATOM     12  O   UNL     1      -5.599  -0.023   5.552  0.00  0.00    -0.292 OA
ENDROOT
BRANCH   9  13
ATOM     13  C   UNL     1      -4.499   4.068   7.702  0.00  0.00    -0.025 A 
ATOM     14  C   UNL     1      -5.298   5.116   7.283  0.00  0.00    +0.005 A 
ATOM     15  C   UNL     1      -5.621   6.132   8.161  0.00  0.00    +0.000 A 
ATOM     16  C   UNL     1      -5.138   6.108   9.457  0.00  0.00    +0.001 A 
ATOM     17  C   UNL     1      -4.335   5.064   9.875  0.00  0.00    +0.020 A 
ATOM     18  C   UNL     1      -4.015   4.043   8.998  0.00  0.00    +0.044 A 
ATOM     19 CL   UNL     1      -3.006   2.731   9.523  0.00  0.00    -0.083 Cl
ENDBRANCH   9  13
BRANCH   7  20
ATOM     20  C   UNL     1      -1.726   0.792   1.646  0.00  0.00    +0.356 C 
ATOM     21  O   UNL     1      -1.971  -0.273   1.112  0.00  0.00    -0.243 OA
BRANCH  20  22
ATOM     22  O   UNL     1      -0.740   1.577   1.165  0.00  0.00    -0.457 OA
BRANCH  22  23
ATOM     23  C   UNL     1      -0.013   1.086   0.008  0.00  0.00    +0.177 C 
ATOM     24  C   UNL     1      -0.641   1.627  -1.301  0.00  0.00    +0.044 C 
ATOM     25  C   UNL     1       0.535   1.540  -2.305  0.00  0.00    +0.004 C 
ATOM     26  C   UNL     1       1.773   1.934  -1.473  0.00  0.00    +0.004 C 
ATOM     27  C   UNL     1       1.425   1.645  -0.003  0.00  0.00    +0.044 C 
ENDBRANCH  22  23
ENDBRANCH  20  22
ENDBRANCH   7  20
TORSDOF 4
