REMARK  Name = ZINC39655395
REMARK  9 active torsions:
REMARK  status: ('A' for Active; 'I' for Inactive)
REMARK    1  A    between atoms: C_1  and  C_2
REMARK    2  A    between atoms: C_2  and  C_4
REMARK    3  A    between atoms: C_2  and  O_29
REMARK    4  A    between atoms: C_8  and  C_17
REMARK    5  A    between atoms: N_19  and  C_20
REMARK    6  A    between atoms: C_20  and  C_21
REMARK    7  A    between atoms: C_21  and  N_22
REMARK    8  A    between atoms: N_22  and  C_23
REMARK    9  A    between atoms: O_29  and  C_30
REMARK                            x       y       z     vdW  Elec       q    Type
REMARK                         _______ _______ _______ _____ _____    ______ ____
ROOT
ATOM      1  C   UNL     1      -1.884  -0.349   0.102  0.00  0.00    +0.256 C 
ATOM      2  O   UNL     1      -2.428  -0.814   1.081  0.00  0.00    -0.272 OA
ATOM      3  N   UNL     1      -2.607  -0.061  -0.998  0.00  0.00    -0.297 N 
ATOM      4  C   UNL     1      -2.124   0.501  -2.281  0.00  0.00    +0.121 C 
ATOM      5  C   UNL     1      -2.926  -0.255  -3.365  0.00  0.00    +0.100 C 
ATOM      6  C   UNL     1      -4.200  -0.733  -2.648  0.00  0.00    -0.004 C 
ATOM      7  C   UNL     1      -4.065  -0.240  -1.200  0.00  0.00    +0.115 C 
ATOM      8  C   UNL     1      -4.281  -2.256  -2.675  0.00  0.00    -0.010 C 
ATOM      9  C   UNL     1      -5.584  -2.705  -2.007  0.00  0.00    -0.082 C 
ATOM     10  N   UNL     1      -6.727  -2.121  -2.718  0.00  0.00    +0.379 N 
ATOM     11  C   UNL     1      -6.692  -0.658  -2.608  0.00  0.00    -0.082 C 
ATOM     12  C   UNL     1      -5.436  -0.122  -3.302  0.00  0.00    -0.010 C 
ATOM     13  H   UNL     1      -6.687  -2.385  -3.691  0.00  0.00    -0.086 HD
ATOM     14  H   UNL     1      -7.585  -2.466  -2.314  0.00  0.00    -0.086 HD
ENDROOT
BRANCH   5  15
ATOM     15  C   UNL     1      -2.136  -1.431  -3.877  0.00  0.00    +0.218 C 
ATOM     16  O   UNL     1      -1.354  -2.001  -3.147  0.00  0.00    -0.275 OA
ATOM     17  N   UNL     1      -2.300  -1.851  -5.148  0.00  0.00    -0.314 N 
ATOM     18  H   UNL     1      -2.926  -1.395  -5.732  0.00  0.00    +0.149 HD
BRANCH  17  19
ATOM     19  C   UNL     1      -1.532  -2.994  -5.646  0.00  0.00    +0.123 C 
BRANCH  19  20
ATOM     20  C   UNL     1      -1.904  -3.261  -7.106  0.00  0.00    +0.120 C 
BRANCH  20  21
ATOM     21  N   UNL     1      -1.136  -4.404  -7.605  0.00  0.00    -0.342 N 
ATOM     22  H   UNL     1      -0.510  -4.860  -7.021  0.00  0.00    +0.146 HD
BRANCH  21  23
ATOM     23  C   UNL     1      -1.306  -4.839  -8.921  0.00  0.00    +0.027 A 
ATOM     24  C   UNL     1      -2.197  -4.184  -9.761  0.00  0.00    +0.023 A 
ATOM     25  C   UNL     1      -2.362  -4.616 -11.062  0.00  0.00    +0.002 A 
ATOM     26  C   UNL     1      -1.641  -5.700 -11.530  0.00  0.00    +0.000 A 
ATOM     27  C   UNL     1      -0.752  -6.354 -10.696  0.00  0.00    +0.002 A 
ATOM     28  C   UNL     1      -0.578  -5.924  -9.396  0.00  0.00    +0.023 A 
ENDBRANCH  21  23
ENDBRANCH  20  21
ENDBRANCH  19  20
ENDBRANCH  17  19
ENDBRANCH   5  15
BRANCH   1  30
ATOM     29  C   UNL     1      -0.139   1.410   0.004  0.00  0.00    +0.062 C 
ATOM     30  C   UNL     1      -0.399  -0.094   0.116  0.00  0.00    +0.256 C 
BRANCH  30  31
ATOM     31  O   UNL     1       0.158  -0.584   1.337  0.00  0.00    -0.480 OA
BRANCH  31  32
ATOM     32  C   UNL     1       1.474  -0.925   1.323  0.00  0.00    +0.122 A 
ATOM     33  C   UNL     1       2.051  -1.514   2.438  0.00  0.00    +0.045 A 
ATOM     34  C   UNL     1       3.388  -1.859   2.421  0.00  0.00    +0.004 A 
ATOM     35  C   UNL     1       4.151  -1.619   1.293  0.00  0.00    +0.000 A 
ATOM     36  C   UNL     1       3.578  -1.031   0.180  0.00  0.00    +0.004 A 
ATOM     37  C   UNL     1       2.240  -0.689   0.190  0.00  0.00    +0.045 A 
ENDBRANCH  31  32
ENDBRANCH  30  31
ENDBRANCH   1  30
TORSDOF 8
