REMARK  Name = ZINC09183433
REMARK  9 active torsions:
REMARK  status: ('A' for Active; 'I' for Inactive)
REMARK    1  A    between atoms: C_7  and  N_11
REMARK    2  A    between atoms: C_8  and  C_9
REMARK    3  A    between atoms: C_12  and  C_14
REMARK    4  A    between atoms: C_14  and  C_15
REMARK    5  A    between atoms: C_15  and  C_16
REMARK    6  A    between atoms: C_16  and  C_17
REMARK    7  A    between atoms: C_17  and  C_18
REMARK    8  A    between atoms: N_20  and  C_21
REMARK    9  A    between atoms: C_22  and  C_31
REMARK                            x       y       z     vdW  Elec       q    Type
REMARK                         _______ _______ _______ _____ _____    ______ ____
ROOT
ATOM      1  C   UNL     1       0.002  -0.004   0.002  0.00  0.00    +0.010 C 
ENDROOT
BRANCH   1   2
ATOM      2  C   UNL     1      -0.019   1.526   0.010  0.00  0.00    +0.096 C 
BRANCH   2   4
ATOM      3  N   UNL     1      -0.863   3.334   1.472  0.00  0.00    -0.279 N 
ATOM      4  C   UNL     1      -0.724   2.012   1.250  0.00  0.00    +0.218 C 
ATOM      5  O   UNL     1      -1.167   1.213   2.049  0.00  0.00    -0.275 OA
ATOM      6  H   UNL     1      -0.509   3.973   0.834  0.00  0.00    +0.155 HD
BRANCH   3  13
ATOM      7  C   UNL     1      -4.366   6.324   6.723  0.00  0.00    +0.001 C 
ATOM      8  C   UNL     1      -2.926   6.635   6.319  0.00  0.00    +0.005 C 
ATOM      9  C   UNL     1      -2.796   6.680   4.801  0.00  0.00    +0.037 C 
ATOM     10  C   UNL     1      -2.465   5.293   4.266  0.00  0.00    -0.018 A 
ATOM     11  C   UNL     1      -2.814   4.160   4.915  0.00  0.00    -0.004 A 
ATOM     12  S   UNL     1      -2.221   2.845   3.887  0.00  0.00    -0.077 S 
ATOM     13  C   UNL     1      -1.513   3.781   2.614  0.00  0.00    +0.090 A 
ATOM     14  C   UNL     1      -1.747   5.086   3.016  0.00  0.00    +0.084 A 
ATOM     15  C   UNL     1      -3.531   4.040   6.223  0.00  0.00    +0.043 C 
ATOM     16  C   UNL     1      -4.770   4.946   6.208  0.00  0.00    +0.005 C 
BRANCH  14  17
ATOM     17  C   UNL     1      -1.302   6.195   2.227  0.00  0.00    +0.102 C 
ATOM     18  N   UNL     1      -0.948   7.074   1.600  0.00  0.00    -0.191 NA
ENDBRANCH  14  17
ENDBRANCH   3  13
ENDBRANCH   2   4
ENDBRANCH   1   2
BRANCH   1  19
ATOM     19  C   UNL     1       0.718  -0.497  -1.257  0.00  0.00    +0.010 C 
BRANCH  19  20
ATOM     20  C   UNL     1       0.739  -2.027  -1.265  0.00  0.00    +0.096 C 
BRANCH  20  21
ATOM     21  C   UNL     1       1.444  -2.513  -2.505  0.00  0.00    +0.218 C 
ATOM     22  O   UNL     1       1.887  -1.715  -3.303  0.00  0.00    -0.275 OA
ATOM     23  N   UNL     1       1.583  -3.835  -2.727  0.00  0.00    -0.279 N 
ATOM     24  H   UNL     1       1.229  -4.474  -2.088  0.00  0.00    +0.155 HD
BRANCH  23  25
ATOM     25  C   UNL     1       2.233  -4.283  -3.869  0.00  0.00    +0.090 A 
ATOM     26  C   UNL     1       2.477  -5.588  -4.265  0.00  0.00    +0.084 A 
ATOM     27  C   UNL     1       3.180  -5.794  -5.523  0.00  0.00    -0.018 A 
ATOM     28  C   UNL     1       3.538  -4.662  -6.168  0.00  0.00    -0.004 A 
ATOM     29  S   UNL     1       2.942  -3.346  -5.141  0.00  0.00    -0.077 S 
ATOM     30  C   UNL     1       4.286  -4.541  -7.458  0.00  0.00    +0.043 C 
ATOM     31  C   UNL     1       3.648  -5.466  -8.503  0.00  0.00    +0.005 C 
ATOM     32  C   UNL     1       4.319  -6.833  -8.411  0.00  0.00    +0.001 C 
ATOM     33  C   UNL     1       4.722  -7.125  -6.967  0.00  0.00    +0.005 C 
ATOM     34  C   UNL     1       3.489  -7.182  -6.071  0.00  0.00    +0.037 C 
BRANCH  26  35
ATOM     35  C   UNL     1       2.049  -6.696  -3.466  0.00  0.00    +0.102 C 
ATOM     36  N   UNL     1       1.709  -7.575  -2.832  0.00  0.00    -0.191 NA
ENDBRANCH  26  35
ENDBRANCH  23  25
ENDBRANCH  20  21
ENDBRANCH  19  20
ENDBRANCH   1  19
TORSDOF 9
