REMARK  Name = ZINC36159871
REMARK  8 active torsions:
REMARK  status: ('A' for Active; 'I' for Inactive)
REMARK    1  A    between atoms: C_4  and  N_7
REMARK    2  A    between atoms: N_7  and  C_8
REMARK    3  A    between atoms: N_7  and  C_23
REMARK    4  A    between atoms: C_8  and  C_9
REMARK    5  A    between atoms: C_23  and  C_24
REMARK    6  A    between atoms: C_24  and  C_26
REMARK    7  A    between atoms: C_24  and  O_33
REMARK    8  A    between atoms: C_26  and  N_27
REMARK                            x       y       z     vdW  Elec       q    Type
REMARK                         _______ _______ _______ _____ _____    ______ ____
ROOT
ATOM      1  N   UNL     1       2.805  -0.546  -2.144  0.00  0.00    +0.388 N 
ATOM      2  H   UNL     1       1.992  -0.138  -2.582  0.00  0.00    -0.081 HD
ENDROOT
BRANCH   1   6
ATOM      3  C   UNL     1       2.568  -1.818   1.925  0.00  0.00    -0.000 C 
ATOM      4  C   UNL     1       1.301  -1.276   1.261  0.00  0.00    -0.002 C 
ATOM      5  C   UNL     1       1.456  -1.337  -0.260  0.00  0.00    -0.015 C 
ATOM      6  C   UNL     1       2.656  -0.488  -0.684  0.00  0.00    -0.068 C 
ATOM      7  C   UNL     1       3.924  -1.030  -0.020  0.00  0.00    -0.015 C 
ATOM      8  C   UNL     1       3.768  -0.969   1.501  0.00  0.00    -0.002 C 
ENDBRANCH   1   6
BRANCH   1   9
ATOM      9  C   UNL     1       2.938  -1.947  -2.568  0.00  0.00    -0.003 C 
BRANCH   9  10
ATOM     10  C   UNL     1       1.569  -2.565  -2.695  0.00  0.00    +0.094 A 
ATOM     11  N   UNL     1       1.460  -3.898  -2.929  0.00  0.00    -0.312 N 
ATOM     12  H   UNL     1       2.264  -4.434  -3.010  0.00  0.00    +0.170 HD
ATOM     13  C   UNL     1       0.257  -4.491  -3.049  0.00  0.00    +0.260 A 
ATOM     14  O   UNL     1       0.173  -5.689  -3.259  0.00  0.00    -0.267 OA
ATOM     15  C   UNL     1      -0.923  -3.688  -2.926  0.00  0.00    +0.075 A 
ATOM     16  C   UNL     1      -2.326  -4.118  -3.020  0.00  0.00    -0.023 A 
ATOM     17  C   UNL     1      -3.264  -3.167  -2.869  0.00  0.00    -0.004 A 
ATOM     18  S   UNL     1      -2.354  -1.664  -2.592  0.00  0.00    -0.073 S 
ATOM     19  C   UNL     1      -0.711  -2.324  -2.685  0.00  0.00    +0.116 A 
ATOM     20  N   UNL     1       0.511  -1.809  -2.572  0.00  0.00    -0.229 NA
ATOM     21  C   UNL     1      -4.659  -3.720  -2.990  0.00  0.00    +0.043 C 
ATOM     22  C   UNL     1      -4.473  -5.094  -3.670  0.00  0.00    +0.010 C 
ATOM     23  C   UNL     1      -3.033  -5.455  -3.259  0.00  0.00    +0.037 C 
ENDBRANCH   9  10
ENDBRANCH   1   9
BRANCH   1  24
ATOM     24  C   UNL     1       4.004   0.202  -2.545  0.00  0.00    -0.045 C 
BRANCH  24  25
ATOM     25  C   UNL     1       3.792   1.692  -2.268  0.00  0.00    +0.112 C 
BRANCH  25  26
ATOM     26  O   UNL     1       3.724   1.909  -0.857  0.00  0.00    -0.392 OA
ATOM     27  H   UNL     1       4.547   1.715  -0.389  0.00  0.00    +0.210 HD
ENDBRANCH  25  26
BRANCH  25  28
ATOM     28  C   UNL     1       4.959   2.490  -2.851  0.00  0.00    +0.114 C 
BRANCH  28  29
ATOM     29  N   UNL     1       4.755   3.921  -2.585  0.00  0.00    -0.296 NA
ATOM     30  C   UNL     1       3.589   4.432  -3.319  0.00  0.00    +0.112 C 
ATOM     31  C   UNL     1       3.378   5.907  -2.968  0.00  0.00    +0.175 C 
ATOM     32  O   UNL     1       4.570   6.638  -3.268  0.00  0.00    -0.377 OA
ATOM     33  C   UNL     1       5.725   6.168  -2.569  0.00  0.00    +0.175 C 
ATOM     34  C   UNL     1       5.960   4.695  -2.916  0.00  0.00    +0.112 C 
ENDBRANCH  28  29
ENDBRANCH  25  28
ENDBRANCH  24  25
ENDBRANCH   1  24
TORSDOF 8
