REMARK  Name = ZINC19499560
REMARK  12 active torsions:
REMARK  status: ('A' for Active; 'I' for Inactive)
REMARK    1  A    between atoms: C_1  and  C_2
REMARK    2  A    between atoms: C_2  and  C_3
REMARK    3  A    between atoms: C_3  and  C_4
REMARK    4  A    between atoms: C_3  and  C_5
REMARK    5  A    between atoms: C_3  and  N_6
REMARK    6  A    between atoms: C_7  and  C_11
REMARK    7  A    between atoms: C_11  and  C_13
REMARK    8  A    between atoms: C_11  and  N_27
REMARK    9  A    between atoms: C_17  and  C_26
REMARK   10  A    between atoms: C_19  and  C_25
REMARK   11  A    between atoms: N_30  and  C_33
REMARK   12  A    between atoms: C_33  and  C_34
REMARK                            x       y       z     vdW  Elec       q    Type
REMARK                         _______ _______ _______ _____ _____    ______ ____
ROOT
ATOM      1  C   UNL     1      -0.034   1.111  -0.356  0.00  0.00    +0.162 C 
ENDROOT
BRANCH   1   2
ATOM      2  C   UNL     1      -0.588   1.630  -1.658  0.00  0.00    +0.042 A 
ATOM      3  C   UNL     1      -0.887   0.764  -2.657  0.00  0.00    +0.021 A 
ATOM      4  C   UNL     1      -1.423   1.299  -3.910  0.00  0.00    -0.001 A 
ATOM      5  C   UNL     1      -1.750   0.455  -4.976  0.00  0.00    +0.013 A 
ATOM      6  C   UNL     1      -2.249   0.987  -6.132  0.00  0.00    -0.050 A 
ATOM      7  C   UNL     1      -2.434   2.357  -6.257  0.00  0.00    +0.008 A 
ATOM      8  C   UNL     1      -2.119   3.207  -5.220  0.00  0.00    -0.026 A 
ATOM      9  C   UNL     1      -1.609   2.689  -4.033  0.00  0.00    +0.052 A 
ATOM     10  N   UNL     1      -1.286   3.516  -2.979  0.00  0.00    -0.322 N 
ATOM     11  H   UNL     1      -1.425   4.604  -3.070  0.00  0.00    +0.169 HD
ATOM     12  C   UNL     1      -0.799   3.015  -1.831  0.00  0.00    +0.254 A 
ATOM     13  O   UNL     1      -0.528   3.775  -0.917  0.00  0.00    -0.268 OA
ATOM     14  C   UNL     1      -2.325   4.692  -5.369  0.00  0.00    +0.046 C 
ATOM     15  C   UNL     1      -2.601   0.077  -7.281  0.00  0.00    +0.044 C 
ENDBRANCH   1   2
BRANCH   1  16
ATOM     16  N   UNL     1      -0.874   1.580   0.755  0.00  0.00    -0.292 NA
ATOM     17  C   UNL     1      -0.313   1.169   2.049  0.00  0.00    +0.067 C 
ATOM     18  C   UNL     1      -1.171   1.742   3.179  0.00  0.00    -0.063 C 
ATOM     19  N   UNL     1      -2.553   1.265   3.032  0.00  0.00    +0.386 N 
ATOM     20  C   UNL     1      -3.114   1.677   1.737  0.00  0.00    -0.063 C 
ATOM     21  C   UNL     1      -2.256   1.103   0.607  0.00  0.00    +0.067 C 
ATOM     22  H   UNL     1      -2.538   0.166   3.062  0.00  0.00    -0.081 HD
BRANCH  19  23
ATOM     23  C   UNL     1      -3.393   1.734   4.142  0.00  0.00    -0.003 C 
BRANCH  23  24
ATOM     24  C   UNL     1      -2.671   1.512   5.446  0.00  0.00    +0.089 A 
ATOM     25  C   UNL     1      -1.846   2.388   6.048  0.00  0.00    +0.042 A 
ATOM     26  C   UNL     1      -1.394   1.775   7.238  0.00  0.00    +0.041 A 
ATOM     27  C   UNL     1      -1.970   0.560   7.293  0.00  0.00    +0.195 A 
ATOM     28  O   UNL     1      -2.747   0.409   6.208  0.00  0.00    -0.470 OA
ENDBRANCH  23  24
ENDBRANCH  19  23
ENDBRANCH   1  16
BRANCH   1  30
ATOM     29  N   UNL     1       2.502   0.889  -0.211  0.00  0.00    -0.222 N 
ATOM     30  C   UNL     1       1.373   1.619  -0.171  0.00  0.00    +0.174 A 
ATOM     31  N   UNL     1       1.733   2.857   0.067  0.00  0.00    -0.111 NA
ATOM     32  N   UNL     1       3.018   2.886   0.162  0.00  0.00    -0.023 NA
ATOM     33  N   UNL     1       3.486   1.699  -0.009  0.00  0.00    -0.043 NA
BRANCH  29  34
ATOM     34  C   UNL     1       2.598  -0.554  -0.445  0.00  0.00    +0.062 C 
ATOM     35  C   UNL     1       1.880  -1.302   0.681  0.00  0.00    +0.036 C 
ATOM     36  C   UNL     1       1.943  -0.898  -1.784  0.00  0.00    +0.036 C 
BRANCH  34  38
ATOM     37  C   UNL     1       4.170  -2.477  -0.719  0.00  0.00    +0.006 C 
ATOM     38  C   UNL     1       4.070  -0.970  -0.475  0.00  0.00    +0.026 C 
ENDBRANCH  34  38
ENDBRANCH  29  34
ENDBRANCH   1  30
TORSDOF 7
