REMARK  Name = ZINC39067833
REMARK  6 active torsions:
REMARK  status: ('A' for Active; 'I' for Inactive)
REMARK    1  A    between atoms: C_4  and  C_7
REMARK    2  A    between atoms: C_9  and  C_17
REMARK    3  A    between atoms: C_17  and  C_19
REMARK    4  A    between atoms: C_19  and  S_20
REMARK    5  A    between atoms: S_20  and  C_21
REMARK    6  A    between atoms: C_24  and  N_27
REMARK                            x       y       z     vdW  Elec       q    Type
REMARK                         _______ _______ _______ _____ _____    ______ ____
ROOT
ATOM      1  C   UNL     1       3.711  -0.707  -0.038  0.00  0.00    +0.144 C 
ATOM      2  C   UNL     1       4.049  -1.204   1.351  0.00  0.00    +0.031 C 
ATOM      3  C   UNL     1       4.122  -2.581   1.246  0.00  0.00    +0.007 A 
ATOM      4  C   UNL     1       4.398  -3.604   2.183  0.00  0.00    +0.010 A 
ATOM      5  C   UNL     1       4.405  -4.899   1.795  0.00  0.00    +0.001 A 
ATOM      6  C   UNL     1       4.143  -5.291   0.472  0.00  0.00    +0.002 A 
ATOM      7  C   UNL     1       3.868  -4.394  -0.498  0.00  0.00    +0.026 A 
ATOM      8  C   UNL     1       3.841  -2.961  -0.161  0.00  0.00    +0.044 A 
ATOM      9  N   UNL     1       3.611  -1.900  -0.884  0.00  0.00    -0.373 N 
ATOM     10  H   UNL     1       3.405  -1.900  -1.831  0.00  0.00    +0.161 HD
ENDROOT
BRANCH   1  14
ATOM     11  C   UNL     1      -0.017   1.378   0.010  0.00  0.00    +0.000 A 
ATOM     12  C   UNL     1       1.171   2.086   0.002  0.00  0.00    +0.000 A 
ATOM     13  C   UNL     1       2.377   1.411  -0.013  0.00  0.00    +0.006 A 
ATOM     14  C   UNL     1       2.396   0.029  -0.020  0.00  0.00    -0.021 A 
ATOM     15  C   UNL     1       1.208  -0.679  -0.012  0.00  0.00    +0.006 A 
ATOM     16  C   UNL     1       0.002  -0.004   0.002  0.00  0.00    +0.000 A 
ENDBRANCH   1  14
BRANCH   2  17
ATOM     17  C   UNL     1       4.247  -0.425   2.511  0.00  0.00    +0.172 C 
ATOM     18  O   UNL     1       4.150   0.784   2.454  0.00  0.00    -0.291 OA
BRANCH  17  19
ATOM     19  C   UNL     1       4.579  -1.093   3.820  0.00  0.00    +0.155 C 
BRANCH  19  20
ATOM     20  S   UNL     1       4.772   0.166   5.111  0.00  0.00    -0.090 S 
BRANCH  20  21
ATOM     21  C   UNL     1       5.153  -0.762   6.559  0.00  0.00    +0.151 C 
ATOM     22  N   UNL     1       5.274  -2.049   6.675  0.00  0.00    -0.171 NA
ATOM     23  N   UNL     1       5.577  -2.676   7.863  0.00  0.00    -0.241 N 
ATOM     24  C   UNL     1       5.759  -1.774   9.024  0.00  0.00    +0.219 C 
ATOM     25  S   UNL     1       5.469  -0.151   8.207  0.00  0.00    -0.058 S 
ATOM     26  H   UNL     1       5.664  -3.639   7.935  0.00  0.00    +0.171 HD
BRANCH  24  27
ATOM     27  N   UNL     1       4.761  -2.039  10.068  0.00  0.00    -0.303 NA
ATOM     28  H   UNL     1       4.890  -1.422  10.856  0.00  0.00    +0.121 HD
ATOM     29  H   UNL     1       3.824  -1.966   9.701  0.00  0.00    +0.121 HD
ENDBRANCH  24  27
ENDBRANCH  20  21
ENDBRANCH  19  20
ENDBRANCH  17  19
ENDBRANCH   2  17
TORSDOF 6
