REMARK  Name = ZINC20484823
REMARK  10 active torsions:
REMARK  status: ('A' for Active; 'I' for Inactive)
REMARK    1  A    between atoms: C_1  and  C_2
REMARK    2  A    between atoms: C_7  and  N_12
REMARK    3  A    between atoms: C_9  and  C_11
REMARK    4  A    between atoms: N_12  and  C_13
REMARK    5  A    between atoms: N_12  and  C_32
REMARK    6  A    between atoms: C_13  and  C_14
REMARK    7  A    between atoms: C_14  and  C_15
REMARK    8  A    between atoms: C_15  and  N_16
REMARK    9  A    between atoms: C_17  and  C_19
REMARK   10  A    between atoms: C_32  and  C_33
REMARK                            x       y       z     vdW  Elec       q    Type
REMARK                         _______ _______ _______ _____ _____    ______ ____
ROOT
ATOM      1  C   UNL     1       1.915  -4.339  -2.745  0.00  0.00    +0.000 C 
ENDROOT
BRANCH   1   2
ATOM      2  C   UNL     1       2.050  -3.741  -1.343  0.00  0.00    -0.076 C 
BRANCH   2   3
ATOM      3  N   UNL     1       1.842  -2.288  -1.408  0.00  0.00    +0.386 N 
ATOM      4  H   UNL     1       0.894  -2.106  -1.936  0.00  0.00    -0.081 HD
BRANCH   3  10
ATOM      5  C   UNL     1       3.021   1.704  -4.081  0.00  0.00    +0.008 C 
ATOM      6  C   UNL     1       3.527   0.373  -3.522  0.00  0.00    -0.013 C 
ATOM      7  C   UNL     1       4.723   0.628  -2.603  0.00  0.00    +0.003 C 
ATOM      8  C   UNL     1       5.229  -0.703  -2.044  0.00  0.00    -0.001 C 
ATOM      9  C   UNL     1       4.111  -1.382  -1.250  0.00  0.00    -0.015 C 
ATOM     10  C   UNL     1       2.916  -1.637  -2.170  0.00  0.00    -0.065 C 
ATOM     11  C   UNL     1       2.409  -0.306  -2.729  0.00  0.00    -0.025 C 
ATOM     12  C   UNL     1       1.213  -0.561  -3.649  0.00  0.00    +0.006 C 
ENDBRANCH   3  10
BRANCH   3  13
ATOM     13  C   UNL     1       1.727  -1.712  -0.062  0.00  0.00    -0.003 C 
BRANCH  13  14
ATOM     14  C   UNL     1       1.030  -0.379  -0.144  0.00  0.00    +0.089 A 
ATOM     15  C   UNL     1      -0.300  -0.189  -0.206  0.00  0.00    +0.042 A 
ATOM     16  C   UNL     1      -0.512   1.207  -0.271  0.00  0.00    +0.041 A 
ATOM     17  C   UNL     1       0.701   1.787  -0.245  0.00  0.00    +0.195 A 
ATOM     18  O   UNL     1       1.631   0.822  -0.168  0.00  0.00    -0.470 OA
ENDBRANCH  13  14
ENDBRANCH   3  13
ENDBRANCH   2   3
ENDBRANCH   1   2
BRANCH   1  19
ATOM     19  C   UNL     1       2.132  -5.852  -2.678  0.00  0.00    +0.103 C 
BRANCH  19  20
ATOM     20  N   UNL     1       2.003  -6.424  -4.020  0.00  0.00    -0.310 N 
ATOM     21  C   UNL     1       2.155  -7.751  -4.205  0.00  0.00    +0.266 C 
ATOM     22  O   UNL     1       2.399  -8.472  -3.257  0.00  0.00    -0.268 OA
ATOM     23  H   UNL     1       1.783  -5.771  -4.877  0.00  0.00    +0.149 HD
BRANCH  21  24
ATOM     24  C   UNL     1       2.025  -8.330  -5.564  0.00  0.00    +0.175 A 
ATOM     25  C   UNL     1       2.153  -9.674  -5.921  0.00  0.00    +0.069 A 
ATOM     26  C   UNL     1       1.942  -9.684  -7.286  0.00  0.00    +0.178 A 
ATOM     27  O   UNL     1       1.719  -8.430  -7.642  0.00  0.00    -0.353 OA
ATOM     28  N   UNL     1       1.759  -7.682  -6.681  0.00  0.00    -0.073 NA
ATOM     29  C   UNL     1       1.998 -10.969  -8.002  0.00  0.00    +0.062 A 
ATOM     30  C   UNL     1       2.064 -11.059  -9.384  0.00  0.00    +0.015 A 
ATOM     31  C   UNL     1       2.131 -12.303  -9.984  0.00  0.00    +0.001 A 
ATOM     32  C   UNL     1       2.132 -13.448  -9.206  0.00  0.00    +0.004 A 
ATOM     33  C   UNL     1       2.061 -13.367  -7.828  0.00  0.00    +0.046 A 
ATOM     34  C   UNL     1       1.986 -12.131  -7.206  0.00  0.00    +0.132 A 
ATOM     35  O   UNL     1       1.889 -12.046  -5.857  0.00  0.00    -0.486 OA
ATOM     36  C   UNL     1       2.448 -10.929  -5.157  0.00  0.00    +0.270 C 
ENDBRANCH  21  24
ENDBRANCH  19  20
ENDBRANCH   1  19
TORSDOF 8
