REMARK  Name = ZINC62315295
REMARK  7 active torsions:
REMARK  status: ('A' for Active; 'I' for Inactive)
REMARK    1  A    between atoms: C_1  and  C_2
REMARK    2  A    between atoms: C_2  and  C_3
REMARK    3  A    between atoms: C_2  and  C_4
REMARK    4  A    between atoms: C_2  and  C_21
REMARK    5  A    between atoms: C_4  and  C_5
REMARK    6  A    between atoms: N_7  and  C_8
REMARK    7  A    between atoms: C_8  and  C_9
REMARK                            x       y       z     vdW  Elec       q    Type
REMARK                         _______ _______ _______ _____ _____    ______ ____
ROOT
ATOM      1  C   UNL     1      -2.139  -0.048   1.253  0.00  0.00    +0.214 C 
ATOM      2  O   UNL     1      -1.551   0.653   2.049  0.00  0.00    -0.276 OA
ATOM      3  N   UNL     1      -3.422  -0.392   1.476  0.00  0.00    -0.311 N 
ATOM      4  H   UNL     1      -3.892  -0.953   0.839  0.00  0.00    +0.149 HD
ENDROOT
BRANCH   1   5
ATOM      5  C   UNL     1      -1.433  -0.534   0.013  0.00  0.00    +0.106 C 
BRANCH   5   7
ATOM      6  C   UNL     1      -0.019   1.526   0.010  0.00  0.00    +0.016 C 
ATOM      7  C   UNL     1       0.002  -0.004   0.002  0.00  0.00    -0.002 C 
ATOM      8  C   UNL     1       0.742  -0.511   1.242  0.00  0.00    +0.016 C 
BRANCH   7   9
ATOM      9  C   UNL     1       0.707  -0.490  -1.238  0.00  0.00    -0.041 A 
ATOM     10  C   UNL     1       0.036  -1.284  -2.148  0.00  0.00    +0.005 A 
ATOM     11  C   UNL     1       0.682  -1.730  -3.286  0.00  0.00    +0.020 A 
ATOM     12  C   UNL     1       2.002  -1.382  -3.513  0.00  0.00    +0.041 A 
ATOM     13  C   UNL     1       2.673  -0.587  -2.601  0.00  0.00    +0.020 A 
ATOM     14  C   UNL     1       2.024  -0.137  -1.467  0.00  0.00    +0.005 A 
ATOM     15 CL   UNL     1       2.814  -1.942  -4.941  0.00  0.00    -0.084 Cl
ENDBRANCH   7   9
ENDBRANCH   5   7
ENDBRANCH   1   5
BRANCH   3  16
ATOM     16  C   UNL     1      -4.108   0.081   2.682  0.00  0.00    +0.145 C 
BRANCH  16  17
ATOM     17  C   UNL     1      -5.522  -0.441   2.692  0.00  0.00    +0.034 A 
ATOM     18  C   UNL     1      -5.817  -1.579   3.368  0.00  0.00    +0.020 A 
ATOM     19  C   UNL     1      -7.200  -2.059   3.359  0.00  0.00    -0.001 A 
ATOM     20  C   UNL     1      -7.566  -3.226   4.038  0.00  0.00    +0.010 A 
ATOM     21  C   UNL     1      -8.865  -3.647   4.011  0.00  0.00    +0.001 A 
ATOM     22  C   UNL     1      -9.826  -2.927   3.315  0.00  0.00    +0.002 A 
ATOM     23  C   UNL     1      -9.489  -1.774   2.638  0.00  0.00    +0.026 A 
ATOM     24  C   UNL     1      -8.172  -1.326   2.653  0.00  0.00    +0.049 A 
ATOM     25  N   UNL     1      -7.807  -0.176   1.986  0.00  0.00    -0.322 N 
ATOM     26  H   UNL     1      -8.478   0.328   1.499  0.00  0.00    +0.169 HD
ATOM     27  C   UNL     1      -6.535   0.260   2.004  0.00  0.00    +0.254 A 
ATOM     28  O   UNL     1      -6.249   1.283   1.407  0.00  0.00    -0.268 OA
ENDBRANCH  16  17
ENDBRANCH   3  16
TORSDOF 5
