REMARK  Name = ZINC11873509
REMARK  11 active torsions:
REMARK  status: ('A' for Active; 'I' for Inactive)
REMARK    1  A    between atoms: C_1  and  C_2
REMARK    2  A    between atoms: C_4  and  C_32
REMARK    3  A    between atoms: N_5  and  C_7
REMARK    4  A    between atoms: C_7  and  C_8
REMARK    5  A    between atoms: C_8  and  C_9
REMARK    6  A    between atoms: N_11  and  C_12
REMARK    7  A    between atoms: C_15  and  C_30
REMARK    8  A    between atoms: C_15  and  C_31
REMARK    9  A    between atoms: N_21  and  C_22
REMARK   10  A    between atoms: C_25  and  O_28
REMARK   11  A    between atoms: O_28  and  C_29
REMARK                            x       y       z     vdW  Elec       q    Type
REMARK                         _______ _______ _______ _____ _____    ______ ____
ROOT
ATOM      1  C   UNL     1       2.585  -6.748   3.946  0.00  0.00    +0.107 C 
ATOM      2  C   UNL     1       3.816  -7.646   3.769  0.00  0.00    +0.034 C 
ATOM      3  C   UNL     1       3.854  -8.687   4.891  0.00  0.00    -0.027 C 
ATOM      4  C   UNL     1       4.189  -7.997   6.219  0.00  0.00    +0.062 C 
ATOM      5  C   UNL     1       3.271  -6.812   6.383  0.00  0.00    +0.050 A 
ATOM      6  C   UNL     1       2.555  -6.256   5.371  0.00  0.00    +0.014 A 
ATOM      7  C   UNL     1       1.825  -5.191   5.894  0.00  0.00    +0.140 A 
ATOM      8  N   UNL     1       2.090  -5.105   7.176  0.00  0.00    -0.174 NA
ATOM      9  N   UNL     1       3.003  -6.119   7.505  0.00  0.00    -0.236 N 
ATOM     10  C   UNL     1       4.924  -9.735   4.577  0.00  0.00    +0.011 C 
ATOM     11  C   UNL     1       2.489  -9.370   5.000  0.00  0.00    +0.011 C 
ENDROOT
BRANCH   9  12
ATOM     12  C   UNL     1       3.539  -6.368   8.778  0.00  0.00    +0.066 A 
ATOM     13  C   UNL     1       4.886  -6.675   8.916  0.00  0.00    +0.031 A 
ATOM     14  C   UNL     1       5.413  -6.919  10.168  0.00  0.00    +0.048 A 
ATOM     15  C   UNL     1       4.597  -6.857  11.289  0.00  0.00    +0.120 A 
ATOM     16  C   UNL     1       3.252  -6.550  11.151  0.00  0.00    +0.048 A 
ATOM     17  C   UNL     1       2.724  -6.300   9.900  0.00  0.00    +0.031 A 
BRANCH  15  18
ATOM     18  O   UNL     1       5.117  -7.098  12.522  0.00  0.00    -0.495 OA
ATOM     19  C   UNL     1       4.220  -7.016  13.631  0.00  0.00    +0.277 C 
ENDBRANCH  15  18
ENDBRANCH   9  12
BRANCH   1  22
ATOM     20  C   UNL     1       1.551  -4.970   2.639  0.00  0.00    +0.215 C 
ATOM     21  O   UNL     1       0.469  -5.343   3.043  0.00  0.00    -0.276 OA
ATOM     22  N   UNL     1       2.672  -5.606   3.032  0.00  0.00    -0.308 N 
ATOM     23  H   UNL     1       3.537  -5.308   2.709  0.00  0.00    +0.149 HD
BRANCH  20  24
ATOM     24  C   UNL     1       1.640  -3.796   1.699  0.00  0.00    +0.119 C 
BRANCH  24  25
ATOM     25  C   UNL     1       0.235  -3.261   1.415  0.00  0.00    +0.153 C 
BRANCH  25  30
ATOM     26  C   UNL     1       0.644   1.445  -0.280  0.00  0.00    +0.067 C 
ATOM     27  C   UNL     1       0.502  -0.054  -0.218  0.00  0.00    +0.060 A 
ATOM     28  C   UNL     1       0.394  -0.913  -1.317  0.00  0.00    +0.047 A 
ATOM     29  C   UNL     1       0.284  -2.177  -0.847  0.00  0.00    +0.036 A 
ATOM     30  N   UNL     1       0.322  -2.120   0.501  0.00  0.00    -0.268 N 
ATOM     31  N   UNL     1       0.465  -0.776   0.872  0.00  0.00    -0.176 NA
ATOM     32  C   UNL     1       0.144  -3.426  -1.679  0.00  0.00    +0.065 C 
ENDBRANCH  25  30
ENDBRANCH  24  25
ENDBRANCH  20  24
ENDBRANCH   1  22
TORSDOF 6
