REMARK  Name = ZINC04654487
REMARK  6 active torsions:
REMARK  status: ('A' for Active; 'I' for Inactive)
REMARK    1  A    between atoms: C_1  and  C_2
REMARK    2  A    between atoms: C_5  and  N_9
REMARK    3  A    between atoms: C_13  and  C_33
REMARK    4  A    between atoms: C_19  and  S_20
REMARK    5  A    between atoms: S_20  and  C_21
REMARK    6  A    between atoms: C_21  and  C_22
REMARK                            x       y       z     vdW  Elec       q    Type
REMARK                         _______ _______ _______ _____ _____    ______ ____
ROOT
ATOM      1  N   UNL     1       0.063  -4.170  -0.021  0.00  0.00    -0.273 N 
ATOM      2  C   UNL     1       0.175  -4.881   1.182  0.00  0.00    +0.145 A 
ATOM      3  N   UNL     1      -0.277  -4.444   2.328  0.00  0.00    -0.282 NA
ATOM      4  C   UNL     1       0.862  -6.179   1.011  0.00  0.00    +0.083 A 
ATOM      5  C   UNL     1       1.473  -7.047   1.851  0.00  0.00    +0.046 A 
ATOM      6  N   UNL     1       1.931  -8.077   1.109  0.00  0.00    -0.279 N 
ATOM      7  N   UNL     1       1.606  -7.871  -0.241  0.00  0.00    -0.153 NA
ATOM      8  H   UNL     1       2.412  -8.844   1.457  0.00  0.00    +0.189 HD
ATOM      9  C   UNL     1       0.962  -6.749  -0.355  0.00  0.00    +0.187 A 
ATOM     10  N   UNL     1       0.411  -6.074  -1.406  0.00  0.00    -0.201 NA
ATOM     11  C   UNL     1      -0.038  -4.851  -1.210  0.00  0.00    +0.177 A 
ATOM     12  C   UNL     1       1.616  -6.891   3.343  0.00  0.00    +0.066 C 
ATOM     13  H   UNL     1      -0.786  -3.619   2.366  0.00  0.00    +0.188 HD
ENDROOT
BRANCH   1  18
ATOM     14  C   UNL     1       0.004   1.505   0.018  0.00  0.00    +0.045 C 
ATOM     15  C   UNL     1       0.019  -0.002   0.008  0.00  0.00    -0.032 A 
ATOM     16  C   UNL     1       1.214  -0.679  -0.155  0.00  0.00    +0.007 A 
ATOM     17  C   UNL     1       1.231  -2.060  -0.165  0.00  0.00    +0.026 A 
ATOM     18  C   UNL     1       0.048  -2.770  -0.011  0.00  0.00    +0.052 A 
ATOM     19  C   UNL     1      -1.151  -2.088   0.152  0.00  0.00    +0.046 A 
ATOM     20  C   UNL     1      -1.162  -0.706   0.166  0.00  0.00    +0.046 A 
ATOM     21 CL   UNL     1      -2.659   0.147   0.377  0.00  0.00    -0.083 Cl
ENDBRANCH   1  18
BRANCH  11  22
ATOM     22  S   UNL     1      -0.815  -4.031  -2.562  0.00  0.00    -0.081 S 
BRANCH  22  23
ATOM     23  C   UNL     1      -0.746  -5.244  -3.909  0.00  0.00    +0.133 C 
BRANCH  23  24
ATOM     24  C   UNL     1      -1.386  -4.662  -5.143  0.00  0.00    +0.059 A 
ATOM     25  C   UNL     1      -0.597  -4.238  -6.194  0.00  0.00    +0.094 A 
ATOM     26  C   UNL     1      -1.214  -3.700  -7.330  0.00  0.00    +0.259 A 
ATOM     27  O   UNL     1      -0.545  -3.317  -8.277  0.00  0.00    -0.267 OA
ATOM     28  N   UNL     1      -2.561  -3.612  -7.362  0.00  0.00    -0.268 N 
ATOM     29  C   UNL     1      -3.176  -3.092  -8.460  0.00  0.00    +0.096 A 
ATOM     30  C   UNL     1      -4.523  -2.994  -8.516  0.00  0.00    +0.018 A 
ATOM     31  C   UNL     1      -5.306  -3.429  -7.437  0.00  0.00    +0.005 A 
ATOM     32  C   UNL     1      -4.700  -3.952  -6.334  0.00  0.00    +0.047 A 
ATOM     33  C   UNL     1      -3.297  -4.046  -6.295  0.00  0.00    +0.140 A 
ATOM     34  N   UNL     1      -2.703  -4.561  -5.220  0.00  0.00    -0.233 NA
ENDBRANCH  23  24
ENDBRANCH  22  23
ENDBRANCH  11  22
TORSDOF 4
