REMARK  Name = ZINC15219951
REMARK  6 active torsions:
REMARK  status: ('A' for Active; 'I' for Inactive)
REMARK    1  A    between atoms: C_1  and  C_2
REMARK    2  A    between atoms: C_5  and  N_8
REMARK    3  A    between atoms: C_11  and  C_18
REMARK    4  A    between atoms: C_12  and  O_17
REMARK    5  A    between atoms: C_20  and  C_32
REMARK    6  A    between atoms: N_22  and  C_25
REMARK                            x       y       z     vdW  Elec       q    Type
REMARK                         _______ _______ _______ _____ _____    ______ ____
ROOT
ATOM      1  N   UNL     1       1.743   1.646  -0.099  0.00  0.00    -0.228 N 
ATOM      2  C   UNL     1       2.065   0.349  -0.289  0.00  0.00    +0.272 A 
ATOM      3  O   UNL     1       3.229   0.001  -0.355  0.00  0.00    -0.266 OA
ATOM      4  C   UNL     1       0.977  -0.634  -0.415  0.00  0.00    +0.100 A 
ATOM      5  C   UNL     1      -0.345  -0.164  -0.330  0.00  0.00    +0.207 A 
ATOM      6  N   UNL     1      -0.561   1.167  -0.136  0.00  0.00    -0.278 N 
ATOM      7  H   UNL     1      -1.471   1.498  -0.081  0.00  0.00    +0.173 HD
ATOM      8  C   UNL     1       0.459   2.032  -0.026  0.00  0.00    +0.337 A 
ATOM      9  O   UNL     1       0.211   3.210   0.146  0.00  0.00    -0.246 OA
ENDROOT
BRANCH   4  10
ATOM     10  C   UNL     1       1.251  -1.998  -0.614  0.00  0.00    +0.033 C 
ATOM     11  C   UNL     1       0.743  -2.946   0.270  0.00  0.00    +0.062 C 
ATOM     12  C   UNL     1       0.812  -4.406   0.140  0.00  0.00    +0.069 C 
ATOM     13  N   UNL     1       0.221  -4.918   1.179  0.00  0.00    -0.177 NA
ATOM     14  N   UNL     1      -0.258  -3.904   2.011  0.00  0.00    -0.156 N 
ATOM     15  C   UNL     1       0.044  -2.701   1.485  0.00  0.00    +0.272 C 
ATOM     16  O   UNL     1      -0.229  -1.611   1.959  0.00  0.00    -0.268 OA
ATOM     17  C   UNL     1       1.454  -5.172  -0.988  0.00  0.00    +0.068 C 
BRANCH  14  18
ATOM     18  C   UNL     1      -0.950  -4.107   3.213  0.00  0.00    +0.061 A 
ATOM     19  C   UNL     1      -1.375  -3.018   3.962  0.00  0.00    +0.028 A 
ATOM     20  C   UNL     1      -2.062  -3.221   5.144  0.00  0.00    +0.040 A 
ATOM     21  C   UNL     1      -2.315  -4.508   5.587  0.00  0.00    +0.124 A 
ATOM     22  C   UNL     1      -1.887  -5.595   4.843  0.00  0.00    +0.040 A 
ATOM     23  C   UNL     1      -1.205  -5.397   3.658  0.00  0.00    +0.028 A 
ATOM     24  F   UNL     1      -2.982  -4.704   6.745  0.00  0.00    -0.205 F 
ENDBRANCH  14  18
ENDBRANCH   4  10
BRANCH   1  29
ATOM     25  C   UNL     1       5.866   5.514   0.399  0.00  0.00    +0.044 C 
ATOM     26  C   UNL     1       4.771   4.487   0.267  0.00  0.00    -0.050 A 
ATOM     27  C   UNL     1       3.966   4.477  -0.858  0.00  0.00    +0.005 A 
ATOM     28  C   UNL     1       2.962   3.537  -0.982  0.00  0.00    +0.026 A 
ATOM     29  C   UNL     1       2.761   2.601   0.024  0.00  0.00    +0.054 A 
ATOM     30  C   UNL     1       3.568   2.617   1.154  0.00  0.00    +0.026 A 
ATOM     31  C   UNL     1       4.574   3.556   1.270  0.00  0.00    +0.005 A 
ENDBRANCH   1  29
BRANCH   5  32
ATOM     32  O   UNL     1      -1.381  -1.014  -0.439  0.00  0.00    -0.493 OA
ATOM     33  H   UNL     1      -2.269  -0.636  -0.373  0.00  0.00    +0.294 HD
ENDBRANCH   5  32
TORSDOF 4
