REMARK  Name = ZINC02338489
REMARK  7 active torsions:
REMARK  status: ('A' for Active; 'I' for Inactive)
REMARK    1  A    between atoms: C_1  and  C_2
REMARK    2  A    between atoms: C_2  and  O_3
REMARK    3  A    between atoms: O_3  and  C_4
REMARK    4  A    between atoms: C_4  and  C_6
REMARK    5  A    between atoms: C_10  and  N_11
REMARK    6  A    between atoms: C_12  and  C_13
REMARK    7  A    between atoms: C_18  and  O_19
REMARK                            x       y       z     vdW  Elec       q    Type
REMARK                         _______ _______ _______ _____ _____    ______ ____
ROOT
ATOM      1  C   UNL     1       1.449  -2.344  -2.517  0.00  0.00    +0.095 A 
ATOM      2  C   UNL     1       2.832  -2.606  -2.501  0.00  0.00    -0.021 A 
ATOM      3  C   UNL     1       3.374  -3.109  -3.636  0.00  0.00    -0.004 A 
ATOM      4  S   UNL     1       2.012  -3.242  -4.763  0.00  0.00    -0.073 S 
ATOM      5  C   UNL     1       0.730  -2.622  -3.686  0.00  0.00    +0.116 A 
ATOM      6  C   UNL     1       4.807  -3.469  -3.878  0.00  0.00    +0.043 C 
ATOM      7  C   UNL     1       5.659  -2.841  -2.765  0.00  0.00    +0.005 C 
ATOM      8  C   UNL     1       5.002  -3.144  -1.415  0.00  0.00    +0.005 C 
ATOM      9  C   UNL     1       3.705  -2.345  -1.276  0.00  0.00    +0.037 C 
ENDROOT
BRANCH   1  10
ATOM     10  C   UNL     1       0.776  -1.800  -1.335  0.00  0.00    +0.342 C 
ATOM     11  O   UNL     1       0.312  -2.552  -0.499  0.00  0.00    -0.245 OA
BRANCH  10  12
ATOM     12  O   UNL     1       0.671  -0.465  -1.174  0.00  0.00    -0.461 OA
BRANCH  12  14
ATOM     13  C   UNL     1      -0.019   1.526   0.010  0.00  0.00    +0.048 C 
ATOM     14  C   UNL     1       0.002  -0.004   0.002  0.00  0.00    +0.229 C 
ENDBRANCH  12  14
ENDBRANCH  10  12
ENDBRANCH   1  10
BRANCH   5  15
ATOM     15  N   UNL     1      -0.587  -2.462  -3.934  0.00  0.00    -0.247 NA
ATOM     16  C   UNL     1      -1.076  -2.783  -5.104  0.00  0.00    +0.123 C 
BRANCH  16  17
ATOM     17  C   UNL     1      -2.509  -2.608  -5.374  0.00  0.00    +0.036 A 
ATOM     18  C   UNL     1      -3.038  -2.956  -6.623  0.00  0.00    +0.033 A 
ATOM     19  C   UNL     1      -4.384  -2.789  -6.868  0.00  0.00    +0.042 A 
ATOM     20  C   UNL     1      -5.216  -2.278  -5.884  0.00  0.00    +0.023 A 
ATOM     21  C   UNL     1      -4.707  -1.931  -4.648  0.00  0.00    +0.047 A 
ATOM     22  C   UNL     1      -3.358  -2.097  -4.380  0.00  0.00    +0.126 A 
ATOM     23 CL   UNL     1      -5.040  -3.220  -8.417  0.00  0.00    -0.084 Cl
BRANCH  22  24
ATOM     24  O   UNL     1      -2.859  -1.762  -3.163  0.00  0.00    -0.506 OA
ATOM     25  H   UNL     1      -2.559  -0.844  -3.100  0.00  0.00    +0.292 HD
ENDBRANCH  22  24
ENDBRANCH  16  17
ENDBRANCH   5  15
TORSDOF 6
