REMARK  Name = ZINC19315053
REMARK  7 active torsions:
REMARK  status: ('A' for Active; 'I' for Inactive)
REMARK    1  A    between atoms: C_1  and  C_2
REMARK    2  A    between atoms: C_3  and  C_23
REMARK    3  A    between atoms: C_4  and  C_14
REMARK    4  A    between atoms: C_23  and  O_25
REMARK    5  A    between atoms: O_25  and  C_26
REMARK    6  A    between atoms: C_26  and  C_27
REMARK    7  A    between atoms: C_26  and  C_28
REMARK                            x       y       z     vdW  Elec       q    Type
REMARK                         _______ _______ _______ _____ _____    ______ ____
ROOT
ATOM      1  C   UNL     1      -0.021   1.052   0.017  0.00  0.00    +0.061 C 
ATOM      2  C   UNL     1      -0.722   1.556   1.252  0.00  0.00    +0.016 C 
ATOM      3  C   UNL     1      -0.034   1.701   2.398  0.00  0.00    +0.065 C 
ATOM      4  C   UNL     1      -0.697   2.208   3.645  0.00  0.00    +0.092 C 
ATOM      5  C   UNL     1      -2.197   2.093   3.545  0.00  0.00    +0.024 C 
ATOM      6  C   UNL     1      -2.798   1.935   2.347  0.00  0.00    +0.015 C 
ATOM      7  N   UNL     1      -2.052   1.867   1.199  0.00  0.00    -0.321 N 
ATOM      8  C   UNL     1      -4.299   1.831   2.238  0.00  0.00    +0.051 C 
ATOM      9  C   UNL     1      -4.862   1.182   3.504  0.00  0.00    +0.014 C 
ATOM     10  C   UNL     1      -4.448   2.031   4.711  0.00  0.00    +0.080 C 
ATOM     11  C   UNL     1      -2.949   2.154   4.731  0.00  0.00    +0.162 C 
ATOM     12  O   UNL     1      -2.377   2.307   5.793  0.00  0.00    -0.292 OA
ATOM     13  H   UNL     1      -2.532   2.065   0.229  0.00  0.00    +0.152 HD
ENDROOT
BRANCH   4  14
ATOM     14  C   UNL     1      -0.324   3.654   3.851  0.00  0.00    -0.032 A 
ATOM     15  C   UNL     1      -0.647   4.593   2.889  0.00  0.00    +0.008 A 
ATOM     16  C   UNL     1      -0.308   5.921   3.073  0.00  0.00    +0.050 A 
ATOM     17  C   UNL     1       0.357   6.313   4.224  0.00  0.00    +0.166 A 
ATOM     18  C   UNL     1       0.682   5.367   5.193  0.00  0.00    +0.167 A 
ATOM     19  C   UNL     1       0.335   4.039   5.003  0.00  0.00    +0.054 A 
ATOM     20  O   UNL     1       1.326   5.996   6.218  0.00  0.00    -0.453 OA
ATOM     21  C   UNL     1       1.753   7.263   5.684  0.00  0.00    +0.466 C 
ATOM     22  O   UNL     1       0.797   7.535   4.643  0.00  0.00    -0.453 OA
ENDBRANCH   4  14
BRANCH   3  23
ATOM     23  C   UNL     1       1.341   1.370   2.428  0.00  0.00    +0.338 C 
ATOM     24  O   UNL     1       1.915   1.060   1.401  0.00  0.00    -0.245 OA
BRANCH  23  25
ATOM     25  O   UNL     1       2.016   1.399   3.596  0.00  0.00    -0.459 OA
BRANCH  25  26
ATOM     26  C   UNL     1       3.402   1.053   3.553  0.00  0.00    +0.171 C 
ATOM     27  C   UNL     1       4.235   2.313   3.309  0.00  0.00    +0.052 C 
ATOM     28  C   UNL     1       3.812   0.421   4.885  0.00  0.00    +0.052 C 
ENDBRANCH  25  26
ENDBRANCH  23  25
ENDBRANCH   3  23
TORSDOF 4
