REMARK  Name = ZINC39666770
REMARK  9 active torsions:
REMARK  status: ('A' for Active; 'I' for Inactive)
REMARK    1  A    between atoms: C_1  and  C_2
REMARK    2  A    between atoms: C_2  and  C_3
REMARK    3  A    between atoms: C_3  and  C_4
REMARK    4  A    between atoms: C_3  and  C_6
REMARK    5  A    between atoms: C_4  and  C_5
REMARK    6  A    between atoms: C_6  and  N_7
REMARK    7  A    between atoms: C_8  and  C_10
REMARK    8  A    between atoms: C_21  and  C_23
REMARK    9  A    between atoms: C_23  and  C_24
REMARK                            x       y       z     vdW  Elec       q    Type
REMARK                         _______ _______ _______ _____ _____    ______ ____
ROOT
ATOM      1  C   UNL     1       3.632  -3.249   3.427  0.00  0.00    +0.100 C 
ATOM      2  C   UNL     1       3.094  -2.791   4.801  0.00  0.00    +0.121 C 
ATOM      3  N   UNL     1       2.522  -4.017   5.407  0.00  0.00    -0.300 N 
ATOM      4  C   UNL     1       3.474  -5.091   5.033  0.00  0.00    +0.115 C 
ATOM      5  C   UNL     1       3.884  -4.758   3.584  0.00  0.00    -0.004 C 
ATOM      6  C   UNL     1       5.360  -5.073   3.368  0.00  0.00    -0.010 C 
ATOM      7  C   UNL     1       5.576  -6.586   3.471  0.00  0.00    -0.082 C 
ATOM      8  N   UNL     1       4.756  -7.269   2.463  0.00  0.00    +0.379 N 
ATOM      9  C   UNL     1       3.332  -7.037   2.734  0.00  0.00    -0.082 C 
ATOM     10  C   UNL     1       3.022  -5.543   2.599  0.00  0.00    -0.010 C 
ATOM     11  C   UNL     1       1.393  -4.130   6.134  0.00  0.00    +0.220 C 
ATOM     12  O   UNL     1       1.055  -5.212   6.565  0.00  0.00    -0.275 OA
ATOM     13  H   UNL     1       4.985  -6.912   1.547  0.00  0.00    -0.086 HD
ATOM     14  H   UNL     1       4.945  -8.260   2.493  0.00  0.00    -0.086 HD
ENDROOT
BRANCH   1  16
ATOM     15  N   UNL     1       3.003  -2.764   1.085  0.00  0.00    -0.315 N 
ATOM     16  C   UNL     1       2.607  -2.998   2.351  0.00  0.00    +0.218 C 
ATOM     17  O   UNL     1       1.425  -3.006   2.626  0.00  0.00    -0.275 OA
ATOM     18  H   UNL     1       3.947  -2.757   0.865  0.00  0.00    +0.149 HD
BRANCH  15  19
ATOM     19  C   UNL     1       2.006  -2.519   0.039  0.00  0.00    +0.107 C 
BRANCH  19  20
ATOM     20  C   UNL     1       2.716  -2.157  -1.267  0.00  0.00    +0.006 C 
BRANCH  20  22
ATOM     21  C   UNL     1       2.400  -1.774  -3.716  0.00  0.00    +0.004 C 
ATOM     22  C   UNL     1       1.682  -2.012  -2.386  0.00  0.00    +0.002 C 
ENDBRANCH  20  22
BRANCH  20  23
ATOM     23  C   UNL     1       3.466  -0.836  -1.091  0.00  0.00    +0.002 C 
ATOM     24  C   UNL     1       2.471   0.273  -0.741  0.00  0.00    +0.004 C 
ENDBRANCH  20  23
ENDBRANCH  19  20
ENDBRANCH  15  19
ENDBRANCH   1  16
BRANCH  11  25
ATOM     25  C   UNL     1       0.550  -2.912   6.411  0.00  0.00    +0.131 C 
BRANCH  25  26
ATOM     26  C   UNL     1      -0.646  -3.306   7.238  0.00  0.00    -0.039 A 
ATOM     27  C   UNL     1      -1.817  -3.697   6.615  0.00  0.00    +0.005 A 
ATOM     28  C   UNL     1      -2.915  -4.059   7.373  0.00  0.00    +0.020 A 
ATOM     29  C   UNL     1      -2.842  -4.030   8.755  0.00  0.00    +0.041 A 
ATOM     30  C   UNL     1      -1.669  -3.639   9.377  0.00  0.00    +0.020 A 
ATOM     31  C   UNL     1      -0.571  -3.283   8.618  0.00  0.00    +0.005 A 
ATOM     32 CL   UNL     1      -4.221  -4.484   9.707  0.00  0.00    -0.084 Cl
ENDBRANCH  25  26
ENDBRANCH  11  25
TORSDOF 7
