REMARK  Name = ZINC66310696
REMARK  6 active torsions:
REMARK  status: ('A' for Active; 'I' for Inactive)
REMARK    1  A    between atoms: C_4  and  C_7
REMARK    2  A    between atoms: C_10  and  C_12
REMARK    3  A    between atoms: N_14  and  N_15
REMARK    4  A    between atoms: C_16  and  C_18
REMARK    5  A    between atoms: C_18  and  S_19
REMARK    6  A    between atoms: S_19  and  C_20
REMARK                            x       y       z     vdW  Elec       q    Type
REMARK                         _______ _______ _______ _____ _____    ______ ____
ROOT
ATOM      1  C   UNL     1       2.916  -1.753  -2.277  0.00  0.00    +0.233 C 
ATOM      2  O   UNL     1       1.888  -1.117  -2.171  0.00  0.00    -0.274 OA
ATOM      3  N   UNL     1       3.103  -2.560  -3.340  0.00  0.00    -0.234 N 
ATOM      4  H   UNL     1       3.924  -3.068  -3.424  0.00  0.00    +0.173 HD
ENDROOT
BRANCH   3   5
ATOM      5  N   UNL     1       2.110  -2.665  -4.323  0.00  0.00    -0.234 N 
ATOM      6  C   UNL     1       2.297  -3.472  -5.386  0.00  0.00    +0.239 C 
ATOM      7  O   UNL     1       3.325  -4.107  -5.492  0.00  0.00    -0.273 OA
ATOM      8  H   UNL     1       1.288  -2.156  -4.239  0.00  0.00    +0.173 HD
BRANCH   6   9
ATOM      9  C   UNL     1       1.229  -3.585  -6.444  0.00  0.00    +0.171 C 
BRANCH   9  10
ATOM     10  S   UNL     1       1.774  -4.739  -7.733  0.00  0.00    -0.116 S 
BRANCH  10  11
ATOM     11  C   UNL     1       0.436  -4.761  -8.879  0.00  0.00    +0.008 A 
ATOM     12  C   UNL     1      -0.690  -3.981  -8.649  0.00  0.00    +0.016 A 
ATOM     13  C   UNL     1      -1.738  -4.000  -9.548  0.00  0.00    +0.021 A 
ATOM     14  C   UNL     1      -1.666  -4.796 -10.678  0.00  0.00    +0.041 A 
ATOM     15  C   UNL     1      -0.545  -5.574 -10.910  0.00  0.00    +0.021 A 
ATOM     16  C   UNL     1       0.508  -5.555 -10.017  0.00  0.00    +0.016 A 
ATOM     17 CL   UNL     1      -2.985  -4.819 -11.807  0.00  0.00    -0.084 Cl
ENDBRANCH  10  11
ENDBRANCH   9  10
ENDBRANCH   6   9
ENDBRANCH   3   5
BRANCH   1  20
ATOM     18  C   UNL     1       3.711  -0.707  -0.038  0.00  0.00    +0.032 C 
ATOM     19  C   UNL     1       3.675  -2.224   0.162  0.00  0.00    +0.022 C 
ATOM     20  C   UNL     1       3.983  -1.640  -1.219  0.00  0.00    +0.084 C 
BRANCH  18  24
ATOM     21  C   UNL     1      -0.017   1.378   0.010  0.00  0.00    +0.000 A 
ATOM     22  C   UNL     1       1.171   2.086   0.002  0.00  0.00    +0.000 A 
ATOM     23  C   UNL     1       2.377   1.411  -0.013  0.00  0.00    +0.004 A 
ATOM     24  C   UNL     1       2.396   0.029  -0.020  0.00  0.00    -0.044 A 
ATOM     25  C   UNL     1       1.208  -0.679  -0.012  0.00  0.00    +0.004 A 
ATOM     26  C   UNL     1       0.002  -0.004   0.002  0.00  0.00    +0.000 A 
ENDBRANCH  18  24
ENDBRANCH   1  20
TORSDOF 6
