REMARK  Name = ZINC35500464
REMARK  6 active torsions:
REMARK  status: ('A' for Active; 'I' for Inactive)
REMARK    1  A    between atoms: C_1  and  C_2
REMARK    2  A    between atoms: C_4  and  C_21
REMARK    3  A    between atoms: C_6  and  C_12
REMARK    4  A    between atoms: N_9  and  C_11
REMARK    5  A    between atoms: N_23  and  N_24
REMARK    6  A    between atoms: N_24  and  C_25
REMARK                            x       y       z     vdW  Elec       q    Type
REMARK                         _______ _______ _______ _____ _____    ______ ____
ROOT
ATOM      1  C   UNL     1      -0.198   1.498   0.022  0.00  0.00    +0.068 C 
ATOM      2  C   UNL     1      -0.147  -0.008   0.012  0.00  0.00    +0.070 A 
ATOM      3  C   UNL     1      -0.162  -0.824  -1.139  0.00  0.00    +0.054 A 
ATOM      4  C   UNL     1      -0.223  -0.557  -2.526  0.00  0.00    +0.053 A 
ATOM      5  C   UNL     1      -0.218  -1.639  -3.399  0.00  0.00    +0.042 A 
ATOM      6  C   UNL     1      -0.155  -2.936  -2.879  0.00  0.00    +0.076 A 
ATOM      7  N   UNL     1      -0.100  -3.155  -1.576  0.00  0.00    -0.227 NA
ATOM      8  C   UNL     1      -0.100  -2.162  -0.699  0.00  0.00    +0.160 A 
ATOM      9  N   UNL     1      -0.051  -2.116   0.670  0.00  0.00    -0.249 N 
ATOM     10  N   UNL     1      -0.076  -0.773   1.063  0.00  0.00    -0.174 NA
ATOM     11  C   UNL     1       0.021  -3.273   1.567  0.00  0.00    +0.174 C 
ENDROOT
BRANCH   6  12
ATOM     12  C   UNL     1      -0.150  -4.091  -3.809  0.00  0.00    +0.022 A 
ATOM     13  C   UNL     1      -0.203  -3.880  -5.186  0.00  0.00    +0.051 A 
ATOM     14  C   UNL     1      -0.198  -4.959  -6.048  0.00  0.00    +0.142 A 
ATOM     15  C   UNL     1      -0.142  -6.251  -5.545  0.00  0.00    +0.077 A 
ATOM     16  C   UNL     1      -0.090  -6.465  -4.179  0.00  0.00    +0.043 A 
ATOM     17  C   UNL     1      -0.087  -5.392  -3.309  0.00  0.00    +0.052 A 
ATOM     18 CL   UNL     1      -0.014  -5.662  -1.596  0.00  0.00    -0.083 Cl
ATOM     19 CL   UNL     1      -0.137  -7.603  -6.634  0.00  0.00    -0.081 Cl
ATOM     20  F   UNL     1      -0.249  -4.757  -7.383  0.00  0.00    -0.204 F 
ENDBRANCH   6  12
BRANCH   4  21
ATOM     21  C   UNL     1      -0.290   0.830  -3.034  0.00  0.00    +0.261 C 
ATOM     22  O   UNL     1       0.354   1.707  -2.491  0.00  0.00    -0.269 OA
ATOM     23  N   UNL     1      -1.064   1.123  -4.097  0.00  0.00    -0.231 N 
ATOM     24  H   UNL     1      -1.578   0.423  -4.529  0.00  0.00    +0.173 HD
BRANCH  23  25
ATOM     25  N   UNL     1      -1.127   2.437  -4.577  0.00  0.00    -0.252 N 
ATOM     26  H   UNL     1      -0.614   3.137  -4.145  0.00  0.00    +0.171 HD
BRANCH  25  27
ATOM     27  C   UNL     1      -1.926   2.739  -5.674  0.00  0.00    +0.096 C 
ATOM     28  C   UNL     1      -2.630   1.780  -6.257  0.00  0.00    +0.013 C 
ATOM     29  C   UNL     1      -3.450   2.110  -7.492  0.00  0.00    +0.030 C 
ATOM     30  C   UNL     1      -4.618   3.009  -7.102  0.00  0.00    +0.006 C 
ATOM     31  C   UNL     1      -4.199   4.475  -7.082  0.00  0.00    +0.019 C 
ATOM     32  C   UNL     1      -3.231   4.796  -5.965  0.00  0.00    +0.103 C 
ATOM     33  N   UNL     1      -1.984   4.043  -6.145  0.00  0.00    -0.332 N 
ATOM     34  H   UNL     1      -1.220   4.449  -6.582  0.00  0.00    +0.147 HD
ENDBRANCH  25  27
ENDBRANCH  23  25
ENDBRANCH   4  21
TORSDOF 4
