REMARK  Name = ZINC11024088
REMARK  8 active torsions:
REMARK  status: ('A' for Active; 'I' for Inactive)
REMARK    1  A    between atoms: C_1  and  C_2
REMARK    2  A    between atoms: C_2  and  O_3
REMARK    3  A    between atoms: O_3  and  C_4
REMARK    4  A    between atoms: C_4  and  C_6
REMARK    5  A    between atoms: C_8  and  C_20
REMARK    6  A    between atoms: C_14  and  C_15
REMARK    7  A    between atoms: C_14  and  O_19
REMARK    8  A    between atoms: C_23  and  C_25
REMARK                            x       y       z     vdW  Elec       q    Type
REMARK                         _______ _______ _______ _____ _____    ______ ____
ROOT
ATOM      1  C   UNL     1      -1.769   2.348  -1.343  0.00  0.00    +0.184 C 
ATOM      2  C   UNL     1      -0.893   2.398  -0.086  0.00  0.00    +0.156 C 
ATOM      3  N   UNL     1      -1.676   1.945   1.065  0.00  0.00    -0.316 N 
ATOM      4  C   UNL     1      -2.678   1.064   0.924  0.00  0.00    +0.133 C 
ATOM      5  S   UNL     1      -3.540   0.570   2.318  0.00  0.00    -0.019 S 
ATOM      6  N   UNL     1      -3.030   0.554  -0.265  0.00  0.00    -0.291 N 
ATOM      7  C   UNL     1      -2.324   0.926  -1.492  0.00  0.00    +0.245 C 
ATOM      8  H   UNL     1      -1.467   2.290   1.947  0.00  0.00    +0.148 HD
ATOM      9  H   UNL     1      -3.768  -0.074  -0.314  0.00  0.00    +0.151 HD
ENDROOT
BRANCH   2  10
ATOM     10  C   UNL     1       0.301   1.497  -0.268  0.00  0.00    +0.126 A 
ATOM     11  C   UNL     1       1.540   1.893  -0.612  0.00  0.00    +0.047 A 
ATOM     12  C   UNL     1       2.339   0.728  -0.675  0.00  0.00    +0.045 A 
ATOM     13  C   UNL     1       1.541  -0.310  -0.366  0.00  0.00    +0.102 A 
ATOM     14  O   UNL     1       0.308   0.162  -0.120  0.00  0.00    -0.463 OA
ATOM     15  C   UNL     1       1.960  -1.756  -0.306  0.00  0.00    +0.086 C 
ENDBRANCH   2  10
BRANCH   7  16
ATOM     16  C   UNL     1      -3.295   0.879  -2.675  0.00  0.00    +0.436 C 
ATOM     17  F   UNL     1      -4.411   1.674  -2.393  0.00  0.00    -0.166 F 
ATOM     18  F   UNL     1      -2.655   1.362  -3.822  0.00  0.00    -0.166 F 
ATOM     19  F   UNL     1      -3.704  -0.441  -2.890  0.00  0.00    -0.166 F 
ENDBRANCH   7  16
BRANCH   1  20
ATOM     20  C   UNL     1      -2.909   3.324  -1.204  0.00  0.00    +0.317 C 
ATOM     21  O   UNL     1      -3.443   3.481  -0.132  0.00  0.00    -0.250 OA
BRANCH  20  22
ATOM     22  O   UNL     1      -3.330   4.019  -2.272  0.00  0.00    -0.465 OA
BRANCH  22  24
ATOM     23  C   UNL     1      -4.770   5.637  -3.386  0.00  0.00    +0.048 C 
ATOM     24  C   UNL     1      -4.432   4.941  -2.065  0.00  0.00    +0.229 C 
ENDBRANCH  22  24
ENDBRANCH  20  22
ENDBRANCH   1  20
BRANCH   7  25
ATOM     25  O   UNL     1      -1.248   0.014  -1.720  0.00  0.00    -0.364 OA
ATOM     26  H   UNL     1      -1.527  -0.906  -1.820  0.00  0.00    +0.212 HD
ENDBRANCH   7  25
TORSDOF 6
