REMARK  Name = ZINC60816754
REMARK  5 active torsions:
REMARK  status: ('A' for Active; 'I' for Inactive)
REMARK    1  A    between atoms: N_9  and  C_10
REMARK    2  A    between atoms: C_10  and  C_11
REMARK    3  A    between atoms: N_19  and  C_20
REMARK    4  A    between atoms: C_20  and  C_21
REMARK    5  A    between atoms: C_21  and  O_22
REMARK                            x       y       z     vdW  Elec       q    Type
REMARK                         _______ _______ _______ _____ _____    ______ ____
ROOT
ATOM      1  C   UNL     1      -0.088   0.690   0.089  0.00  0.00    +0.002 A 
ATOM      2  C   UNL     1       1.029   1.510   0.144  0.00  0.00    +0.002 A 
ATOM      3  C   UNL     1       2.297   0.968   0.089  0.00  0.00    +0.028 A 
ATOM      4  C   UNL     1       2.456  -0.405  -0.021  0.00  0.00    +0.070 A 
ATOM      5  C   UNL     1       1.328  -1.240  -0.076  0.00  0.00    +0.091 A 
ATOM      6  C   UNL     1       0.051  -0.675  -0.020  0.00  0.00    +0.030 A 
ATOM      7  N   UNL     1       1.780  -2.517  -0.182  0.00  0.00    -0.214 NA
ATOM      8  C   UNL     1       3.090  -2.520  -0.194  0.00  0.00    +0.197 A 
ATOM      9  N   UNL     1       3.558  -1.241  -0.097  0.00  0.00    -0.307 N 
ATOM     10  N   UNL     1       3.878  -3.647  -0.290  0.00  0.00    -0.313 N 
ATOM     11  H   UNL     1       4.842  -3.560  -0.361  0.00  0.00    +0.149 HD
ENDROOT
BRANCH   9  12
ATOM     12  C   UNL     1       4.964  -0.830  -0.078  0.00  0.00    +0.161 C 
BRANCH  12  13
ATOM     13  C   UNL     1       5.473  -0.718  -1.492  0.00  0.00    -0.011 A 
ATOM     14  C   UNL     1       5.823  -1.857  -2.192  0.00  0.00    +0.044 A 
ATOM     15  C   UNL     1       6.292  -1.754  -3.491  0.00  0.00    +0.124 A 
ATOM     16  C   UNL     1       6.409  -0.510  -4.088  0.00  0.00    +0.039 A 
ATOM     17  C   UNL     1       6.059   0.628  -3.387  0.00  0.00    +0.018 A 
ATOM     18  C   UNL     1       5.586   0.524  -2.091  0.00  0.00    +0.023 A 
ATOM     19 BR   UNL     1       5.099   2.081  -1.135  0.00  0.00    -0.050 Br
ATOM     20  F   UNL     1       6.634  -2.867  -4.176  0.00  0.00    -0.205 F 
ENDBRANCH  12  13
ENDBRANCH   9  12
BRANCH  10  21
ATOM     21  C   UNL     1       3.261  -4.976  -0.286  0.00  0.00    +0.132 C 
BRANCH  21  22
ATOM     22  C   UNL     1       4.350  -6.044  -0.404  0.00  0.00    +0.174 C 
BRANCH  22  23
ATOM     23  O   UNL     1       5.179  -6.009   0.759  0.00  0.00    -0.393 OA
ATOM     24  H   UNL     1       5.893  -6.662   0.753  0.00  0.00    +0.209 HD
ENDBRANCH  22  23
ENDBRANCH  21  22
ENDBRANCH  10  21
TORSDOF 5
