REMARK  Name = ZINC38565042
REMARK  4 active torsions:
REMARK  status: ('A' for Active; 'I' for Inactive)
REMARK    1  A    between atoms: C_4  and  C_7
REMARK    2  A    between atoms: C_7  and  N_8
REMARK    3  A    between atoms: C_9  and  C_11
REMARK    4  A    between atoms: C_23  and  C_25
REMARK                            x       y       z     vdW  Elec       q    Type
REMARK                         _______ _______ _______ _____ _____    ______ ____
ROOT
ATOM      1  C   UNL     1       5.916  -1.738   3.009  0.00  0.00    +0.126 C 
ATOM      2  C   UNL     1       7.017  -2.563   3.249  0.00  0.00    +0.039 C 
ATOM      3  C   UNL     1       7.127  -3.073   4.534  0.00  0.00    -0.008 C 
ATOM      4  C   UNL     1       8.149  -3.618   5.266  0.00  0.00    +0.004 A 
ATOM      5  C   UNL     1       9.423  -4.106   4.895  0.00  0.00    +0.010 A 
ATOM      6  C   UNL     1      10.232  -4.545   5.902  0.00  0.00    +0.001 A 
ATOM      7  C   UNL     1       9.861  -4.530   7.247  0.00  0.00    +0.002 A 
ATOM      8  C   UNL     1       8.646  -4.099   7.685  0.00  0.00    +0.026 A 
ATOM      9  C   UNL     1       7.731  -3.643   6.696  0.00  0.00    +0.044 A 
ATOM     10  N   UNL     1       6.491  -3.235   6.822  0.00  0.00    -0.372 N 
ATOM     11  C   UNL     1       5.950  -3.035   5.497  0.00  0.00    +0.160 C 
ATOM     12  C   UNL     1       5.143  -1.816   5.225  0.00  0.00    +0.076 C 
ATOM     13  N   UNL     1       5.136  -1.308   4.011  0.00  0.00    -0.244 NA
ATOM     14  H   UNL     1       6.020  -3.093   7.658  0.00  0.00    +0.161 HD
ENDROOT
BRANCH  12  15
ATOM     15  C   UNL     1       4.369  -1.183   6.298  0.00  0.00    +0.002 A 
ATOM     16  C   UNL     1       4.063   0.183   6.232  0.00  0.00    +0.013 A 
ATOM     17  C   UNL     1       3.336   0.773   7.241  0.00  0.00    +0.050 A 
ATOM     18  C   UNL     1       2.902   0.020   8.326  0.00  0.00    +0.166 A 
ATOM     19  C   UNL     1       3.204  -1.343   8.398  0.00  0.00    +0.167 A 
ATOM     20  C   UNL     1       3.928  -1.944   7.389  0.00  0.00    +0.059 A 
ATOM     21  O   UNL     1       2.669  -1.845   9.549  0.00  0.00    -0.453 OA
ATOM     22  C   UNL     1       2.393  -0.700  10.377  0.00  0.00    +0.466 C 
ATOM     23  O   UNL     1       2.181   0.364   9.430  0.00  0.00    -0.453 OA
ENDBRANCH  12  15
BRANCH   1  25
ATOM     24  N   UNL     1       4.551  -0.527   1.375  0.00  0.00    -0.306 N 
ATOM     25  C   UNL     1       5.607  -1.327   1.621  0.00  0.00    +0.263 C 
ATOM     26  O   UNL     1       6.306  -1.710   0.704  0.00  0.00    -0.269 OA
ATOM     27  H   UNL     1       3.993  -0.221   2.107  0.00  0.00    +0.149 HD
BRANCH  24  28
ATOM     28  C   UNL     1       4.245  -0.119   0.001  0.00  0.00    +0.140 C 
BRANCH  28  32
ATOM     29  C   UNL     1       0.789   2.391  -0.006  0.00  0.00    +0.000 A 
ATOM     30  C   UNL     1       2.047   2.948   0.126  0.00  0.00    +0.000 A 
ATOM     31  C   UNL     1       3.166   2.135   0.129  0.00  0.00    +0.005 A 
ATOM     32  C   UNL     1       3.026   0.766  -0.001  0.00  0.00    -0.030 A 
ATOM     33  C   UNL     1       1.767   0.210  -0.132  0.00  0.00    +0.005 A 
ATOM     34  C   UNL     1       0.649   1.022  -0.136  0.00  0.00    +0.000 A 
ENDBRANCH  28  32
ENDBRANCH  24  28
ENDBRANCH   1  25
TORSDOF 4
