REMARK  Name = ZINC58160483
REMARK  5 active torsions:
REMARK  status: ('A' for Active; 'I' for Inactive)
REMARK    1  A    between atoms: N_9  and  C_30
REMARK    2  A    between atoms: C_10  and  C_12
REMARK    3  A    between atoms: C_12  and  N_13
REMARK    4  A    between atoms: C_17  and  C_19
REMARK    5  A    between atoms: C_30  and  C_31
REMARK                            x       y       z     vdW  Elec       q    Type
REMARK                         _______ _______ _______ _____ _____    ______ ____
ROOT
ATOM      1  C   UNL     1       0.330   1.272  -2.475  0.00  0.00    +0.001 A 
ATOM      2  C   UNL     1       1.488   2.001  -2.235  0.00  0.00    +0.002 A 
ATOM      3  C   UNL     1       2.633   1.379  -1.792  0.00  0.00    +0.028 A 
ATOM      4  C   UNL     1       2.633  -0.001  -1.580  0.00  0.00    +0.078 A 
ATOM      5  C   UNL     1       1.454  -0.739  -1.825  0.00  0.00    +0.065 A 
ATOM      6  C   UNL     1       0.305  -0.090  -2.273  0.00  0.00    +0.015 A 
ATOM      7  C   UNL     1       1.487  -2.191  -1.593  0.00  0.00    +0.262 A 
ATOM      8  O   UNL     1       0.505  -2.884  -1.784  0.00  0.00    -0.267 OA
ATOM      9  N   UNL     1       2.652  -2.725  -1.158  0.00  0.00    -0.286 N 
ATOM     10  C   UNL     1       3.739  -1.938  -0.948  0.00  0.00    +0.128 A 
ATOM     11  N   UNL     1       3.740  -0.655  -1.145  0.00  0.00    -0.232 NA
ENDROOT
BRANCH  10  12
ATOM     12  C   UNL     1       5.009  -2.588  -0.463  0.00  0.00    +0.159 C 
BRANCH  12  13
ATOM     13  N   UNL     1       6.052  -1.565  -0.303  0.00  0.00    -0.288 NA
ATOM     14  C   UNL     1       5.816  -0.753   0.910  0.00  0.00    +0.085 C 
ATOM     15  C   UNL     1       7.232  -0.402   1.432  0.00  0.00    +0.017 C 
ATOM     16  C   UNL     1       8.011  -1.708   1.127  0.00  0.00    +0.025 C 
ATOM     17  C   UNL     1       7.387  -2.183  -0.202  0.00  0.00    +0.087 C 
BRANCH  17  18
ATOM     18  C   UNL     1       7.258  -3.684  -0.201  0.00  0.00    -0.027 A 
ATOM     19  C   UNL     1       6.609  -4.319   0.842  0.00  0.00    +0.009 A 
ATOM     20  C   UNL     1       6.487  -5.697   0.850  0.00  0.00    +0.050 A 
ATOM     21  C   UNL     1       7.017  -6.439  -0.192  0.00  0.00    +0.162 A 
ATOM     22  C   UNL     1       7.668  -5.802  -1.238  0.00  0.00    +0.162 A 
ATOM     23  C   UNL     1       7.784  -4.423  -1.246  0.00  0.00    +0.054 A 
ATOM     24  O   UNL     1       8.185  -6.543  -2.261  0.00  0.00    -0.488 OA
ATOM     25  C   UNL     1       9.303  -7.370  -1.930  0.00  0.00    +0.232 C 
ATOM     26  C   UNL     1       8.840  -8.697  -1.352  0.00  0.00    +0.082 C 
ATOM     27  C   UNL     1       8.118  -8.530  -0.024  0.00  0.00    +0.232 C 
ATOM     28  O   UNL     1       6.902  -7.799  -0.197  0.00  0.00    -0.488 OA
ENDBRANCH  17  18
ENDBRANCH  12  13
ENDBRANCH  10  12
BRANCH   9  29
ATOM     29  C   UNL     1       2.741  -4.167  -0.910  0.00  0.00    +0.222 C 
BRANCH  29  30
ATOM     30  C   UNL     1       3.179  -4.867  -2.171  0.00  0.00    +0.230 C 
ATOM     31  O   UNL     1       3.396  -4.225  -3.177  0.00  0.00    -0.274 OA
ATOM     32  N   UNL     1       3.331  -6.206  -2.180  0.00  0.00    -0.328 N 
ATOM     33  H   UNL     1       3.157  -6.719  -1.375  0.00  0.00    +0.145 HD
ATOM     34  H   UNL     1       3.613  -6.656  -2.991  0.00  0.00    +0.145 HD
ENDBRANCH  29  30
ENDBRANCH   9  29
TORSDOF 5
