REMARK  Name = ZINC04736620
REMARK  5 active torsions:
REMARK  status: ('A' for Active; 'I' for Inactive)
REMARK    1  A    between atoms: C_1  and  C_2
REMARK    2  A    between atoms: C_7  and  C_24
REMARK    3  A    between atoms: C_13  and  C_18
REMARK    4  A    between atoms: C_27  and  O_30
REMARK    5  A    between atoms: O_30  and  C_31
REMARK                            x       y       z     vdW  Elec       q    Type
REMARK                         _______ _______ _______ _____ _____    ______ ____
ROOT
ATOM      1  C   UNL     1      -0.018   1.503   0.010  0.00  0.00    +0.090 C 
ATOM      2  C   UNL     1       0.002  -0.004   0.002  0.00  0.00    +0.150 A 
ATOM      3  N   UNL     1       0.008  -0.773  -1.092  0.00  0.00    -0.198 NA
ATOM      4  C   UNL     1       0.025  -2.029  -0.742  0.00  0.00    +0.219 A 
ATOM      5  N   UNL     1       0.036  -2.087   0.613  0.00  0.00    -0.221 N 
ATOM      6  N   UNL     1       0.023  -0.769   1.066  0.00  0.00    -0.153 NA
ATOM      7  C   UNL     1       0.068  -3.337   1.362  0.00  0.00    +0.175 C 
ATOM      8  C   UNL     1      -0.256  -4.497   0.447  0.00  0.00    +0.041 C 
ATOM      9  C   UNL     1      -0.261  -4.372  -0.897  0.00  0.00    +0.020 C 
ATOM     10  N   UNL     1       0.029  -3.179  -1.515  0.00  0.00    -0.287 N 
ATOM     11  C   UNL     1      -0.596  -5.548  -1.785  0.00  0.00    +0.060 C 
ATOM     12  C   UNL     1      -0.154  -6.847  -1.108  0.00  0.00    +0.032 C 
ATOM     13  C   UNL     1      -0.868  -6.953   0.244  0.00  0.00    +0.088 C 
ATOM     14  C   UNL     1      -0.554  -5.729   1.058  0.00  0.00    +0.164 C 
ATOM     15  O   UNL     1      -0.559  -5.805   2.271  0.00  0.00    -0.292 OA
ATOM     16  H   UNL     1       0.230  -3.143  -2.463  0.00  0.00    +0.155 HD
ENDROOT
BRANCH  12  17
ATOM     17  C   UNL     1      -0.527  -8.023  -1.974  0.00  0.00    -0.044 A 
ATOM     18  C   UNL     1      -1.851  -8.248  -2.301  0.00  0.00    +0.004 A 
ATOM     19  C   UNL     1      -2.193  -9.326  -3.095  0.00  0.00    +0.000 A 
ATOM     20  C   UNL     1      -1.211 -10.180  -3.562  0.00  0.00    +0.000 A 
ATOM     21  C   UNL     1       0.113  -9.954  -3.236  0.00  0.00    +0.000 A 
ATOM     22  C   UNL     1       0.456  -8.873  -2.446  0.00  0.00    +0.004 A 
ENDBRANCH  12  17
BRANCH   7  23
ATOM     23  C   UNL     1       1.442  -3.534   1.948  0.00  0.00    -0.018 A 
ATOM     24  C   UNL     1       2.544  -3.607   1.116  0.00  0.00    +0.009 A 
ATOM     25  C   UNL     1       3.804  -3.788   1.651  0.00  0.00    +0.046 A 
ATOM     26  C   UNL     1       3.965  -3.896   3.025  0.00  0.00    +0.120 A 
ATOM     27  C   UNL     1       2.858  -3.821   3.858  0.00  0.00    +0.046 A 
ATOM     28  C   UNL     1       1.600  -3.634   3.318  0.00  0.00    +0.009 A 
BRANCH  26  29
ATOM     29  O   UNL     1       5.204  -4.074   3.554  0.00  0.00    -0.495 OA
ATOM     30  C   UNL     1       5.294  -4.176   4.976  0.00  0.00    +0.277 C 
ENDBRANCH  26  29
ENDBRANCH   7  23
TORSDOF 3
