REMARK  Name = ZINC39290030
REMARK  6 active torsions:
REMARK  status: ('A' for Active; 'I' for Inactive)
REMARK    1  A    between atoms: C_1  and  N_2
REMARK    2  A    between atoms: C_3  and  C_22
REMARK    3  A    between atoms: C_7  and  S_8
REMARK    4  A    between atoms: S_8  and  C_9
REMARK    5  A    between atoms: C_9  and  C_10
REMARK    6  A    between atoms: N_15  and  C_16
REMARK                            x       y       z     vdW  Elec       q    Type
REMARK                         _______ _______ _______ _____ _____    ______ ____
ROOT
ATOM      1  S   UNL     1       2.685   0.115  -0.368  0.00  0.00    -0.081 S 
ENDROOT
BRANCH   1   7
ATOM      2  C   UNL     1      -0.236   1.546  -0.123  0.00  0.00    +0.133 C 
ATOM      3  N   UNL     1      -0.085   0.090  -0.061  0.00  0.00    -0.288 N 
ATOM      4  C   UNL     1      -1.161  -0.901   0.105  0.00  0.00    +0.208 C 
ATOM      5  N   UNL     1      -0.456  -2.194   0.101  0.00  0.00    -0.242 N 
ATOM      6  N   UNL     1       0.903  -1.896  -0.057  0.00  0.00    -0.162 NA
ATOM      7  C   UNL     1       1.100  -0.625  -0.152  0.00  0.00    +0.175 C 
ATOM      8  H   UNL     1      -0.853  -3.075   0.190  0.00  0.00    +0.170 HD
BRANCH   4   9
ATOM      9  C   UNL     1      -1.877  -0.690   1.415  0.00  0.00    -0.008 A 
ATOM     10  C   UNL     1      -3.228  -0.397   1.424  0.00  0.00    +0.007 A 
ATOM     11  C   UNL     1      -3.885  -0.203   2.625  0.00  0.00    +0.000 A 
ATOM     12  C   UNL     1      -3.190  -0.303   3.817  0.00  0.00    +0.000 A 
ATOM     13  C   UNL     1      -1.840  -0.597   3.807  0.00  0.00    +0.000 A 
ATOM     14  C   UNL     1      -1.184  -0.794   2.606  0.00  0.00    +0.007 A 
ENDBRANCH   4   9
ENDBRANCH   1   7
BRANCH   1  15
ATOM     15  C   UNL     1       3.825  -1.296  -0.416  0.00  0.00    +0.153 C 
BRANCH  15  16
ATOM     16  C   UNL     1       5.235  -0.797  -0.599  0.00  0.00    +0.149 A 
ATOM     17  N   UNL     1       5.840  -0.593  -1.735  0.00  0.00    -0.132 NA
ATOM     18  N   UNL     1       7.035  -0.165  -1.529  0.00  0.00    -0.121 NA
ATOM     19  C   UNL     1       7.260  -0.072  -0.238  0.00  0.00    +0.207 A 
ATOM     20  S   UNL     1       8.752   0.467   0.528  0.00  0.00    -0.009 SA
ATOM     21  N   UNL     1       6.115  -0.468   0.397  0.00  0.00    -0.273 N 
BRANCH  21  22
ATOM     22  C   UNL     1       5.891  -0.526   1.780  0.00  0.00    +0.050 A 
ATOM     23  C   UNL     1       4.938   0.297   2.366  0.00  0.00    +0.026 A 
ATOM     24  C   UNL     1       4.719   0.237   3.728  0.00  0.00    +0.002 A 
ATOM     25  C   UNL     1       5.447  -0.642   4.509  0.00  0.00    +0.000 A 
ATOM     26  C   UNL     1       6.396  -1.463   3.929  0.00  0.00    +0.002 A 
ATOM     27  C   UNL     1       6.616  -1.411   2.566  0.00  0.00    +0.026 A 
ENDBRANCH  21  22
ENDBRANCH  15  16
ENDBRANCH   1  15
TORSDOF 5
