REMARK  Name = ZINC40104874
REMARK  13 active torsions:
REMARK  status: ('A' for Active; 'I' for Inactive)
REMARK    1  A    between atoms: C_1  and  C_2
REMARK    2  A    between atoms: C_4  and  C_33
REMARK    3  A    between atoms: N_5  and  C_7
REMARK    4  A    between atoms: C_12  and  N_13
REMARK    5  A    between atoms: N_16  and  C_17
REMARK    6  A    between atoms: C_17  and  C_18
REMARK    7  A    between atoms: C_18  and  C_20
REMARK    8  A    between atoms: C_18  and  C_24
REMARK    9  A    between atoms: C_20  and  N_21
REMARK   10  A    between atoms: N_21  and  C_22
REMARK   11  A    between atoms: N_21  and  C_23
REMARK   12  A    between atoms: C_24  and  C_26
REMARK   13  A    between atoms: C_24  and  O_32
REMARK                            x       y       z     vdW  Elec       q    Type
REMARK                         _______ _______ _______ _____ _____    ______ ____
ROOT
ATOM      1  N   UNL     1       0.341  -1.114   2.723  0.00  0.00    -0.268 N 
ATOM      2  C   UNL     1       0.419  -1.157   4.068  0.00  0.00    +0.304 C 
ATOM      3  O   UNL     1       0.710  -2.196   4.628  0.00  0.00    -0.253 OA
ATOM      4  N   UNL     1       0.176  -0.047   4.792  0.00  0.00    -0.299 N 
ATOM      5  H   UNL     1       0.047  -0.304   2.280  0.00  0.00    +0.156 HD
ATOM      6  H   UNL     1      -0.055   0.783   4.346  0.00  0.00    +0.150 HD
ENDROOT
BRANCH   1  12
ATOM      7  C   UNL     1       1.265  -2.087   0.708  0.00  0.00    +0.087 A 
ATOM      8  C   UNL     1       1.609  -3.207  -0.035  0.00  0.00    +0.029 A 
ATOM      9  C   UNL     1       1.371  -4.471   0.471  0.00  0.00    +0.002 A 
ATOM     10  C   UNL     1       0.791  -4.624   1.717  0.00  0.00    +0.002 A 
ATOM     11  C   UNL     1       0.445  -3.514   2.464  0.00  0.00    +0.025 A 
ATOM     12  C   UNL     1       0.685  -2.241   1.966  0.00  0.00    +0.060 A 
BRANCH   7  17
ATOM     13  C   UNL     1       2.755   2.635   0.404  0.00  0.00    +0.067 C 
ATOM     14  C   UNL     1       2.170   1.286   0.075  0.00  0.00    +0.061 A 
ATOM     15  C   UNL     1       1.580   0.923  -1.141  0.00  0.00    +0.047 A 
ATOM     16  C   UNL     1       1.180  -0.366  -1.041  0.00  0.00    +0.042 A 
ATOM     17  N   UNL     1       1.506  -0.803   0.196  0.00  0.00    -0.235 N 
ATOM     18  N   UNL     1       2.130   0.251   0.875  0.00  0.00    -0.171 NA
ATOM     19  C   UNL     1       0.494  -1.170  -2.116  0.00  0.00    +0.066 C 
ENDBRANCH   7  17
ENDBRANCH   1  12
BRANCH   4  20
ATOM     20  C   UNL     1       0.261  -0.093   6.254  0.00  0.00    +0.110 C 
BRANCH  20  21
ATOM     21  C   UNL     1      -0.058   1.290   6.827  0.00  0.00    +0.023 C 
BRANCH  21  22
ATOM     22  C   UNL     1      -1.514   1.646   6.518  0.00  0.00    -0.072 C 
BRANCH  22  23
ATOM     23  N   UNL     1      -1.708   3.093   6.681  0.00  0.00    +0.376 N 
ATOM     24  C   UNL     1      -0.914   3.811   5.675  0.00  0.00    -0.097 C 
ATOM     25  C   UNL     1      -3.130   3.418   6.505  0.00  0.00    -0.097 C 
ATOM     26  H   UNL     1      -1.412   3.370   7.604  0.00  0.00    -0.083 HD
ENDBRANCH  22  23
ENDBRANCH  21  22
BRANCH  21  27
ATOM     27  C   UNL     1       0.151   1.274   8.343  0.00  0.00    +0.147 C 
BRANCH  27  28
ATOM     28  C   UNL     1       0.003   2.672   8.885  0.00  0.00    -0.019 A 
ATOM     29  C   UNL     1       1.003   3.604   8.677  0.00  0.00    +0.006 A 
ATOM     30  C   UNL     1       0.866   4.887   9.174  0.00  0.00    +0.000 A 
ATOM     31  C   UNL     1      -0.270   5.238   9.879  0.00  0.00    +0.000 A 
ATOM     32  C   UNL     1      -1.270   4.306  10.086  0.00  0.00    +0.000 A 
ATOM     33  C   UNL     1      -1.136   3.025   9.585  0.00  0.00    +0.006 A 
ENDBRANCH  27  28
BRANCH  27  34
ATOM     34  O   UNL     1       1.462   0.786   8.637  0.00  0.00    -0.387 OA
ATOM     35  H   UNL     1       2.174   1.317   8.256  0.00  0.00    +0.210 HD
ENDBRANCH  27  34
ENDBRANCH  21  27
ENDBRANCH  20  21
ENDBRANCH   4  20
TORSDOF 9
