REMARK  Name = ZINC63513892
REMARK  11 active torsions:
REMARK  status: ('A' for Active; 'I' for Inactive)
REMARK    1  A    between atoms: C_1  and  C_2
REMARK    2  A    between atoms: C_4  and  C_12
REMARK    3  A    between atoms: C_12  and  C_13
REMARK    4  A    between atoms: C_13  and  N_14
REMARK    5  A    between atoms: C_15  and  C_17
REMARK    6  A    between atoms: C_17  and  N_27
REMARK    7  A    between atoms: C_18  and  C_19
REMARK    8  A    between atoms: C_22  and  O_25
REMARK    9  A    between atoms: O_25  and  C_26
REMARK   10  A    between atoms: C_28  and  C_30
REMARK   11  A    between atoms: C_34  and  N_36
REMARK                            x       y       z     vdW  Elec       q    Type
REMARK                         _______ _______ _______ _____ _____    ______ ____
ROOT
ATOM      1  C   UNL     1       1.591  -0.889  -7.487  0.00  0.00    +0.097 C 
ATOM      2  C   UNL     1       2.176  -1.708  -8.392  0.00  0.00    +0.036 C 
ENDROOT
BRANCH   2   3
ATOM      3  C   UNL     1       1.790  -1.634  -9.808  0.00  0.00    -0.023 A 
ATOM      4  C   UNL     1       1.182  -0.478 -10.310  0.00  0.00    +0.011 A 
ATOM      5  C   UNL     1       0.823  -0.413 -11.638  0.00  0.00    +0.046 A 
ATOM      6  C   UNL     1       1.063  -1.494 -12.479  0.00  0.00    +0.120 A 
ATOM      7  C   UNL     1       1.666  -2.644 -11.985  0.00  0.00    +0.046 A 
ATOM      8  C   UNL     1       2.036  -2.716 -10.660  0.00  0.00    +0.011 A 
BRANCH   6   9
ATOM      9  O   UNL     1       0.706  -1.425 -13.787  0.00  0.00    -0.495 OA
ATOM     10  C   UNL     1       0.982  -2.571 -14.596  0.00  0.00    +0.277 C 
ENDBRANCH   6   9
ENDBRANCH   2   3
BRANCH   1  12
ATOM     11  N   UNL     1       1.498  -0.038  -5.202  0.00  0.00    -0.310 N 
ATOM     12  C   UNL     1       2.081  -0.854  -6.103  0.00  0.00    +0.258 C 
ATOM     13  O   UNL     1       3.013  -1.562  -5.769  0.00  0.00    -0.269 OA
ATOM     14  H   UNL     1       0.755   0.526  -5.468  0.00  0.00    +0.149 HD
BRANCH  11  15
ATOM     15  C   UNL     1       1.987  -0.003  -3.821  0.00  0.00    +0.109 C 
BRANCH  15  16
ATOM     16  C   UNL     1       1.159   0.997  -3.012  0.00  0.00    +0.052 C 
BRANCH  16  19
ATOM     17  C   UNL     1       1.270   3.367  -0.803  0.00  0.00    +0.035 C 
ATOM     18  C   UNL     1       1.129   1.883  -0.460  0.00  0.00    +0.103 C 
ATOM     19  C   UNL     1       1.662   1.033  -1.592  0.00  0.00    -0.037 C 
ATOM     20  C   UNL     1       2.681   0.312  -1.072  0.00  0.00    -0.001 A 
ATOM     21  C   UNL     1       3.591  -0.684  -1.650  0.00  0.00    +0.010 A 
ATOM     22  C   UNL     1       4.533  -1.248  -0.861  0.00  0.00    +0.001 A 
ATOM     23  C   UNL     1       4.662  -0.906   0.492  0.00  0.00    +0.002 A 
ATOM     24  C   UNL     1       3.864  -0.000   1.095  0.00  0.00    +0.026 A 
ATOM     25  C   UNL     1       2.838   0.655   0.360  0.00  0.00    +0.043 A 
ATOM     26  N   UNL     1       1.949   1.555   0.712  0.00  0.00    -0.378 N 
ATOM     27  H   UNL     1       1.850   1.938   1.597  0.00  0.00    +0.160 HD
ENDBRANCH  16  19
ENDBRANCH  15  16
ENDBRANCH  11  15
ENDBRANCH   1  12
BRANCH   1  28
ATOM     28  N   UNL     1       0.519  -0.075  -7.870  0.00  0.00    -0.277 N 
ATOM     29  C   UNL     1       0.602   1.262  -7.724  0.00  0.00    +0.248 C 
ATOM     30  O   UNL     1       1.560   1.754  -7.159  0.00  0.00    -0.270 OA
ATOM     31  H   UNL     1      -0.284  -0.473  -8.241  0.00  0.00    +0.155 HD
BRANCH  29  32
ATOM     32  C   UNL     1      -0.471   2.131  -8.250  0.00  0.00    +0.039 A 
ATOM     33  C   UNL     1      -1.628   1.568  -8.791  0.00  0.00    +0.013 A 
ATOM     34  C   UNL     1      -2.626   2.385  -9.280  0.00  0.00    +0.003 A 
ATOM     35  C   UNL     1      -2.482   3.760  -9.236  0.00  0.00    +0.033 A 
ATOM     36  C   UNL     1      -1.338   4.325  -8.702  0.00  0.00    +0.127 A 
ATOM     37  C   UNL     1      -0.335   3.520  -8.204  0.00  0.00    +0.045 A 
BRANCH  36  38
ATOM     38  N   UNL     1      -1.193   5.798  -8.659  0.00  0.00    +0.056 N 
ATOM     39  O   UNL     1      -2.073   6.505  -9.091  0.00  0.00    -0.126 OA
ATOM     40  O   UNL     1      -0.193   6.293  -8.192  0.00  0.00    -0.126 OA
ENDBRANCH  36  38
ENDBRANCH  29  32
ENDBRANCH   1  28
TORSDOF 9
