REMARK  Name = ZINC20762660
REMARK  9 active torsions:
REMARK  status: ('A' for Active; 'I' for Inactive)
REMARK    1  A    between atoms: C_1  and  O_2
REMARK    2  A    between atoms: O_2  and  C_3
REMARK    3  A    between atoms: C_3  and  C_5
REMARK    4  A    between atoms: C_5  and  C_7
REMARK    5  A    between atoms: C_5  and  N_11
REMARK    6  A    between atoms: C_7  and  C_8
REMARK    7  A    between atoms: C_8  and  S_9
REMARK    8  A    between atoms: S_9  and  C_10
REMARK    9  A    between atoms: C_23  and  C_25
REMARK                            x       y       z     vdW  Elec       q    Type
REMARK                         _______ _______ _______ _____ _____    ______ ____
ROOT
ATOM      1  N   UNL     1      -0.597  -2.322  -3.516  0.00  0.00    -0.286 N 
ATOM      2  C   UNL     1       0.719  -2.615  -3.504  0.00  0.00    +0.304 C 
ATOM      3  O   UNL     1       1.367  -2.459  -2.487  0.00  0.00    -0.253 OA
ATOM      4  N   UNL     1       1.316  -3.080  -4.619  0.00  0.00    -0.273 N 
ATOM      5  C   UNL     1       2.722  -3.509  -4.597  0.00  0.00    +0.116 C 
ATOM      6  C   UNL     1       2.794  -5.012  -4.895  0.00  0.00    +0.074 C 
ATOM      7  C   UNL     1       1.890  -5.319  -6.060  0.00  0.00    +0.040 A 
ATOM      8  C   UNL     1       0.902  -4.512  -6.504  0.00  0.00    +0.062 A 
ATOM      9  N   UNL     1       0.314  -5.108  -7.544  0.00  0.00    -0.348 N 
ATOM     10  C   UNL     1       0.900  -6.256  -7.766  0.00  0.00    +0.171 A 
ATOM     11  N   UNL     1       1.891  -6.422  -6.860  0.00  0.00    -0.349 N 
ATOM     12  H   UNL     1       2.489  -7.183  -6.792  0.00  0.00    +0.166 HD
ATOM     13  C   UNL     1       0.573  -3.177  -5.888  0.00  0.00    +0.156 C 
ATOM     14  H   UNL     1      -1.097  -2.371  -4.346  0.00  0.00    +0.151 HD
ATOM     15  H   UNL     1      -0.429  -4.748  -8.053  0.00  0.00    +0.167 HD
ENDROOT
BRANCH  13  16
ATOM     16  C   UNL     1       0.998  -2.070  -6.817  0.00  0.00    -0.017 A 
ATOM     17  C   UNL     1       2.299  -2.021  -7.283  0.00  0.00    +0.009 A 
ATOM     18  C   UNL     1       2.694  -1.007  -8.136  0.00  0.00    +0.050 A 
ATOM     19  C   UNL     1       1.786  -0.036  -8.526  0.00  0.00    +0.166 A 
ATOM     20  C   UNL     1       0.475  -0.085  -8.057  0.00  0.00    +0.167 A 
ATOM     21  C   UNL     1       0.085  -1.108  -7.207  0.00  0.00    +0.055 A 
ATOM     22  O   UNL     1      -0.215   0.970  -8.579  0.00  0.00    -0.453 OA
ATOM     23  C   UNL     1       0.788   1.893  -9.044  0.00  0.00    +0.466 C 
ATOM     24  O   UNL     1       1.917   1.050  -9.342  0.00  0.00    -0.453 OA
ENDBRANCH  13  16
BRANCH   1  25
ATOM     25  C   UNL     1      -1.272  -1.929  -2.276  0.00  0.00    +0.184 C 
BRANCH  25  26
ATOM     26  C   UNL     1      -1.701  -3.163  -1.525  0.00  0.00    +0.327 C 
ATOM     27  O   UNL     1      -1.467  -4.258  -1.978  0.00  0.00    -0.249 OA
BRANCH  26  29
ATOM     28  C   UNL     1      -2.720  -4.256   0.305  0.00  0.00    +0.280 C 
ATOM     29  O   UNL     1      -2.342  -3.045  -0.352  0.00  0.00    -0.467 OA
ENDBRANCH  26  29
ENDBRANCH  25  26
BRANCH  25  30
ATOM     30  C   UNL     1      -2.501  -1.082  -2.611  0.00  0.00    +0.044 C 
BRANCH  30  31
ATOM     31  C   UNL     1      -2.056   0.229  -3.263  0.00  0.00    +0.071 C 
BRANCH  31  32
ATOM     32  S   UNL     1      -3.514   1.232  -3.660  0.00  0.00    -0.164 S 
ATOM     33  C   UNL     1      -2.823   2.730  -4.415  0.00  0.00    +0.084 C 
ENDBRANCH  31  32
ENDBRANCH  30  31
ENDBRANCH  25  30
ENDBRANCH   1  25
TORSDOF 7
