REMARK  Name = ZINC35316336
REMARK  8 active torsions:
REMARK  status: ('A' for Active; 'I' for Inactive)
REMARK    1  A    between atoms: C_1  and  C_2
REMARK    2  A    between atoms: C_2  and  O_3
REMARK    3  A    between atoms: O_3  and  C_4
REMARK    4  A    between atoms: C_6  and  C_12
REMARK    5  A    between atoms: C_9  and  O_10
REMARK    6  A    between atoms: C_15  and  C_26
REMARK    7  A    between atoms: C_21  and  N_25
REMARK    8  A    between atoms: C_22  and  C_23
REMARK                            x       y       z     vdW  Elec       q    Type
REMARK                         _______ _______ _______ _____ _____    ______ ____
ROOT
ATOM      1  C   UNL     1      -0.275  -4.990  -0.649  0.00  0.00    +0.102 C 
ATOM      2  C   UNL     1      -1.176  -5.956   0.077  0.00  0.00    +0.054 A 
ATOM      3  C   UNL     1      -2.421  -5.729   0.672  0.00  0.00    +0.100 A 
ATOM      4  N   UNL     1      -2.837  -6.868   1.190  0.00  0.00    -0.171 NA
ATOM      5  N   UNL     1      -1.866  -7.850   0.937  0.00  0.00    -0.246 N 
ATOM      6  H   UNL     1      -1.913  -8.781   1.207  0.00  0.00    +0.192 HD
ATOM      7  C   UNL     1      -0.857  -7.271   0.254  0.00  0.00    +0.223 A 
ATOM      8  O   UNL     1       0.295  -7.815  -0.212  0.00  0.00    -0.423 OA
ATOM      9  C   UNL     1       1.011  -7.095  -1.100  0.00  0.00    +0.200 C 
ATOM     10  C   UNL     1       0.797  -5.784  -1.353  0.00  0.00    +0.098 C 
ENDROOT
BRANCH   1  13
ATOM     11  C   UNL     1       0.801  -1.808   1.080  0.00  0.00    +0.163 A 
ATOM     12  C   UNL     1       0.220  -2.679   0.173  0.00  0.00    +0.054 A 
ATOM     13  C   UNL     1       0.358  -4.045   0.339  0.00  0.00    -0.030 A 
ATOM     14  C   UNL     1       1.075  -4.545   1.410  0.00  0.00    +0.023 A 
ATOM     15  C   UNL     1       1.658  -3.681   2.320  0.00  0.00    +0.063 A 
ATOM     16  C   UNL     1       1.528  -2.311   2.155  0.00  0.00    +0.173 A 
ATOM     17 BR   UNL     1       2.637  -4.369   3.784  0.00  0.00    -0.046 Br
BRANCH  16  18
ATOM     18  O   UNL     1       2.105  -1.459   3.045  0.00  0.00    -0.503 OA
ATOM     19  H   UNL     1       1.537  -1.228   3.793  0.00  0.00    +0.292 HD
ENDBRANCH  16  18
BRANCH  11  20
ATOM     20  O   UNL     1       0.665  -0.465   0.918  0.00  0.00    -0.489 OA
BRANCH  20  22
ATOM     21  C   UNL     1      -0.137   1.508  -0.224  0.00  0.00    +0.048 C 
ATOM     22  C   UNL     1      -0.095  -0.021  -0.208  0.00  0.00    +0.226 C 
ENDBRANCH  20  22
ENDBRANCH  11  20
ENDBRANCH   1  13
BRANCH   3  23
ATOM     23  C   UNL     1      -3.145  -4.434   0.713  0.00  0.00    +0.003 A 
ATOM     24  C   UNL     1      -3.782  -4.026   1.883  0.00  0.00    +0.010 A 
ATOM     25  C   UNL     1      -4.454  -2.821   1.916  0.00  0.00    +0.001 A 
ATOM     26  C   UNL     1      -4.496  -2.019   0.790  0.00  0.00    +0.000 A 
ATOM     27  C   UNL     1      -3.866  -2.419  -0.374  0.00  0.00    +0.001 A 
ATOM     28  C   UNL     1      -3.186  -3.619  -0.416  0.00  0.00    +0.010 A 
ENDBRANCH   3  23
BRANCH   9  29
ATOM     29  N   UNL     1       2.014  -7.730  -1.788  0.00  0.00    -0.328 N 
ATOM     30  H   UNL     1       2.192  -8.671  -1.629  0.00  0.00    +0.145 HD
ATOM     31  H   UNL     1       2.546  -7.239  -2.433  0.00  0.00    +0.145 HD
ENDBRANCH   9  29
BRANCH  10  32
ATOM     32  C   UNL     1       1.618  -5.124  -2.323  0.00  0.00    +0.101 C 
ATOM     33  N   UNL     1       2.269  -4.601  -3.093  0.00  0.00    -0.191 NA
ENDBRANCH  10  32
TORSDOF 7
