REMARK  Name = ZINC56806953
REMARK  5 active torsions:
REMARK  status: ('A' for Active; 'I' for Inactive)
REMARK    1  A    between atoms: C_4  and  C_7
REMARK    2  A    between atoms: C_7  and  C_9
REMARK    3  A    between atoms: C_7  and  O_32
REMARK    4  A    between atoms: N_17  and  C_18
REMARK    5  A    between atoms: N_27  and  C_29
REMARK                            x       y       z     vdW  Elec       q    Type
REMARK                         _______ _______ _______ _____ _____    ______ ____
ROOT
ATOM      1  C   UNL     1       3.206  -2.449   2.893  0.00  0.00    +0.025 C 
ATOM      2  C   UNL     1       4.467  -3.309   3.010  0.00  0.00    +0.025 C 
ATOM      3  C   UNL     1       5.701  -2.434   2.772  0.00  0.00    +0.109 C 
ATOM      4  N   UNL     1       5.659  -1.296   3.700  0.00  0.00    -0.286 N 
ATOM      5  C   UNL     1       4.454  -0.456   3.734  0.00  0.00    +0.109 C 
ATOM      6  C   UNL     1       3.234  -1.353   3.961  0.00  0.00    +0.025 C 
ATOM      7  C   UNL     1       6.706  -1.027   4.506  0.00  0.00    +0.302 C 
ATOM      8  O   UNL     1       6.697  -0.031   5.203  0.00  0.00    -0.253 OA
ATOM      9  N   UNL     1       7.763  -1.863   4.539  0.00  0.00    -0.296 N 
ATOM     10  H   UNL     1       7.803  -2.618   3.930  0.00  0.00    +0.151 HD
ENDROOT
BRANCH   9  11
ATOM     11  C   UNL     1       8.847  -1.633   5.491  0.00  0.00    +0.077 C 
ATOM     12  C   UNL     1       9.875  -0.662   4.907  0.00  0.00    -0.007 C 
ATOM     13  C   UNL     1      10.422  -1.205   3.594  0.00  0.00    +0.003 C 
ATOM     14  C   UNL     1      11.005  -2.602   3.726  0.00  0.00    +0.001 C 
ATOM     15  C   UNL     1      10.116  -3.554   4.510  0.00  0.00    +0.003 C 
ATOM     16  C   UNL     1       9.578  -2.942   5.796  0.00  0.00    -0.007 C 
ATOM     17  C   UNL     1      10.691  -2.682   6.803  0.00  0.00    -0.073 C 
ATOM     18  N   UNL     1      11.632  -1.657   6.363  0.00  0.00    +0.382 N 
ATOM     19  C   UNL     1      10.986  -0.424   5.922  0.00  0.00    -0.073 C 
ATOM     20  H   UNL     1      12.228  -2.019   5.636  0.00  0.00    -0.081 HD
BRANCH  18  21
ATOM     21  C   UNL     1      12.510  -1.330   7.494  0.00  0.00    -0.069 C 
ATOM     22  C   UNL     1      14.020  -1.364   7.249  0.00  0.00    -0.017 C 
ATOM     23  C   UNL     1      13.356  -2.462   8.082  0.00  0.00    -0.017 C 
ENDBRANCH  18  21
ENDBRANCH   9  11
BRANCH   1  24
ATOM     24  C   UNL     1       1.970  -3.327   3.095  0.00  0.00    +0.148 C 
BRANCH  24  28
ATOM     25  C   UNL     1       1.890  -6.388   0.116  0.00  0.00    +0.000 A 
ATOM     26  C   UNL     1       2.346  -6.674   1.389  0.00  0.00    +0.000 A 
ATOM     27  C   UNL     1       2.372  -5.684   2.353  0.00  0.00    +0.006 A 
ATOM     28  C   UNL     1       1.942  -4.407   2.044  0.00  0.00    -0.019 A 
ATOM     29  C   UNL     1       1.487  -4.120   0.771  0.00  0.00    +0.006 A 
ATOM     30  C   UNL     1       1.460  -5.111  -0.193  0.00  0.00    +0.000 A 
ENDBRANCH  24  28
BRANCH  24  31
ATOM     31  O   UNL     1       0.792  -2.525   2.985  0.00  0.00    -0.387 OA
ATOM     32  H   UNL     1       0.694  -2.086   2.128  0.00  0.00    +0.210 HD
ENDBRANCH  24  31
ENDBRANCH   1  24
TORSDOF 5
