REMARK  Name = ZINC39454048
REMARK  5 active torsions:
REMARK  status: ('A' for Active; 'I' for Inactive)
REMARK    1  A    between atoms: C_1  and  C_2
REMARK    2  A    between atoms: C_2  and  C_3
REMARK    3  A    between atoms: C_2  and  S_4
REMARK    4  A    between atoms: S_4  and  N_7
REMARK    5  A    between atoms: C_21  and  O_22
REMARK                            x       y       z     vdW  Elec       q    Type
REMARK                         _______ _______ _______ _____ _____    ______ ____
ROOT
ATOM      1  N   UNL     1      -2.410  -0.153  -1.403  0.00  0.00    -0.174 N 
ATOM      2  C   UNL     1      -3.022   1.094  -1.459  0.00  0.00    +0.134 A 
ATOM      3  C   UNL     1      -3.623   1.539  -2.619  0.00  0.00    +0.084 A 
ATOM      4  C   UNL     1      -3.626   0.683  -3.819  0.00  0.00    +0.100 A 
ATOM      5  C   UNL     1      -2.994  -0.586  -3.733  0.00  0.00    +0.069 A 
ATOM      6  C   UNL     1      -2.369  -0.981  -2.461  0.00  0.00    +0.281 A 
ATOM      7  O   UNL     1      -1.818  -2.062  -2.365  0.00  0.00    -0.265 OA
ATOM      8  C   UNL     1      -2.966  -1.430  -4.834  0.00  0.00    +0.029 A 
ATOM      9  C   UNL     1      -3.578  -0.985  -6.014  0.00  0.00    +0.043 A 
ATOM     10  C   UNL     1      -4.213   0.335  -6.030  0.00  0.00    +0.075 A 
ATOM     11  N   UNL     1      -4.201   1.094  -4.934  0.00  0.00    -0.244 NA
ATOM     12  C   UNL     1      -4.826   0.773  -7.217  0.00  0.00    +0.028 A 
ATOM     13  C   UNL     1      -4.817  -0.026  -8.319  0.00  0.00    +0.006 A 
ATOM     14  C   UNL     1      -4.216  -1.280  -8.313  0.00  0.00    +0.046 A 
ATOM     15  C   UNL     1      -3.599  -1.772  -7.184  0.00  0.00    +0.126 A 
ATOM     16  N   UNL     1      -4.213   2.787  -2.656  0.00  0.00    -0.324 N 
ATOM     17  C   UNL     1      -3.715   3.822  -1.737  0.00  0.00    +0.171 C 
ATOM     18  C   UNL     1      -3.729   3.247  -0.316  0.00  0.00    +0.120 C 
ATOM     19  C   UNL     1      -3.024   1.916  -0.308  0.00  0.00    +0.186 C 
ATOM     20  O   UNL     1      -2.450   1.545   0.697  0.00  0.00    -0.290 OA
ATOM     21 CL   UNL     1      -2.031   4.279  -2.191  0.00  0.00    -0.101 Cl
ATOM     22  H   UNL     1      -4.938   2.977  -3.273  0.00  0.00    +0.148 HD
ENDROOT
BRANCH   1  23
ATOM     23  S   UNL     1      -1.700  -0.632   0.015  0.00  0.00    +0.060 S 
ATOM     24  O   UNL     1      -0.827   0.434   0.362  0.00  0.00    -0.153 OA
ATOM     25  O   UNL     1      -1.186  -1.929  -0.257  0.00  0.00    -0.153 OA
BRANCH  23  27
ATOM     26  C   UNL     1      -4.031  -1.842   0.779  0.00  0.00    +0.033 C 
ATOM     27  C   UNL     1      -3.063  -0.737   1.207  0.00  0.00    +0.148 C 
ATOM     28  C   UNL     1      -2.504  -1.058   2.594  0.00  0.00    +0.033 C 
ENDBRANCH  23  27
ENDBRANCH   1  23
BRANCH  15  29
ATOM     29  O   UNL     1      -3.018  -2.998  -7.198  0.00  0.00    -0.506 OA
ATOM     30  H   UNL     1      -3.612  -3.717  -6.943  0.00  0.00    +0.292 HD
ENDBRANCH  15  29
TORSDOF 3
