REMARK  Name = ZINC04820771
REMARK  4 active torsions:
REMARK  status: ('A' for Active; 'I' for Inactive)
REMARK    1  A    between atoms: C_3  and  C_6
REMARK    2  A    between atoms: C_11  and  C_13
REMARK    3  A    between atoms: N_18  and  C_19
REMARK    4  A    between atoms: C_19  and  C_20
REMARK                            x       y       z     vdW  Elec       q    Type
REMARK                         _______ _______ _______ _____ _____    ______ ____
ROOT
ATOM      1  C   UNL     1      -6.315  -0.254   1.365  0.00  0.00    +0.219 A 
ATOM      2  N   UNL     1      -5.202   0.188   0.756  0.00  0.00    -0.190 NA
ATOM      3  C   UNL     1      -4.307   0.523   1.657  0.00  0.00    +0.222 A 
ATOM      4  N   UNL     1      -4.849   0.302   2.889  0.00  0.00    -0.160 N 
ATOM      5  N   UNL     1      -6.143  -0.198   2.668  0.00  0.00    -0.137 NA
ATOM      6  C   UNL     1      -4.260   0.521   4.082  0.00  0.00    +0.317 C 
ATOM      7  O   UNL     1      -3.127   0.960   4.129  0.00  0.00    -0.262 OA
ATOM      8  N   UNL     1      -3.043   1.016   1.402  0.00  0.00    -0.309 N 
ATOM      9  H   UNL     1      -2.453   1.240   2.138  0.00  0.00    +0.149 HD
ENDROOT
BRANCH   1  12
ATOM     10  C   UNL     1      -9.572  -1.512   0.262  0.00  0.00    +0.042 A 
ATOM     11  C   UNL     1      -8.670  -1.169   1.288  0.00  0.00    +0.053 A 
ATOM     12  C   UNL     1      -7.537  -0.724   0.682  0.00  0.00    +0.173 A 
ATOM     13  O   UNL     1      -7.725  -0.781  -0.651  0.00  0.00    -0.460 OA
ATOM     14  C   UNL     1      -8.952  -1.262  -0.908  0.00  0.00    +0.196 A 
ENDBRANCH   1  12
BRANCH   6  15
ATOM     15  C   UNL     1      -4.985   0.230   5.320  0.00  0.00    +0.194 A 
ATOM     16  C   UNL     1      -4.507   0.399   6.589  0.00  0.00    +0.055 A 
ATOM     17  C   UNL     1      -5.530   0.000   7.462  0.00  0.00    +0.042 A 
ATOM     18  C   UNL     1      -6.572  -0.398   6.699  0.00  0.00    +0.196 A 
ATOM     19  O   UNL     1      -6.240  -0.258   5.409  0.00  0.00    -0.458 OA
ENDBRANCH   6  15
BRANCH   8  20
ATOM     20  C   UNL     1      -2.594   1.202   0.020  0.00  0.00    +0.147 C 
BRANCH  20  21
ATOM     21  C   UNL     1      -1.190   1.748   0.017  0.00  0.00    +0.007 A 
ATOM     22  C   UNL     1      -0.013   1.076   0.008  0.00  0.00    +0.013 A 
ATOM     23  C   UNL     1       1.169   1.793   0.001  0.00  0.00    +0.008 A 
ATOM     24  C   UNL     1       1.115   3.148   0.008  0.00  0.00    +0.045 A 
ATOM     25  S   UNL     1      -0.644   3.448   0.027  0.00  0.00    -0.100 S 
ENDBRANCH  20  21
ENDBRANCH   8  20
TORSDOF 4
