REMARK  Name = ZINC15056809
REMARK  6 active torsions:
REMARK  status: ('A' for Active; 'I' for Inactive)
REMARK    1  A    between atoms: C_1  and  C_2
REMARK    2  A    between atoms: C_5  and  N_8
REMARK    3  A    between atoms: C_9  and  C_11
REMARK    4  A    between atoms: C_11  and  O_12
REMARK    5  A    between atoms: O_12  and  C_13
REMARK    6  A    between atoms: C_18  and  C_19
REMARK                            x       y       z     vdW  Elec       q    Type
REMARK                         _______ _______ _______ _____ _____    ______ ____
ROOT
ATOM      1  C   UNL     1       0.757  -8.209   2.631  0.00  0.00    +0.128 A 
ATOM      2  C   UNL     1       0.854  -9.062   1.544  0.00  0.00    +0.046 A 
ATOM      3  C   UNL     1       0.919 -10.429   1.739  0.00  0.00    +0.004 A 
ATOM      4  C   UNL     1       0.887 -10.957   3.019  0.00  0.00    +0.001 A 
ATOM      5  C   UNL     1       0.792 -10.126   4.113  0.00  0.00    +0.011 A 
ATOM      6  C   UNL     1       0.731  -8.739   3.931  0.00  0.00    +0.018 A 
ENDROOT
BRANCH   6   7
ATOM      7  C   UNL     1       0.634  -7.845   5.092  0.00  0.00    +0.032 C 
ATOM      8  C   UNL     1       0.232  -8.333   6.293  0.00  0.00    +0.078 C 
ATOM      9  C   UNL     1       0.218  -7.675   7.613  0.00  0.00    +0.256 C 
ATOM     10  O   UNL     1       0.601  -6.529   7.756  0.00  0.00    -0.269 OA
ATOM     11  N   UNL     1      -0.230  -8.387   8.633  0.00  0.00    -0.261 N 
ATOM     12  C   UNL     1      -0.660  -9.685   8.449  0.00  0.00    +0.158 C 
ATOM     13  N   UNL     1      -1.127 -10.519   9.337  0.00  0.00    -0.279 NA
ATOM     14  S   UNL     1      -0.430  -9.943   6.697  0.00  0.00    -0.049 S 
ATOM     15  H   UNL     1      -0.256  -7.993   9.520  0.00  0.00    +0.157 HD
ATOM     16  H   UNL     1      -1.397 -11.412   9.070  0.00  0.00    +0.189 HD
ENDBRANCH   6   7
BRANCH   1  17
ATOM     17  O   UNL     1       0.694  -6.866   2.441  0.00  0.00    -0.482 OA
BRANCH  17  18
ATOM     18  C   UNL     1       0.727  -6.400   1.090  0.00  0.00    +0.324 C 
BRANCH  18  20
ATOM     19  N   UNL     1       0.662  -4.231  -0.096  0.00  0.00    -0.283 N 
ATOM     20  C   UNL     1       0.648  -4.896   1.076  0.00  0.00    +0.255 C 
ATOM     21  O   UNL     1       0.571  -4.282   2.120  0.00  0.00    -0.272 OA
ATOM     22  H   UNL     1       0.648  -4.722  -0.933  0.00  0.00    +0.155 HD
BRANCH  19  27
ATOM     23  C   UNL     1       0.804   1.440  -0.142  0.00  0.00    +0.044 C 
ATOM     24  C   UNL     1       0.766  -0.066  -0.130  0.00  0.00    -0.050 A 
ATOM     25  C   UNL     1       1.448  -0.766   0.849  0.00  0.00    +0.005 A 
ATOM     26  C   UNL     1       1.415  -2.146   0.863  0.00  0.00    +0.023 A 
ATOM     27  C   UNL     1       0.697  -2.832  -0.107  0.00  0.00    +0.034 A 
ATOM     28  C   UNL     1       0.013  -2.127  -1.089  0.00  0.00    +0.023 A 
ATOM     29  C   UNL     1       0.045  -0.746  -1.095  0.00  0.00    +0.005 A 
ENDBRANCH  19  27
ENDBRANCH  18  20
ENDBRANCH  17  18
ENDBRANCH   1  17
TORSDOF 5
