REMARK  Name = ZINC49035922
REMARK  2 active torsions:
REMARK  status: ('A' for Active; 'I' for Inactive)
REMARK    1  A    between atoms: C_4  and  C_7
REMARK    2  A    between atoms: C_17  and  N_18
REMARK                            x       y       z     vdW  Elec       q    Type
REMARK                         _______ _______ _______ _____ _____    ______ ____
ROOT
ATOM      1  C   UNL     1       3.796  -0.674  -0.056  0.00  0.00    +0.068 C 
ATOM      2  C   UNL     1       3.948  -1.531   1.200  0.00  0.00    +0.015 C 
ATOM      3  C   UNL     1       5.176  -2.434   1.027  0.00  0.00    +0.006 C 
ATOM      4  C   UNL     1       4.860  -3.479  -0.042  0.00  0.00    +0.040 C 
ATOM      5  C   UNL     1       4.324  -2.819  -1.281  0.00  0.00    +0.015 A 
ATOM      6  C   UNL     1       3.831  -1.540  -1.286  0.00  0.00    +0.059 A 
ATOM      7  N   UNL     1       3.368  -1.036  -2.428  0.00  0.00    -0.219 NA
ATOM      8  C   UNL     1       3.376  -1.745  -3.544  0.00  0.00    +0.214 A 
ATOM      9  N   UNL     1       3.845  -2.983  -3.575  0.00  0.00    -0.199 NA
ATOM     10  C   UNL     1       4.325  -3.542  -2.481  0.00  0.00    +0.130 A 
ATOM     11  N   UNL     1       2.883  -1.180  -4.707  0.00  0.00    -0.327 N 
ATOM     12  H   UNL     1       2.537  -0.274  -4.697  0.00  0.00    +0.145 HD
ATOM     13  H   UNL     1       2.884  -1.690  -5.532  0.00  0.00    +0.145 HD
ENDROOT
BRANCH  10  14
ATOM     14  N   UNL     1       4.814  -4.838  -2.517  0.00  0.00    -0.316 N 
ATOM     15  C   UNL     1       4.039  -6.059  -2.236  0.00  0.00    +0.108 C 
ATOM     16  C   UNL     1       5.002  -7.239  -2.419  0.00  0.00    -0.006 C 
ATOM     17  C   UNL     1       4.321  -8.473  -2.965  0.00  0.00    +0.002 C 
ATOM     18  C   UNL     1       3.879  -8.263  -4.414  0.00  0.00    -0.019 C 
ATOM     19  C   UNL     1       5.112  -7.859  -5.231  0.00  0.00    -0.082 C 
ATOM     20  N   UNL     1       5.601  -6.573  -4.732  0.00  0.00    +0.382 N 
ATOM     21  C   UNL     1       6.082  -6.688  -3.369  0.00  0.00    -0.050 C 
ATOM     22  C   UNL     1       6.199  -5.226  -2.850  0.00  0.00    +0.091 C 
ATOM     23  H   UNL     1       6.351  -6.252  -5.325  0.00  0.00    -0.085 HD
ATOM     24  H   UNL     1       4.849  -5.901  -4.761  0.00  0.00    -0.085 HD
ENDBRANCH  10  14
BRANCH   1  28
ATOM     25  C   UNL     1       0.070   1.408   0.097  0.00  0.00    +0.000 A 
ATOM     26  C   UNL     1       1.255   2.116   0.037  0.00  0.00    +0.000 A 
ATOM     27  C   UNL     1       2.461   1.442  -0.012  0.00  0.00    +0.004 A 
ATOM     28  C   UNL     1       2.481   0.060  -0.001  0.00  0.00    -0.038 A 
ATOM     29  C   UNL     1       1.296  -0.648   0.060  0.00  0.00    +0.004 A 
ATOM     30  C   UNL     1       0.090   0.026   0.108  0.00  0.00    +0.000 A 
ENDBRANCH   1  28
TORSDOF 2
