REMARK  Name = ZINC04775927
REMARK  7 active torsions:
REMARK  status: ('A' for Active; 'I' for Inactive)
REMARK    1  A    between atoms: C_1  and  C_2
REMARK    2  A    between atoms: C_2  and  O_3
REMARK    3  A    between atoms: O_3  and  C_4
REMARK    4  A    between atoms: C_4  and  C_6
REMARK    5  A    between atoms: C_13  and  C_16
REMARK    6  A    between atoms: C_14  and  N_15
REMARK    7  A    between atoms: C_16  and  C_18
REMARK                            x       y       z     vdW  Elec       q    Type
REMARK                         _______ _______ _______ _____ _____    ______ ____
ROOT
ATOM      1  C   UNL     1      -2.267   4.113   0.054  0.00  0.00    +0.105 A 
ATOM      2  C   UNL     1      -1.219   3.162   0.029  0.00  0.00    +0.063 A 
ATOM      3  C   UNL     1      -1.233   1.762   0.011  0.00  0.00    +0.027 A 
ATOM      4  C   UNL     1      -0.050   1.079  -0.009  0.00  0.00    +0.003 A 
ATOM      5  C   UNL     1       1.154   1.793  -0.023  0.00  0.00    +0.018 A 
ATOM      6  C   UNL     1       1.143   3.146  -0.011  0.00  0.00    +0.092 A 
ATOM      7  N   UNL     1      -0.032   3.834   0.015  0.00  0.00    -0.311 N 
ATOM      8  C   UNL     1      -0.289   5.198   0.030  0.00  0.00    +0.116 A 
ATOM      9  C   UNL     1      -1.668   5.389   0.055  0.00  0.00    +0.069 A 
ENDROOT
BRANCH   9  10
ATOM     10  N   UNL     1      -2.329   6.606   0.075  0.00  0.00    -0.356 N 
ATOM     11  H   UNL     1      -3.296   6.634   0.017  0.00  0.00    +0.142 HD
ATOM     12  H   UNL     1      -1.823   7.431   0.149  0.00  0.00    +0.142 HD
ENDBRANCH   9  10
BRANCH   1  13
ATOM     13  C   UNL     1      -3.657   3.834   0.075  0.00  0.00    +0.343 C 
ATOM     14  O   UNL     1      -4.236   3.706   1.138  0.00  0.00    -0.245 OA
BRANCH  13  15
ATOM     15  O   UNL     1      -4.338   3.711  -1.083  0.00  0.00    -0.461 OA
BRANCH  15  17
ATOM     16  C   UNL     1      -6.333   3.327  -2.392  0.00  0.00    +0.048 C 
ATOM     17  C   UNL     1      -5.736   3.430  -0.987  0.00  0.00    +0.229 C 
ENDBRANCH  15  17
ENDBRANCH  13  15
ENDBRANCH   1  13
BRANCH   8  18
ATOM     18  C   UNL     1       0.683   6.218   0.022  0.00  0.00    +0.212 C 
ATOM     19  O   UNL     1       1.028   6.722  -1.033  0.00  0.00    -0.285 OA
BRANCH  18  20
ATOM     20  C   UNL     1       1.284   6.677   1.294  0.00  0.00    +0.024 A 
ATOM     21  C   UNL     1       0.972   6.030   2.490  0.00  0.00    +0.013 A 
ATOM     22  C   UNL     1       1.539   6.459   3.672  0.00  0.00    +0.016 A 
ATOM     23  C   UNL     1       2.409   7.536   3.674  0.00  0.00    +0.018 A 
ATOM     24  C   UNL     1       2.719   8.186   2.491  0.00  0.00    +0.016 A 
ATOM     25  C   UNL     1       2.162   7.762   1.302  0.00  0.00    +0.013 A 
ATOM     26 BR   UNL     1       3.177   8.123   5.299  0.00  0.00    -0.050 Br
ENDBRANCH  18  20
ENDBRANCH   8  18
TORSDOF 6
