REMARK  Name = ZINC19827385
REMARK  3 active torsions:
REMARK  status: ('A' for Active; 'I' for Inactive)
REMARK    1  A    between atoms: C_6  and  C_7
REMARK    2  A    between atoms: C_9  and  C_13
REMARK    3  A    between atoms: C_19  and  C_21
REMARK                            x       y       z     vdW  Elec       q    Type
REMARK                         _______ _______ _______ _____ _____    ______ ____
ROOT
ATOM      1  C   UNL     1       2.154   6.928   1.387  0.00  0.00    +0.203 A 
ATOM      2  N   UNL     1       1.714   7.939   0.670  0.00  0.00    -0.125 NA
ATOM      3  N   UNL     1       1.105   7.501  -0.376  0.00  0.00    -0.120 NA
ATOM      4  C   UNL     1       1.123   6.201  -0.381  0.00  0.00    +0.218 A 
ATOM      5  N   UNL     1       1.789   5.757   0.735  0.00  0.00    -0.184 N 
ATOM      6  N   UNL     1       1.899   4.381   0.883  0.00  0.00    -0.160 NA
ATOM      7  C   UNL     1       1.396   3.562   0.008  0.00  0.00    +0.105 A 
ATOM      8  S   UNL     1       0.682   4.681  -1.187  0.00  0.00    -0.031 S 
ENDROOT
BRANCH   1  11
ATOM      9  C   UNL     1       3.809   7.786   4.558  0.00  0.00    +0.093 A 
ATOM     10  C   UNL     1       3.021   8.138   3.450  0.00  0.00    +0.061 A 
ATOM     11  C   UNL     1       2.898   7.020   2.654  0.00  0.00    +0.105 A 
ATOM     12  N   UNL     1       3.601   6.014   3.256  0.00  0.00    -0.273 N 
ATOM     13  H   UNL     1       3.646   5.019   2.789  0.00  0.00    +0.189 HD
ATOM     14  N   UNL     1       4.155   6.521   4.437  0.00  0.00    -0.173 NA
BRANCH   9  20
ATOM     15  C   UNL     1       3.762  10.014   5.678  0.00  0.00    +0.011 A 
ATOM     16  C   UNL     1       4.116  10.847   6.719  0.00  0.00    +0.020 A 
ATOM     17  C   UNL     1       4.905  10.371   7.752  0.00  0.00    +0.041 A 
ATOM     18  C   UNL     1       5.339   9.057   7.748  0.00  0.00    +0.020 A 
ATOM     19  C   UNL     1       4.986   8.214   6.714  0.00  0.00    +0.011 A 
ATOM     20  C   UNL     1       4.191   8.688   5.672  0.00  0.00    +0.002 A 
ATOM     21 CL   UNL     1       5.354  11.427   9.055  0.00  0.00    -0.084 Cl
ENDBRANCH   9  20
ENDBRANCH   1  11
BRANCH   7  22
ATOM     22  C   UNL     1       1.417   2.055  -0.000  0.00  0.00    +0.047 C 
ATOM     23  C   UNL     1      -0.019   1.526   0.010  0.00  0.00    +0.010 C 
ATOM     24  C   UNL     1       0.002  -0.004   0.002  0.00  0.00    +0.001 C 
ATOM     25  C   UNL     1       0.718  -0.497  -1.257  0.00  0.00    +0.000 C 
ATOM     26  C   UNL     1       2.154   0.032  -1.268  0.00  0.00    +0.001 C 
ATOM     27  C   UNL     1       2.133   1.562  -1.259  0.00  0.00    +0.010 C 
ENDBRANCH   7  22
TORSDOF 3
