REMARK  Name = ZINC33661627
REMARK  12 active torsions:
REMARK  status: ('A' for Active; 'I' for Inactive)
REMARK    1  A    between atoms: C_1  and  C_2
REMARK    2  A    between atoms: C_2  and  C_4
REMARK    3  A    between atoms: C_7  and  N_10
REMARK    4  A    between atoms: C_11  and  C_13
REMARK    5  A    between atoms: C_13  and  N_14
REMARK    6  A    between atoms: C_15  and  C_17
REMARK    7  A    between atoms: C_17  and  N_18
REMARK    8  A    between atoms: C_19  and  C_21
REMARK    9  A    between atoms: C_33  and  C_35
REMARK   10  A    between atoms: C_33  and  C_36
REMARK   11  A    between atoms: C_38  and  C_40
REMARK   12  A    between atoms: C_38  and  C_41
REMARK                            x       y       z     vdW  Elec       q    Type
REMARK                         _______ _______ _______ _____ _____    ______ ____
ROOT
ATOM      1  N   UNL     1       2.143   1.707   1.278  0.00  0.00    -0.305 N 
ATOM      2  C   UNL     1       1.234   2.238   0.436  0.00  0.00    +0.245 C 
ATOM      3  O   UNL     1       1.554   3.134  -0.316  0.00  0.00    -0.273 OA
ATOM      4  H   UNL     1       1.852   0.895   1.959  0.00  0.00    +0.149 HD
ENDROOT
BRANCH   2   5
ATOM      5  C   UNL     1      -0.180   1.718   0.429  0.00  0.00    +0.238 C 
ATOM      6  C   UNL     1      -0.839   2.026   1.750  0.00  0.00    +0.191 C 
ATOM      7  C   UNL     1      -0.891   3.573   1.960  0.00  0.00    +0.187 C 
ATOM      8  C   UNL     1      -1.800   4.072   0.871  0.00  0.00    +0.209 C 
ATOM      9  C   UNL     1      -1.041   3.757  -0.455  0.00  0.00    +0.286 C 
ATOM     10  O   UNL     1      -0.932   2.367  -0.628  0.00  0.00    -0.333 OA
ATOM     11  O   UNL     1      -1.822   4.518  -1.371  0.00  0.00    -0.318 OA
ATOM     12  C   UNL     1      -2.078   5.748  -0.646  0.00  0.00    +0.168 C 
ATOM     13  O   UNL     1      -1.980   5.476   0.770  0.00  0.00    -0.338 OA
ATOM     14  C   UNL     1      -1.042   6.803  -1.040  0.00  0.00    +0.074 C 
ATOM     15  C   UNL     1      -3.482   6.258  -0.976  0.00  0.00    +0.074 C 
ATOM     16  O   UNL     1      -1.356   3.633   3.308  0.00  0.00    -0.341 OA
ATOM     17  C   UNL     1      -0.622   2.565   3.961  0.00  0.00    +0.166 C 
ATOM     18  O   UNL     1      -0.255   1.584   2.963  0.00  0.00    -0.340 OA
ATOM     19  C   UNL     1       0.639   3.132   4.616  0.00  0.00    +0.074 C 
ATOM     20  C   UNL     1      -1.504   1.911   5.027  0.00  0.00    +0.074 C 
ENDBRANCH   2   5
BRANCH   1  21
ATOM     21  C   UNL     1       3.518   2.213   1.284  0.00  0.00    +0.200 C 
BRANCH  21  23
ATOM     22  N   UNL     1       5.628   1.753   2.490  0.00  0.00    -0.305 N 
ATOM     23  C   UNL     1       4.326   1.457   2.307  0.00  0.00    +0.231 C 
ATOM     24  O   UNL     1       3.805   0.582   2.966  0.00  0.00    -0.274 OA
ATOM     25  H   UNL     1       6.101   2.546   1.893  0.00  0.00    +0.149 HD
BRANCH  22  26
ATOM     26  C   UNL     1       6.414   1.018   3.485  0.00  0.00    +0.200 C 
BRANCH  26  28
ATOM     27  N   UNL     1       8.737   1.007   4.334  0.00  0.00    -0.284 N 
ATOM     28  C   UNL     1       7.828   1.538   3.492  0.00  0.00    +0.234 C 
ATOM     29  O   UNL     1       8.149   2.434   2.740  0.00  0.00    -0.274 OA
ATOM     30  H   UNL     1       8.427   0.256   5.075  0.00  0.00    +0.155 HD
BRANCH  27  34
ATOM     31  C   UNL     1      12.714   2.209   4.128  0.00  0.00    +0.017 A 
ATOM     32  C   UNL     1      12.148   1.864   5.361  0.00  0.00    +0.013 A 
ATOM     33  C   UNL     1      10.837   1.469   5.424  0.00  0.00    +0.024 A 
ATOM     34  C   UNL     1      10.069   1.409   4.265  0.00  0.00    +0.033 A 
ATOM     35  C   UNL     1      10.629   1.746   3.035  0.00  0.00    +0.024 A 
ATOM     36  C   UNL     1      11.938   2.148   2.963  0.00  0.00    +0.013 A 
BRANCH  31  38
ATOM     37  C   UNL     1      14.726   3.004   2.726  0.00  0.00    +0.091 C 
ATOM     38  C   UNL     1      14.118   2.634   4.055  0.00  0.00    +0.160 C 
ATOM     39  O   UNL     1      14.789   2.687   5.064  0.00  0.00    -0.292 OA
ENDBRANCH  31  38
ENDBRANCH  27  34
ENDBRANCH  26  28
ENDBRANCH  22  26
ENDBRANCH  21  23
ENDBRANCH   1  21
TORSDOF 7
