REMARK  Name = ZINC06599623
REMARK  8 active torsions:
REMARK  status: ('A' for Active; 'I' for Inactive)
REMARK    1  A    between atoms: C_1  and  C_2
REMARK    2  A    between atoms: C_2  and  O_3
REMARK    3  A    between atoms: O_3  and  C_4
REMARK    4  A    between atoms: C_4  and  C_6
REMARK    5  A    between atoms: C_7  and  C_28
REMARK    6  A    between atoms: C_12  and  C_14
REMARK    7  A    between atoms: C_14  and  S_15
REMARK    8  A    between atoms: S_15  and  C_16
REMARK                            x       y       z     vdW  Elec       q    Type
REMARK                         _______ _______ _______ _____ _____    ______ ____
ROOT
ATOM      1  C   UNL     1       1.448  -2.344  -2.514  0.00  0.00    +0.120 A 
ATOM      2  C   UNL     1       1.663  -3.665  -2.882  0.00  0.00    +0.062 A 
ATOM      3  N   UNL     1       2.302  -3.858  -4.008  0.00  0.00    -0.229 NA
ATOM      4  C   UNL     1       2.717  -2.846  -4.748  0.00  0.00    +0.165 A 
ATOM      5  S   UNL     1       2.212  -1.492  -3.885  0.00  0.00    -0.045 S 
ATOM      6  N   UNL     1       3.400  -2.888  -5.950  0.00  0.00    -0.264 N 
ATOM      7  C   UNL     1       3.746  -1.742  -6.570  0.00  0.00    +0.229 C 
ATOM      8  O   UNL     1       3.459  -0.674  -6.073  0.00  0.00    -0.275 OA
ATOM      9  C   UNL     1       1.187  -4.815  -2.032  0.00  0.00    +0.067 C 
ATOM     10  H   UNL     1       3.630  -3.743  -6.348  0.00  0.00    +0.157 HD
ENDROOT
BRANCH   1  11
ATOM     11  C   UNL     1       0.776  -1.800  -1.335  0.00  0.00    +0.348 C 
ATOM     12  O   UNL     1       0.312  -2.553  -0.499  0.00  0.00    -0.244 OA
BRANCH  11  13
ATOM     13  O   UNL     1       0.671  -0.465  -1.174  0.00  0.00    -0.461 OA
BRANCH  13  15
ATOM     14  C   UNL     1      -0.019   1.526   0.010  0.00  0.00    +0.048 C 
ATOM     15  C   UNL     1       0.002  -0.004   0.002  0.00  0.00    +0.229 C 
ENDBRANCH  13  15
ENDBRANCH  11  13
ENDBRANCH   1  11
BRANCH   7  16
ATOM     16  C   UNL     1       4.490  -1.788  -7.880  0.00  0.00    +0.175 C 
BRANCH  16  17
ATOM     17  S   UNL     1       4.808  -0.098  -8.455  0.00  0.00    -0.056 S 
BRANCH  17  18
ATOM     18  C   UNL     1       5.671  -0.320  -9.975  0.00  0.00    +0.274 C 
ATOM     19  N   UNL     1       5.976  -1.468 -10.513  0.00  0.00    -0.135 NA
ATOM     20  N   UNL     1       6.657  -1.206 -11.711  0.00  0.00    -0.203 N 
ATOM     21  C   UNL     1       6.729   0.127 -11.836  0.00  0.00    +0.216 C 
ATOM     22  C   UNL     1       7.355   0.859 -12.938  0.00  0.00    +0.034 C 
ATOM     23  C   UNL     1       7.950   0.157 -13.998  0.00  0.00    +0.017 C 
ATOM     24  C   UNL     1       8.532   0.839 -15.023  0.00  0.00    +0.051 C 
ATOM     25  C   UNL     1       8.538   2.242 -15.019  0.00  0.00    +0.179 C 
ATOM     26  O   UNL     1       9.109   2.909 -16.023  0.00  0.00    -0.288 OA
ATOM     27  C   UNL     1       7.944   2.943 -13.960  0.00  0.00    +0.051 C 
ATOM     28  C   UNL     1       7.356   2.263 -12.937  0.00  0.00    +0.017 C 
ATOM     29  O   UNL     1       6.119   0.668 -10.772  0.00  0.00    -0.415 OA
ATOM     30  H   UNL     1       7.008  -1.864 -12.332  0.00  0.00    +0.178 HD
ENDBRANCH  17  18
ENDBRANCH  16  17
ENDBRANCH   7  16
TORSDOF 6
