REMARK  Name = ZINC45540677
REMARK  11 active torsions:
REMARK  status: ('A' for Active; 'I' for Inactive)
REMARK    1  A    between atoms: C_1  and  C_2
REMARK    2  A    between atoms: C_2  and  N_3
REMARK    3  A    between atoms: C_5  and  C_12
REMARK    4  A    between atoms: C_12  and  O_14
REMARK    5  A    between atoms: O_14  and  C_15
REMARK    6  A    between atoms: C_15  and  C_16
REMARK    7  A    between atoms: C_17  and  C_29
REMARK    8  A    between atoms: C_18  and  C_24
REMARK    9  A    between atoms: C_29  and  O_31
REMARK   10  A    between atoms: O_31  and  C_32
REMARK   11  A    between atoms: C_32  and  C_33
REMARK                            x       y       z     vdW  Elec       q    Type
REMARK                         _______ _______ _______ _____ _____    ______ ____
ROOT
ATOM      1  C   UNL     1      -2.156  -2.237  -6.896  0.00  0.00    +0.061 C 
ATOM      2  C   UNL     1      -2.646  -1.254  -7.682  0.00  0.00    +0.084 C 
ATOM      3  C   UNL     1      -4.146  -1.197  -7.888  0.00  0.00    +0.179 C 
ATOM      4  N   UNL     1      -4.952  -2.226  -7.209  0.00  0.00    -0.285 N 
ATOM      5  C   UNL     1      -4.317  -3.145  -6.456  0.00  0.00    +0.305 C 
ATOM      6  O   UNL     1      -4.974  -3.998  -5.892  0.00  0.00    -0.252 OA
ATOM      7  N   UNL     1      -2.986  -3.152  -6.313  0.00  0.00    -0.269 N 
ATOM      8  H   UNL     1      -5.918  -2.241  -7.302  0.00  0.00    +0.151 HD
ATOM      9  H   UNL     1      -2.588  -3.843  -5.760  0.00  0.00    +0.156 HD
ENDROOT
BRANCH   3  10
ATOM     10  C   UNL     1      -4.417  -1.297  -9.367  0.00  0.00    +0.130 A 
ATOM     11  C   UNL     1      -4.686  -0.267 -10.189  0.00  0.00    +0.047 A 
ATOM     12  C   UNL     1      -4.872  -0.810 -11.480  0.00  0.00    +0.041 A 
ATOM     13  C   UNL     1      -4.704  -2.141 -11.371  0.00  0.00    +0.195 A 
ATOM     14  O   UNL     1      -4.423  -2.429 -10.090  0.00  0.00    -0.466 OA
ENDBRANCH   3  10
BRANCH   2  15
ATOM     15  C   UNL     1      -1.788  -0.309  -8.292  0.00  0.00    +0.339 C 
ATOM     16  O   UNL     1      -1.670   0.803  -7.813  0.00  0.00    -0.245 OA
BRANCH  15  17
ATOM     17  O   UNL     1      -1.100  -0.642  -9.404  0.00  0.00    -0.462 OA
BRANCH  17  18
ATOM     18  C   UNL     1      -0.252   0.361  -9.966  0.00  0.00    +0.229 C 
ATOM     19  C   UNL     1       0.440  -0.196 -11.212  0.00  0.00    +0.048 C 
ENDBRANCH  17  18
ENDBRANCH  15  17
ENDBRANCH   2  15
BRANCH   1  20
ATOM     20  C   UNL     1      -0.670  -2.331  -6.665  0.00  0.00    +0.283 C 
BRANCH  20  21
ATOM     21  O   UNL     1      -0.387  -2.088  -5.286  0.00  0.00    -0.455 OA
BRANCH  21  22
ATOM     22  C   UNL     1       0.907  -2.135  -4.910  0.00  0.00    +0.342 C 
ATOM     23  O   UNL     1       1.771  -2.376  -5.731  0.00  0.00    -0.245 OA
BRANCH  22  26
ATOM     24  N   UNL     1       1.128  -1.458  -1.333  0.00  0.00    -0.346 N 
ATOM     25  C   UNL     1       0.423  -1.616  -2.479  0.00  0.00    +0.101 A 
ATOM     26  C   UNL     1       1.273  -1.896  -3.509  0.00  0.00    +0.084 A 
ATOM     27  C   UNL     1       2.632  -1.910  -2.937  0.00  0.00    +0.014 A 
ATOM     28  C   UNL     1       2.477  -1.624  -1.571  0.00  0.00    +0.050 A 
ATOM     29  C   UNL     1       3.601  -1.563  -0.754  0.00  0.00    +0.026 A 
ATOM     30  C   UNL     1       4.853  -1.779  -1.290  0.00  0.00    +0.002 A 
ATOM     31  C   UNL     1       5.005  -2.058  -2.640  0.00  0.00    +0.001 A 
ATOM     32  C   UNL     1       3.902  -2.131  -3.464  0.00  0.00    +0.011 A 
BRANCH  24  34
ATOM     33  C   UNL     1       0.576   0.364   0.201  0.00  0.00    +0.027 C 
ATOM     34  C   UNL     1       0.541  -1.148  -0.027  0.00  0.00    +0.118 C 
ENDBRANCH  24  34
ENDBRANCH  22  26
ENDBRANCH  21  22
ENDBRANCH  20  21
ENDBRANCH   1  20
TORSDOF 9
