REMARK  Name = ZINC49640524
REMARK  7 active torsions:
REMARK  status: ('A' for Active; 'I' for Inactive)
REMARK    1  A    between atoms: C_3  and  C_6
REMARK    2  A    between atoms: C_6  and  N_7
REMARK    3  A    between atoms: N_7  and  C_8
REMARK    4  A    between atoms: C_8  and  C_9
REMARK    5  A    between atoms: C_9  and  N_11
REMARK    6  A    between atoms: C_15  and  C_17
REMARK    7  A    between atoms: C_17  and  C_18
REMARK                            x       y       z     vdW  Elec       q    Type
REMARK                         _______ _______ _______ _____ _____    ______ ____
ROOT
ATOM      1  N   UNL     1       7.393   0.522   2.981  0.00  0.00    -0.158 NA
ATOM      2  C   UNL     1       7.850   0.505   4.235  0.00  0.00    +0.163 A 
ATOM      3  N   UNL     1       7.139   0.510   5.394  0.00  0.00    -0.342 N 
ATOM      4  C   UNL     1       7.810   0.489   6.576  0.00  0.00    +0.095 A 
ATOM      5  C   UNL     1       9.146   0.465   6.523  0.00  0.00    +0.013 A 
ATOM      6  S   UNL     1       9.446   0.465   4.765  0.00  0.00    -0.057 S 
ATOM      7  H   UNL     1       6.169   0.529   5.377  0.00  0.00    +0.167 HD
ENDROOT
BRANCH   1   8
ATOM      8  C   UNL     1       6.087   0.553   2.752  0.00  0.00    +0.221 C 
ATOM      9  O   UNL     1       5.306   0.567   3.684  0.00  0.00    -0.276 OA
BRANCH   8  10
ATOM     10  C   UNL     1       5.571   0.572   1.336  0.00  0.00    +0.018 C 
BRANCH  10  11
ATOM     11  N   UNL     1       4.102   0.606   1.351  0.00  0.00    +0.389 N 
ATOM     12  H   UNL     1       3.790   1.435   1.834  0.00  0.00    -0.085 HD
ATOM     13  H   UNL     1       3.751  -0.212   1.825  0.00  0.00    -0.085 HD
BRANCH  11  14
ATOM     14  C   UNL     1       3.599   0.625  -0.029  0.00  0.00    -0.006 C 
BRANCH  14  17
ATOM     15  C   UNL     1      -0.016   1.341   0.009  0.00  0.00    +0.041 A 
ATOM     16  C   UNL     1       1.331   1.769  -0.001  0.00  0.00    +0.042 A 
ATOM     17  C   UNL     1       2.092   0.660  -0.014  0.00  0.00    +0.088 A 
ATOM     18  O   UNL     1       1.282  -0.411  -0.012  0.00  0.00    -0.470 OA
ATOM     19  C   UNL     1       0.002  -0.004   0.002  0.00  0.00    +0.195 A 
ENDBRANCH  14  17
ENDBRANCH  11  14
ENDBRANCH  10  11
ENDBRANCH   8  10
ENDBRANCH   1   8
BRANCH   5  20
ATOM     20  C   UNL     1      10.141   0.438   7.654  0.00  0.00    +0.079 C 
BRANCH  20  21
ATOM     21  C   UNL     1      10.539  -0.987   7.940  0.00  0.00    -0.040 A 
ATOM     22  C   UNL     1       9.820  -1.735   8.853  0.00  0.00    +0.024 A 
ATOM     23  C   UNL     1      10.185  -3.044   9.116  0.00  0.00    +0.043 A 
ATOM     24  C   UNL     1      11.270  -3.603   8.464  0.00  0.00    +0.040 A 
ATOM     25  C   UNL     1      11.988  -2.854   7.550  0.00  0.00    +0.043 A 
ATOM     26  C   UNL     1      11.619  -1.548   7.284  0.00  0.00    +0.024 A 
ATOM     27 CL   UNL     1      13.349  -3.556   6.732  0.00  0.00    -0.083 Cl
ATOM     28 CL   UNL     1       9.283  -3.983  10.264  0.00  0.00    -0.083 Cl
ENDBRANCH  20  21
ENDBRANCH   5  20
TORSDOF 7
