REMARK  Name = ZINC19910404
REMARK  6 active torsions:
REMARK  status: ('A' for Active; 'I' for Inactive)
REMARK    1  A    between atoms: C_1  and  C_2
REMARK    2  A    between atoms: C_13  and  O_15
REMARK    3  A    between atoms: N_21  and  N_22
REMARK    4  A    between atoms: N_22  and  C_23
REMARK    5  A    between atoms: C_23  and  N_25
REMARK    6  A    between atoms: C_28  and  C_29
REMARK                            x       y       z     vdW  Elec       q    Type
REMARK                         _______ _______ _______ _____ _____    ______ ____
ROOT
ATOM      1  C   UNL     1      -4.759   5.325   2.598  0.00  0.00    +0.014 C 
ATOM      2  C   UNL     1      -4.121   4.389   3.623  0.00  0.00    -0.003 C 
ATOM      3  C   UNL     1      -2.693   4.790   3.911  0.00  0.00    +0.010 C 
ATOM      4  C   UNL     1      -1.726   3.949   3.066  0.00  0.00    +0.005 C 
ATOM      5  C   UNL     1      -2.311   3.633   1.698  0.00  0.00    +0.002 C 
ATOM      6  C   UNL     1      -3.535   2.749   1.792  0.00  0.00    -0.003 C 
ATOM      7  C   UNL     1      -4.165   2.917   3.168  0.00  0.00    +0.001 C 
ATOM      8  C   UNL     1      -5.671   2.610   3.216  0.00  0.00    +0.007 C 
ATOM      9  C   UNL     1      -6.160   3.367   4.479  0.00  0.00    +0.032 C 
ATOM     10  C   UNL     1      -5.030   4.352   4.867  0.00  0.00    +0.121 C 
ATOM     11  C   UNL     1      -3.242   1.262   1.618  0.00  0.00    +0.008 C 
ATOM     12  C   UNL     1      -2.463   0.982   0.342  0.00  0.00    +0.031 C 
ATOM     13  C   UNL     1      -1.180   1.790   0.395  0.00  0.00    -0.062 C 
ATOM     14  C   UNL     1      -0.035   1.147   0.181  0.00  0.00    +0.024 C 
ATOM     15  C   UNL     1       1.239   1.883   0.194  0.00  0.00    +0.059 C 
ATOM     16  N   UNL     1       2.378   1.272   0.339  0.00  0.00    -0.186 NA
ATOM     17  C   UNL     1       1.162   3.388   0.028  0.00  0.00    +0.058 C 
ATOM     18  C   UNL     1       0.071   3.897   0.972  0.00  0.00    +0.017 C 
ATOM     19  C   UNL     1      -1.273   3.251   0.672  0.00  0.00    -0.007 C 
ATOM     20  C   UNL     1      -1.753   3.895  -0.638  0.00  0.00    +0.016 C 
ENDROOT
BRANCH  10  21
ATOM     21  O   UNL     1      -5.562   5.651   5.119  0.00  0.00    -0.391 OA
ATOM     22  H   UNL     1      -6.236   5.814   5.973  0.00  0.00    +0.210 HD
ENDBRANCH  10  21
BRANCH  16  23
ATOM     23  N   UNL     1       3.576   1.988   0.219  0.00  0.00    -0.218 N 
ATOM     24  H   UNL     1       3.558   3.045  -0.083  0.00  0.00    +0.176 HD
BRANCH  23  25
ATOM     25  C   UNL     1       4.752   1.381   0.474  0.00  0.00    +0.147 C 
ATOM     26  S   UNL     1       6.217   2.255   0.327  0.00  0.00    -0.017 S 
BRANCH  25  27
ATOM     27  N   UNL     1       4.775   0.085   0.845  0.00  0.00    -0.339 N 
ATOM     28  H   UNL     1       5.735  -0.410   1.053  0.00  0.00    +0.144 HD
ATOM     29  H   UNL     1       3.834  -0.477   0.939  0.00  0.00    +0.144 HD
ENDBRANCH  25  27
ENDBRANCH  23  25
ENDBRANCH  16  23
TORSDOF 4
