REMARK  Name = ZINC06526068
REMARK  4 active torsions:
REMARK  status: ('A' for Active; 'I' for Inactive)
REMARK    1  A    between atoms: C_1  and  C_2
REMARK    2  A    between atoms: C_4  and  C_8
REMARK    3  A    between atoms: N_5  and  C_7
REMARK    4  A    between atoms: N_14  and  C_16
REMARK                            x       y       z     vdW  Elec       q    Type
REMARK                         _______ _______ _______ _____ _____    ______ ____
ROOT
ATOM      1  C   UNL     1       1.147   1.655  -0.000  0.00  0.00    +0.269 C 
ATOM      2  O   UNL     1       1.131   2.869  -0.084  0.00  0.00    -0.268 OA
ATOM      3  N   UNL     1      -0.011   0.965   0.006  0.00  0.00    -0.264 N 
ATOM      4  C   UNL     1      -1.234   1.648   0.020  0.00  0.00    +0.147 A 
ATOM      5  C   UNL     1      -1.399   3.043   0.040  0.00  0.00    +0.065 A 
ATOM      6  C   UNL     1      -2.726   3.303   0.045  0.00  0.00    +0.111 A 
ATOM      7  N   UNL     1      -3.380   2.122   0.038  0.00  0.00    -0.264 N 
ATOM      8  N   UNL     1      -2.425   1.097   0.022  0.00  0.00    -0.155 NA
ATOM      9  H   UNL     1       0.002  -0.005  -0.003  0.00  0.00    +0.157 HD
ENDROOT
BRANCH   7  10
ATOM     10  C   UNL     1      -4.834   1.943   0.046  0.00  0.00    +0.064 C 
ATOM     11  C   UNL     1      -5.471   2.903  -0.960  0.00  0.00    +0.033 C 
ATOM     12  C   UNL     1      -6.990   2.716  -0.952  0.00  0.00    -0.008 C 
ATOM     13  C   UNL     1      -7.329   1.275  -1.337  0.00  0.00    +0.007 C 
ATOM     14  C   UNL     1      -6.691   0.315  -0.331  0.00  0.00    -0.008 C 
ATOM     15  C   UNL     1      -5.173   0.501  -0.340  0.00  0.00    +0.033 C 
ATOM     16  C   UNL     1      -7.234   0.609   1.069  0.00  0.00    +0.007 C 
ATOM     17  C   UNL     1      -6.895   2.050   1.454  0.00  0.00    -0.008 C 
ATOM     18  C   UNL     1      -7.532   3.011   0.448  0.00  0.00    +0.007 C 
ATOM     19  C   UNL     1      -5.376   2.237   1.446  0.00  0.00    +0.033 C 
ENDBRANCH   7  10
BRANCH   1  23
ATOM     20  C   UNL     1       5.565  -0.594  -1.070  0.00  0.00    +0.069 C 
ATOM     21  C   UNL     1       4.358  -0.044  -0.355  0.00  0.00    +0.079 A 
ATOM     22  C   UNL     1       3.286   0.629  -0.948  0.00  0.00    +0.094 A 
ATOM     23  C   UNL     1       2.428   0.941   0.095  0.00  0.00    +0.142 A 
ATOM     24  N   UNL     1       3.016   0.457   1.230  0.00  0.00    -0.261 N 
ATOM     25  N   UNL     1       4.129  -0.111   0.932  0.00  0.00    -0.175 NA
ATOM     26  C   UNL     1       2.461   0.567   2.582  0.00  0.00    +0.173 C 
ATOM     27 CL   UNL     1       3.074   0.995  -2.631  0.00  0.00    -0.079 Cl
ENDBRANCH   1  23
TORSDOF 2
