REMARK  Name = ZINC02704037
REMARK  4 active torsions:
REMARK  status: ('A' for Active; 'I' for Inactive)
REMARK    1  A    between atoms: N_14  and  C_24
REMARK    2  A    between atoms: C_15  and  C_17
REMARK    3  A    between atoms: C_21  and  O_23
REMARK    4  A    between atoms: C_24  and  C_25
REMARK                            x       y       z     vdW  Elec       q    Type
REMARK                         _______ _______ _______ _____ _____    ______ ____
ROOT
ATOM      1  C   UNL     1      -1.251   3.137   0.029  0.00  0.00    +0.001 A 
ATOM      2  C   UNL     1      -1.214   1.750   0.017  0.00  0.00    +0.004 A 
ATOM      3  C   UNL     1      -0.013   1.076   0.008  0.00  0.00    +0.047 A 
ATOM      4  C   UNL     1       1.183   1.790   0.000  0.00  0.00    +0.139 A 
ATOM      5  C   UNL     1       1.135   3.194   0.008  0.00  0.00    +0.064 A 
ATOM      6  C   UNL     1      -0.090   3.859   0.022  0.00  0.00    +0.015 A 
ATOM      7  C   UNL     1       2.413   3.933  -0.000  0.00  0.00    +0.199 A 
ATOM      8  O   UNL     1       2.447   5.151   0.006  0.00  0.00    -0.287 OA
ATOM      9  C   UNL     1       3.638   3.129  -0.016  0.00  0.00    +0.072 A 
ATOM     10  C   UNL     1       3.557   1.776  -0.022  0.00  0.00    +0.199 A 
ATOM     11  O   UNL     1       2.365   1.147  -0.014  0.00  0.00    -0.450 OA
ATOM     12  C   UNL     1       4.935   1.225  -0.039  0.00  0.00    +0.283 C 
ATOM     13  O   UNL     1       5.211   0.042  -0.047  0.00  0.00    -0.267 OA
ATOM     14  N   UNL     1       5.834   2.224  -0.042  0.00  0.00    -0.279 N 
ATOM     15  C   UNL     1       5.099   3.495  -0.029  0.00  0.00    +0.145 C 
ENDROOT
BRANCH  15  16
ATOM     16  C   UNL     1       5.423   4.295  -1.264  0.00  0.00    -0.019 A 
ATOM     17  C   UNL     1       5.594   3.655  -2.477  0.00  0.00    +0.006 A 
ATOM     18  C   UNL     1       5.885   4.387  -3.613  0.00  0.00    +0.004 A 
ATOM     19  C   UNL     1       6.018   5.760  -3.536  0.00  0.00    +0.045 A 
ATOM     20  C   UNL     1       5.853   6.404  -2.319  0.00  0.00    +0.117 A 
ATOM     21  C   UNL     1       5.555   5.668  -1.182  0.00  0.00    +0.051 A 
BRANCH  20  22
ATOM     22  O   UNL     1       5.984   7.755  -2.241  0.00  0.00    -0.507 OA
ATOM     23  H   UNL     1       6.884   8.053  -2.052  0.00  0.00    +0.292 HD
ENDBRANCH  20  22
ENDBRANCH  15  16
BRANCH  14  24
ATOM     24  C   UNL     1       7.291   2.072  -0.058  0.00  0.00    +0.144 C 
BRANCH  24  25
ATOM     25  C   UNL     1       7.777   2.028  -1.484  0.00  0.00    -0.026 A 
ATOM     26  C   UNL     1       8.123   3.200  -2.131  0.00  0.00    +0.009 A 
ATOM     27  C   UNL     1       8.569   3.164  -3.439  0.00  0.00    +0.050 A 
ATOM     28  C   UNL     1       8.669   1.953  -4.105  0.00  0.00    +0.166 A 
ATOM     29  C   UNL     1       8.320   0.773  -3.453  0.00  0.00    +0.167 A 
ATOM     30  C   UNL     1       7.879   0.816  -2.140  0.00  0.00    +0.054 A 
ATOM     31  O   UNL     1       8.505  -0.271  -4.313  0.00  0.00    -0.453 OA
ATOM     32  C   UNL     1       8.580   0.319  -5.624  0.00  0.00    +0.466 C 
ATOM     33  O   UNL     1       9.073   1.648  -5.373  0.00  0.00    -0.453 OA
ENDBRANCH  24  25
ENDBRANCH  14  24
TORSDOF 4
