REMARK  Name = ZINC00999223
REMARK  8 active torsions:
REMARK  status: ('A' for Active; 'I' for Inactive)
REMARK    1  A    between atoms: C_1  and  C_2
REMARK    2  A    between atoms: C_5  and  N_8
REMARK    3  A    between atoms: C_11  and  C_13
REMARK    4  A    between atoms: C_14  and  C_22
REMARK    5  A    between atoms: C_16  and  C_20
REMARK    6  A    between atoms: C_17  and  N_19
REMARK    7  A    between atoms: C_25  and  O_28
REMARK    8  A    between atoms: O_28  and  C_29
REMARK                            x       y       z     vdW  Elec       q    Type
REMARK                         _______ _______ _______ _____ _____    ______ ____
ROOT
ATOM      1  N   UNL     1      -2.244  -1.471   2.457  0.00  0.00    -0.200 N 
ATOM      2  C   UNL     1      -1.920  -1.121   1.194  0.00  0.00    +0.230 A 
ATOM      3  C   UNL     1      -0.689  -0.529   1.234  0.00  0.00    +0.050 A 
ATOM      4  C   UNL     1      -0.257  -0.522   2.554  0.00  0.00    +0.068 A 
ATOM      5  N   UNL     1      -1.184  -1.085   3.293  0.00  0.00    -0.168 NA
ATOM      6  C   UNL     1       1.051   0.036   3.053  0.00  0.00    +0.068 C 
ATOM      7  C   UNL     1       0.002  -0.004   0.002  0.00  0.00    +0.101 C 
ATOM      8  C   UNL     1      -0.739  -0.516  -1.207  0.00  0.00    +0.098 C 
ATOM      9  C   UNL     1      -1.955  -1.100  -1.119  0.00  0.00    +0.200 C 
ATOM     10  O   UNL     1      -2.616  -1.286   0.042  0.00  0.00    -0.423 OA
ENDROOT
BRANCH   1  15
ATOM     11  C   UNL     1      -7.032  -4.040   4.096  0.00  0.00    +0.044 C 
ATOM     12  C   UNL     1      -5.761  -3.358   3.661  0.00  0.00    -0.050 A 
ATOM     13  C   UNL     1      -4.569  -3.650   4.298  0.00  0.00    +0.005 A 
ATOM     14  C   UNL     1      -3.402  -3.026   3.901  0.00  0.00    +0.028 A 
ATOM     15  C   UNL     1      -3.427  -2.106   2.862  0.00  0.00    +0.069 A 
ATOM     16  C   UNL     1      -4.626  -1.812   2.227  0.00  0.00    +0.028 A 
ATOM     17  C   UNL     1      -5.789  -2.443   2.625  0.00  0.00    +0.005 A 
ENDBRANCH   1  15
BRANCH   7  18
ATOM     18  C   UNL     1      -0.018   1.503   0.010  0.00  0.00    -0.034 A 
ATOM     19  C   UNL     1      -1.226   2.177   0.020  0.00  0.00    +0.008 A 
ATOM     20  C   UNL     1      -1.247   3.558   0.033  0.00  0.00    +0.046 A 
ATOM     21  C   UNL     1      -0.056   4.269   0.025  0.00  0.00    +0.120 A 
ATOM     22  C   UNL     1       1.154   3.591   0.010  0.00  0.00    +0.046 A 
ATOM     23  C   UNL     1       1.170   2.209   0.003  0.00  0.00    +0.008 A 
BRANCH  21  24
ATOM     24  O   UNL     1      -0.074   5.628   0.032  0.00  0.00    -0.495 OA
ATOM     25  C   UNL     1      -1.356   6.259   0.047  0.00  0.00    +0.277 C 
ENDBRANCH  21  24
ENDBRANCH   7  18
BRANCH   9  26
ATOM     26  N   UNL     1      -2.552  -1.530  -2.279  0.00  0.00    -0.328 N 
ATOM     27  H   UNL     1      -3.424  -1.952  -2.247  0.00  0.00    +0.145 HD
ATOM     28  H   UNL     1      -2.101  -1.410  -3.129  0.00  0.00    +0.145 HD
ENDBRANCH   9  26
BRANCH   8  29
ATOM     29  C   UNL     1      -0.133  -0.378  -2.497  0.00  0.00    +0.101 C 
ATOM     30  N   UNL     1       0.348  -0.268  -3.521  0.00  0.00    -0.191 NA
ENDBRANCH   8  29
TORSDOF 5
