REMARK  Name = ZINC08773273
REMARK  5 active torsions:
REMARK  status: ('A' for Active; 'I' for Inactive)
REMARK    1  A    between atoms: C_10  and  C_11
REMARK    2  A    between atoms: C_18  and  N_32
REMARK    3  A    between atoms: C_19  and  C_30
REMARK    4  A    between atoms: C_20  and  C_22
REMARK    5  A    between atoms: C_27  and  O_28
REMARK                            x       y       z     vdW  Elec       q    Type
REMARK                         _______ _______ _______ _____ _____    ______ ____
ROOT
ATOM      1  C   UNL     1       5.336   0.380  -0.230  0.00  0.00    +0.101 A 
ATOM      2  C   UNL     1       6.499  -0.371  -0.028  0.00  0.00    +0.054 A 
ATOM      3  C   UNL     1       7.558   0.489  -0.006  0.00  0.00    +0.223 A 
ATOM      4  N   UNL     1       7.079   1.737  -0.190  0.00  0.00    -0.246 N 
ATOM      5  H   UNL     1       7.606   2.551  -0.221  0.00  0.00    +0.192 HD
ATOM      6  N   UNL     1       5.686   1.650  -0.333  0.00  0.00    -0.171 NA
ATOM      7  O   UNL     1       8.836   0.071   0.175  0.00  0.00    -0.423 OA
ATOM      8  C   UNL     1       9.025  -1.191   0.611  0.00  0.00    +0.200 C 
ATOM      9  C   UNL     1       8.057  -2.134   0.625  0.00  0.00    +0.098 C 
ATOM     10  C   UNL     1       6.654  -1.859   0.144  0.00  0.00    +0.105 C 
ENDROOT
BRANCH   1  20
ATOM     11  C   UNL     1       1.409   0.951  -3.454  0.00  0.00    +0.001 A 
ATOM     12  C   UNL     1       2.702   1.466  -3.390  0.00  0.00    +0.001 A 
ATOM     13  C   UNL     1       3.545   1.118  -2.378  0.00  0.00    +0.009 A 
ATOM     14  C   UNL     1       3.109   0.229  -1.385  0.00  0.00    -0.009 A 
ATOM     15  C   UNL     1       1.795  -0.296  -1.449  0.00  0.00    -0.017 A 
ATOM     16  C   UNL     1       0.953   0.086  -2.508  0.00  0.00    +0.008 A 
ATOM     17  C   UNL     1       1.356  -1.186  -0.454  0.00  0.00    +0.008 A 
ATOM     18  C   UNL     1       2.192  -1.539   0.563  0.00  0.00    +0.001 A 
ATOM     19  C   UNL     1       3.484  -1.033   0.639  0.00  0.00    +0.011 A 
ATOM     20  C   UNL     1       3.957  -0.154  -0.319  0.00  0.00    +0.010 A 
ENDBRANCH   1  20
BRANCH  10  21
ATOM     21  C   UNL     1       6.425  -2.551  -1.175  0.00  0.00    +0.008 A 
ATOM     22  C   UNL     1       7.150  -2.172  -2.289  0.00  0.00    +0.023 A 
ATOM     23  C   UNL     1       6.940  -2.806  -3.500  0.00  0.00    +0.018 A 
ATOM     24  C   UNL     1       6.004  -3.821  -3.599  0.00  0.00    +0.019 A 
ATOM     25  C   UNL     1       5.278  -4.202  -2.488  0.00  0.00    +0.047 A 
ATOM     26  C   UNL     1       5.491  -3.571  -1.271  0.00  0.00    +0.121 A 
ATOM     27 BR   UNL     1       7.933  -2.285  -5.023  0.00  0.00    -0.050 Br
BRANCH  26  28
ATOM     28  O   UNL     1       4.781  -3.949  -0.176  0.00  0.00    -0.506 OA
ATOM     29  H   UNL     1       3.915  -3.524  -0.103  0.00  0.00    +0.292 HD
ENDBRANCH  26  28
ENDBRANCH  10  21
BRANCH   8  30
ATOM     30  N   UNL     1      10.273  -1.538   1.066  0.00  0.00    -0.328 N 
ATOM     31  H   UNL     1      10.988  -0.882   1.067  0.00  0.00    +0.145 HD
ATOM     32  H   UNL     1      10.440  -2.438   1.385  0.00  0.00    +0.145 HD
ENDBRANCH   8  30
BRANCH   9  33
ATOM     33  C   UNL     1       8.375  -3.441   1.115  0.00  0.00    +0.101 C 
ATOM     34  N   UNL     1       8.628  -4.479   1.504  0.00  0.00    -0.191 NA
ENDBRANCH   9  33
TORSDOF 5
