REMARK  Name = ZINC49212525
REMARK  9 active torsions:
REMARK  status: ('A' for Active; 'I' for Inactive)
REMARK    1  A    between atoms: C_1  and  C_2
REMARK    2  A    between atoms: C_3  and  C_19
REMARK    3  A    between atoms: N_10  and  C_11
REMARK    4  A    between atoms: N_10  and  C_12
REMARK    5  A    between atoms: C_12  and  C_14
REMARK    6  A    between atoms: C_12  and  C_15
REMARK    7  A    between atoms: C_15  and  C_16
REMARK    8  A    between atoms: C_15  and  C_17
REMARK    9  A    between atoms: C_15  and  C_18
REMARK                            x       y       z     vdW  Elec       q    Type
REMARK                         _______ _______ _______ _____ _____    ______ ____
ROOT
ATOM      1  C   UNL     1       1.483   1.255  -0.206  0.00  0.00    +0.069 C 
ATOM      2  C   UNL     1       0.588   0.051  -0.058  0.00  0.00    +0.081 A 
ATOM      3  C   UNL     1      -0.220  -0.454  -1.003  0.00  0.00    +0.127 A 
ATOM      4  O   UNL     1      -0.842  -1.526  -0.466  0.00  0.00    -0.429 OA
ATOM      5  C   UNL     1      -0.408  -1.660   0.797  0.00  0.00    +0.295 A 
ATOM      6  N   UNL     1       0.461  -0.712   1.044  0.00  0.00    -0.200 NA
ATOM      7  N   UNL     1      -0.808  -2.643   1.689  0.00  0.00    -0.223 N 
ATOM      8  C   UNL     1      -0.295  -2.671   2.936  0.00  0.00    +0.310 C 
ATOM      9  O   UNL     1       0.517  -1.833   3.277  0.00  0.00    -0.252 OA
ATOM     10  N   UNL     1      -0.684  -3.626   3.803  0.00  0.00    -0.285 N 
ATOM     11  C   UNL     1      -1.728  -4.580   3.422  0.00  0.00    +0.134 C 
ATOM     12  C   UNL     1      -0.399   0.075  -2.402  0.00  0.00    +0.088 C 
ATOM     13  H   UNL     1      -1.456  -3.311   1.417  0.00  0.00    +0.161 HD
ENDROOT
BRANCH  10  14
ATOM     14  C   UNL     1      -0.062  -3.710   5.127  0.00  0.00    +0.080 C 
ATOM     15  C   UNL     1       0.032  -2.310   5.736  0.00  0.00    +0.028 C 
BRANCH  14  16
ATOM     16  C   UNL     1       1.341  -4.305   4.994  0.00  0.00    -0.019 C 
ATOM     17  C   UNL     1       2.142  -3.499   3.969  0.00  0.00    +0.012 C 
ATOM     18  C   UNL     1       2.049  -4.250   6.350  0.00  0.00    +0.012 C 
ATOM     19  C   UNL     1       1.238  -5.759   4.531  0.00  0.00    +0.012 C 
ENDBRANCH  14  16
ENDBRANCH  10  14
TORSDOF 2
