REMARK  Name = ZINC03204642
REMARK  6 active torsions:
REMARK  status: ('A' for Active; 'I' for Inactive)
REMARK    1  A    between atoms: C_1  and  C_2
REMARK    2  A    between atoms: C_4  and  O_23
REMARK    3  A    between atoms: C_5  and  C_20
REMARK    4  A    between atoms: C_7  and  N_8
REMARK    5  A    between atoms: C_20  and  C_21
REMARK    6  A    between atoms: C_20  and  C_22
REMARK                            x       y       z     vdW  Elec       q    Type
REMARK                         _______ _______ _______ _____ _____    ______ ____
ROOT
ATOM      1  C   UNL     1      -0.815   7.364   1.298  0.00  0.00    +0.046 C 
ATOM      2  C   UNL     1      -0.794   5.858   1.290  0.00  0.00    -0.025 A 
ATOM      3  C   UNL     1      -1.980   5.150   1.297  0.00  0.00    +0.051 A 
ATOM      4  C   UNL     1      -1.960   3.763   1.284  0.00  0.00    +0.121 A 
ATOM      5  C   UNL     1      -0.749   3.086   1.275  0.00  0.00    -0.002 A 
ATOM      6  C   UNL     1       0.437   3.792   1.268  0.00  0.00    +0.031 A 
ATOM      7  C   UNL     1       0.418   5.181   1.275  0.00  0.00    +0.048 A 
ENDROOT
BRANCH   7   8
ATOM      8  N   UNL     1       1.623   5.899   1.268  0.00  0.00    -0.202 N 
ATOM      9  C   UNL     1       2.284   6.288   2.373  0.00  0.00    +0.258 C 
ATOM     10  O   UNL     1       1.937   6.077   3.517  0.00  0.00    -0.269 OA
ATOM     11  C   UNL     1       3.504   7.014   1.962  0.00  0.00    +0.050 A 
ATOM     12  C   UNL     1       4.543   7.625   2.645  0.00  0.00    +0.015 A 
ATOM     13  C   UNL     1       5.563   8.241   1.938  0.00  0.00    +0.016 A 
ATOM     14  C   UNL     1       5.551   8.249   0.554  0.00  0.00    +0.019 A 
ATOM     15  C   UNL     1       4.518   7.640  -0.143  0.00  0.00    +0.029 A 
ATOM     16  C   UNL     1       3.492   7.021   0.552  0.00  0.00    +0.051 A 
ATOM     17  C   UNL     1       2.267   6.294   0.154  0.00  0.00    +0.258 C 
ATOM     18  O   UNL     1       1.903   6.089  -0.986  0.00  0.00    -0.269 OA
ATOM     19 BR   UNL     1       6.953   9.094  -0.392  0.00  0.00    -0.050 Br
ENDBRANCH   7   8
BRANCH   5  20
ATOM     20  C   UNL     1      -0.729   1.579   1.267  0.00  0.00    +0.016 C 
ATOM     21  C   UNL     1      -0.013   1.086   0.008  0.00  0.00    +0.012 C 
ATOM     22  C   UNL     1       0.011   1.072   2.506  0.00  0.00    +0.012 C 
ENDBRANCH   5  20
BRANCH   4  23
ATOM     23  O   UNL     1      -3.128   3.067   1.287  0.00  0.00    -0.506 OA
ATOM     24  H   UNL     1      -3.462   2.861   2.171  0.00  0.00    +0.292 HD
ENDBRANCH   4  23
TORSDOF 3
