REMARK  Name = ZINC12272197
REMARK  9 active torsions:
REMARK  status: ('A' for Active; 'I' for Inactive)
REMARK    1  A    between atoms: C_1  and  C_2
REMARK    2  A    between atoms: C_3  and  C_13
REMARK    3  A    between atoms: C_4  and  C_12
REMARK    4  A    between atoms: C_9  and  C_10
REMARK    5  A    between atoms: C_13  and  C_14
REMARK    6  A    between atoms: C_14  and  C_15
REMARK    7  A    between atoms: N_17  and  C_18
REMARK    8  A    between atoms: C_18  and  C_20
REMARK    9  A    between atoms: C_18  and  C_26
REMARK                            x       y       z     vdW  Elec       q    Type
REMARK                         _______ _______ _______ _____ _____    ______ ____
ROOT
ATOM      1  C   UNL     1       4.171   5.318   1.429  0.00  0.00    +0.214 C 
ATOM      2  O   UNL     1       4.625   5.725   0.380  0.00  0.00    -0.276 OA
ATOM      3  N   UNL     1       4.806   5.586   2.587  0.00  0.00    -0.304 N 
ATOM      4  H   UNL     1       4.442   5.261   3.426  0.00  0.00    +0.150 HD
ENDROOT
BRANCH   1   5
ATOM      5  C   UNL     1       2.898   4.512   1.436  0.00  0.00    +0.100 C 
BRANCH   5   6
ATOM      6  C   UNL     1       2.387   4.353   0.003  0.00  0.00    +0.046 C 
BRANCH   6   9
ATOM      7  C   UNL     1       2.501   1.442  -0.013  0.00  0.00    +0.045 C 
ATOM      8  C   UNL     1       1.172   2.153   0.002  0.00  0.00    -0.023 A 
ATOM      9  C   UNL     1       1.113   3.547   0.010  0.00  0.00    -0.024 A 
ATOM     10  C   UNL     1      -0.087   4.178   0.024  0.00  0.00    +0.019 A 
ATOM     11  N   UNL     1      -1.248   3.480   0.032  0.00  0.00    -0.325 N 
ATOM     12  H   UNL     1      -2.093   3.957   0.042  0.00  0.00    +0.169 HD
ATOM     13  C   UNL     1      -1.249   2.133   0.019  0.00  0.00    +0.267 A 
ATOM     14  O   UNL     1      -2.304   1.522   0.021  0.00  0.00    -0.266 OA
ATOM     15  C   UNL     1      -0.017   1.428   0.010  0.00  0.00    +0.119 A 
ATOM     16  C   UNL     1      -0.131   5.685   0.033  0.00  0.00    +0.063 C 
BRANCH  15  17
ATOM     17  C   UNL     1       0.002  -0.004   0.002  0.00  0.00    +0.105 C 
ATOM     18  N   UNL     1       0.018  -1.140  -0.004  0.00  0.00    -0.191 NA
ENDBRANCH  15  17
ENDBRANCH   6   9
ENDBRANCH   5   6
ENDBRANCH   1   5
BRANCH   3  19
ATOM     19  C   UNL     1       6.043   6.370   2.580  0.00  0.00    +0.140 C 
BRANCH  19  20
ATOM     20  C   UNL     1       6.220   7.042   3.917  0.00  0.00    -0.022 A 
ATOM     21  C   UNL     1       5.901   6.365   5.079  0.00  0.00    +0.006 A 
ATOM     22  C   UNL     1       6.067   6.980   6.306  0.00  0.00    +0.000 A 
ATOM     23  C   UNL     1       6.543   8.276   6.370  0.00  0.00    +0.000 A 
ATOM     24  C   UNL     1       6.858   8.955   5.208  0.00  0.00    +0.000 A 
ATOM     25  C   UNL     1       6.696   8.338   3.981  0.00  0.00    +0.006 A 
ENDBRANCH  19  20
BRANCH  19  26
ATOM     26  C   UNL     1       7.214   5.457   2.318  0.00  0.00    +0.014 A 
ATOM     27  C   UNL     1       8.307   5.671   1.545  0.00  0.00    +0.013 A 
ATOM     28  C   UNL     1       9.268   4.681   1.455  0.00  0.00    +0.008 A 
ATOM     29  C   UNL     1       9.083   3.522   2.132  0.00  0.00    +0.045 A 
ATOM     30  S   UNL     1       7.517   3.811   2.939  0.00  0.00    -0.099 S 
ENDBRANCH  19  26
ENDBRANCH   3  19
TORSDOF 7
