REMARK  Name = ZINC63069385
REMARK  8 active torsions:
REMARK  status: ('A' for Active; 'I' for Inactive)
REMARK    1  A    between atoms: C_7  and  C_10
REMARK    2  A    between atoms: C_10  and  C_11
REMARK    3  A    between atoms: C_11  and  C_13
REMARK    4  A    between atoms: C_11  and  N_28
REMARK    5  A    between atoms: N_15  and  C_16
REMARK    6  A    between atoms: C_16  and  C_17
REMARK    7  A    between atoms: N_19  and  C_20
REMARK    8  A    between atoms: C_29  and  C_31
REMARK                            x       y       z     vdW  Elec       q    Type
REMARK                         _______ _______ _______ _____ _____    ______ ____
ROOT
ATOM      1  C   UNL     1       0.457  -3.654  -1.467  0.00  0.00    +0.163 C 
ENDROOT
BRANCH   1   2
ATOM      2  C   UNL     1      -0.578  -4.750  -1.481  0.00  0.00    +0.234 C 
ATOM      3  O   UNL     1      -0.232  -5.909  -1.567  0.00  0.00    -0.274 OA
ATOM      4  N   UNL     1      -1.887  -4.441  -1.397  0.00  0.00    -0.305 N 
ATOM      5  H   UNL     1      -2.164  -3.514  -1.328  0.00  0.00    +0.149 HD
BRANCH   4   6
ATOM      6  C   UNL     1      -2.893  -5.506  -1.410  0.00  0.00    +0.200 C 
BRANCH   6   7
ATOM      7  C   UNL     1      -4.269  -4.900  -1.306  0.00  0.00    +0.234 C 
ATOM      8  O   UNL     1      -4.396  -3.696  -1.228  0.00  0.00    -0.274 OA
ATOM      9  N   UNL     1      -5.357  -5.695  -1.299  0.00  0.00    -0.284 N 
ATOM     10  H   UNL     1      -5.260  -6.651  -1.428  0.00  0.00    +0.155 HD
BRANCH   9  11
ATOM     11  C   UNL     1      -6.628  -5.140  -1.105  0.00  0.00    +0.036 A 
ATOM     12  C   UNL     1      -7.592  -5.843  -0.394  0.00  0.00    +0.026 A 
ATOM     13  C   UNL     1      -8.845  -5.296  -0.203  0.00  0.00    +0.043 A 
ATOM     14  C   UNL     1      -9.142  -4.046  -0.719  0.00  0.00    +0.159 A 
ATOM     15  C   UNL     1      -8.182  -3.342  -1.429  0.00  0.00    +0.160 A 
ATOM     16  C   UNL     1      -6.924  -3.885  -1.618  0.00  0.00    +0.064 A 
ATOM     17  F   UNL     1      -8.473  -2.122  -1.933  0.00  0.00    -0.202 F 
ATOM     18  F   UNL     1     -10.369  -3.513  -0.531  0.00  0.00    -0.202 F 
ENDBRANCH   9  11
ENDBRANCH   6   7
ENDBRANCH   4   6
ENDBRANCH   1   2
BRANCH   1  19
ATOM     19  N   UNL     1       1.710  -4.158  -2.033  0.00  0.00    -0.299 N 
ATOM     20  C   UNL     1       2.336  -5.204  -1.458  0.00  0.00    +0.251 C 
ATOM     21  O   UNL     1       1.860  -5.730  -0.469  0.00  0.00    -0.270 OA
ATOM     22  H   UNL     1       2.089  -3.740  -2.822  0.00  0.00    +0.150 HD
BRANCH  20  23
ATOM     23  C   UNL     1       3.590  -5.709  -2.025  0.00  0.00    +0.074 A 
ATOM     24  C   UNL     1       4.381  -6.764  -1.596  0.00  0.00    +0.021 A 
ATOM     25  C   UNL     1       5.512  -7.003  -2.338  0.00  0.00    +0.008 A 
ATOM     26  C   UNL     1       5.775  -6.216  -3.410  0.00  0.00    +0.046 A 
ATOM     27  S   UNL     1       4.492  -5.132  -3.450  0.00  0.00    -0.092 S 
ENDBRANCH  20  23
ENDBRANCH   1  19
BRANCH   1  28
ATOM     28  C   UNL     1       0.695  -3.196  -0.027  0.00  0.00    +0.065 C 
BRANCH  28  35
ATOM     29  C   UNL     1      -0.010   1.338   0.039  0.00  0.00    +0.001 A 
ATOM     30  C   UNL     1       1.172   2.091   0.033  0.00  0.00    +0.002 A 
ATOM     31  C   UNL     1       2.397   1.525   0.011  0.00  0.00    +0.026 A 
ATOM     32  C   UNL     1       2.534   0.109  -0.009  0.00  0.00    +0.043 A 
ATOM     33  N   UNL     1       3.592  -0.665  -0.032  0.00  0.00    -0.380 N 
ATOM     34  C   UNL     1       3.148  -2.063  -0.044  0.00  0.00    +0.144 C 
ATOM     35  C   UNL     1       1.637  -2.019  -0.024  0.00  0.00    -0.039 C 
ATOM     36  C   UNL     1       1.301  -0.709  -0.003  0.00  0.00    -0.001 A 
ATOM     37  C   UNL     1       0.008  -0.014   0.023  0.00  0.00    +0.010 A 
ATOM     38  H   UNL     1       4.514  -0.364  -0.041  0.00  0.00    +0.160 HD
ENDBRANCH  28  35
ENDBRANCH   1  28
TORSDOF 8
