REMARK  Name = ZINC35745437
REMARK  4 active torsions:
REMARK  status: ('A' for Active; 'I' for Inactive)
REMARK    1  A    between atoms: C_1  and  C_2
REMARK    2  A    between atoms: N_8  and  C_9
REMARK    3  A    between atoms: C_9  and  C_10
REMARK    4  A    between atoms: C_16  and  C_21
REMARK                            x       y       z     vdW  Elec       q    Type
REMARK                         _______ _______ _______ _____ _____    ______ ____
ROOT
ATOM      1  C   UNL     1       2.754  -0.315   2.498  0.00  0.00    +0.094 A 
ATOM      2  N   UNL     1       4.020   0.113   2.736  0.00  0.00    -0.312 N 
ATOM      3  H   UNL     1       4.465   0.670   2.078  0.00  0.00    +0.170 HD
ATOM      4  C   UNL     1       4.670  -0.220   3.867  0.00  0.00    +0.260 A 
ATOM      5  O   UNL     1       5.807   0.173   4.066  0.00  0.00    -0.267 OA
ATOM      6  C   UNL     1       4.006  -1.042   4.832  0.00  0.00    +0.080 A 
ATOM      7  C   UNL     1       4.491  -1.531   6.117  0.00  0.00    +0.004 A 
ATOM      8  C   UNL     1       3.673  -2.304   6.871  0.00  0.00    +0.056 A 
ATOM      9  S   UNL     1       2.191  -2.419   5.887  0.00  0.00    -0.076 S 
ATOM     10  C   UNL     1       2.700  -1.436   4.500  0.00  0.00    +0.116 A 
ATOM     11  N   UNL     1       2.120  -1.062   3.362  0.00  0.00    -0.229 NA
ENDROOT
BRANCH   7  12
ATOM     12  C   UNL     1       5.854  -1.190   6.590  0.00  0.00    -0.013 A 
ATOM     13  C   UNL     1       6.951  -1.371   5.749  0.00  0.00    +0.012 A 
ATOM     14  C   UNL     1       8.219  -1.053   6.189  0.00  0.00    +0.050 A 
ATOM     15  C   UNL     1       8.408  -0.551   7.468  0.00  0.00    +0.166 A 
ATOM     16  C   UNL     1       7.315  -0.367   8.313  0.00  0.00    +0.167 A 
ATOM     17  C   UNL     1       6.041  -0.681   7.874  0.00  0.00    +0.058 A 
ATOM     18  O   UNL     1       7.763   0.132   9.503  0.00  0.00    -0.453 OA
ATOM     19  C   UNL     1       9.178  -0.133   9.523  0.00  0.00    +0.466 C 
ATOM     20  O   UNL     1       9.539  -0.166   8.129  0.00  0.00    -0.453 OA
ENDBRANCH   7  12
BRANCH   1  21
ATOM     21  C   UNL     1       2.066   0.083   1.218  0.00  0.00    -0.003 C 
BRANCH  21  28
ATOM     22  C   UNL     1      -0.019   1.526   0.010  0.00  0.00    -0.013 C 
ATOM     23  C   UNL     1       0.002  -0.004   0.002  0.00  0.00    -0.071 C 
ATOM     24  C   UNL     1      -1.434  -0.533   0.011  0.00  0.00    -0.016 C 
ATOM     25  C   UNL     1      -1.408  -2.064   0.003  0.00  0.00    -0.003 C 
ATOM     26  C   UNL     1      -0.600  -2.558   1.206  0.00  0.00    -0.019 C 
ATOM     27  C   UNL     1       0.805  -1.954   1.152  0.00  0.00    -0.078 C 
ATOM     28  N   UNL     1       0.713  -0.490   1.191  0.00  0.00    +0.386 N 
ATOM     29  H   UNL     1       0.213  -0.206   2.020  0.00  0.00    -0.081 HD
ENDBRANCH  21  28
ENDBRANCH   1  21
TORSDOF 3
