REMARK  Name = ZINC39939621
REMARK  8 active torsions:
REMARK  status: ('A' for Active; 'I' for Inactive)
REMARK    1  A    between atoms: C_1  and  C_2
REMARK    2  A    between atoms: C_2  and  C_4
REMARK    3  A    between atoms: C_2  and  S_15
REMARK    4  A    between atoms: C_4  and  C_6
REMARK    5  A    between atoms: S_15  and  C_16
REMARK    6  A    between atoms: C_20  and  C_22
REMARK    7  A    between atoms: C_26  and  S_28
REMARK    8  A    between atoms: S_28  and  N_31
REMARK                            x       y       z     vdW  Elec       q    Type
REMARK                         _______ _______ _______ _____ _____    ______ ____
ROOT
ATOM      1  C   UNL     1      -0.166  -0.072   2.855  0.00  0.00    +0.340 C 
ATOM      2  N   UNL     1      -0.337   1.392   2.838  0.00  0.00    -0.219 N 
ATOM      3  N   UNL     1      -1.714   1.604   2.683  0.00  0.00    -0.145 NA
ATOM      4  C   UNL     1      -2.338   0.474   2.612  0.00  0.00    +0.240 C 
ATOM      5  O   UNL     1      -1.497  -0.587   2.707  0.00  0.00    -0.442 OA
ATOM      6  H   UNL     1       0.356   2.065   2.917  0.00  0.00    +0.173 HD
ENDROOT
BRANCH   4   7
ATOM      7  C   UNL     1      -3.801   0.351   2.448  0.00  0.00    +0.040 A 
ATOM      8  C   UNL     1      -4.396  -0.910   2.386  0.00  0.00    +0.013 A 
ATOM      9  C   UNL     1      -5.763  -1.018   2.234  0.00  0.00    +0.003 A 
ATOM     10  C   UNL     1      -6.544   0.121   2.142  0.00  0.00    +0.028 A 
ATOM     11  C   UNL     1      -5.960   1.374   2.202  0.00  0.00    +0.106 A 
ATOM     12  C   UNL     1      -4.595   1.496   2.361  0.00  0.00    +0.041 A 
BRANCH  11  13
ATOM     13  S   UNL     1      -6.964   2.817   2.084  0.00  0.00    +0.061 S 
ATOM     14  O   UNL     1      -6.120   3.862   1.621  0.00  0.00    -0.153 OA
ATOM     15  O   UNL     1      -8.148   2.433   1.398  0.00  0.00    -0.153 OA
BRANCH  13  16
ATOM     16  N   UNL     1      -7.420   3.224   3.623  0.00  0.00    -0.172 NA
ATOM     17  C   UNL     1      -8.652   2.682   4.217  0.00  0.00    +0.137 C 
ATOM     18  C   UNL     1      -8.310   2.098   5.593  0.00  0.00    +0.177 C 
ATOM     19  O   UNL     1      -7.615   3.083   6.362  0.00  0.00    -0.377 OA
ATOM     20  C   UNL     1      -6.362   3.484   5.803  0.00  0.00    +0.177 C 
ATOM     21  C   UNL     1      -6.601   4.134   4.440  0.00  0.00    +0.137 C 
ENDBRANCH  13  16
ENDBRANCH  11  13
ENDBRANCH   4   7
BRANCH   1  22
ATOM     22  S   UNL     1       0.879  -0.605   1.472  0.00  0.00    -0.085 S 
BRANCH  22  24
ATOM     23  C   UNL     1      -0.019   1.526   0.010  0.00  0.00    +0.027 C 
ATOM     24  C   UNL     1       0.002  -0.004   0.002  0.00  0.00    +0.119 C 
BRANCH  24  25
ATOM     25  C   UNL     1       0.707  -0.490  -1.238  0.00  0.00    +0.174 C 
ATOM     26  O   UNL     1       1.890  -0.763  -1.196  0.00  0.00    -0.291 OA
BRANCH  25  27
ATOM     27  C   UNL     1      -0.006  -0.628  -2.447  0.00  0.00    +0.024 C 
ATOM     28  C   UNL     1       0.486  -1.063  -3.664  0.00  0.00    +0.006 A 
ATOM     29  C   UNL     1       1.769  -1.486  -4.088  0.00  0.00    +0.010 A 
ATOM     30  C   UNL     1       1.972  -1.866  -5.369  0.00  0.00    +0.001 A 
ATOM     31  C   UNL     1       0.946  -1.863  -6.328  0.00  0.00    +0.002 A 
ATOM     32  C   UNL     1      -0.313  -1.478  -6.027  0.00  0.00    +0.026 A 
ATOM     33  C   UNL     1      -0.620  -1.048  -4.653  0.00  0.00    +0.043 A 
ATOM     34  N   UNL     1      -1.723  -0.635  -4.097  0.00  0.00    -0.380 N 
ATOM     35  C   UNL     1      -1.472  -0.337  -2.683  0.00  0.00    +0.152 C 
ATOM     36  H   UNL     1      -2.577  -0.542  -4.546  0.00  0.00    +0.160 HD
ENDBRANCH  25  27
ENDBRANCH  24  25
ENDBRANCH  22  24
ENDBRANCH   1  22
TORSDOF 7
