REMARK  Name = ZINC05581967
REMARK  8 active torsions:
REMARK  status: ('A' for Active; 'I' for Inactive)
REMARK    1  A    between atoms: C_1  and  C_2
REMARK    2  A    between atoms: C_2  and  C_3
REMARK    3  A    between atoms: C_6  and  S_9
REMARK    4  A    between atoms: N_7  and  N_8
REMARK    5  A    between atoms: S_9  and  C_10
REMARK    6  A    between atoms: C_10  and  C_12
REMARK    7  A    between atoms: C_10  and  C_13
REMARK    8  A    between atoms: N_15  and  C_16
REMARK                            x       y       z     vdW  Elec       q    Type
REMARK                         _______ _______ _______ _____ _____    ______ ____
ROOT
ATOM      1  C   UNL     1       2.424  -4.237  -0.258  0.00  0.00    +0.137 C 
ATOM      2  C   UNL     1       2.256  -4.862   1.128  0.00  0.00    +0.029 C 
ENDROOT
BRANCH   1   3
ATOM      3  C   UNL     1       2.409  -2.735  -0.137  0.00  0.00    +0.230 C 
ATOM      4  O   UNL     1       3.451  -2.116  -0.144  0.00  0.00    -0.274 OA
ATOM      5  N   UNL     1       1.237  -2.080  -0.020  0.00  0.00    -0.285 N 
ATOM      6  H   UNL     1       0.409  -2.579   0.062  0.00  0.00    +0.155 HD
BRANCH   5   7
ATOM      7  C   UNL     1       1.214  -0.681  -0.019  0.00  0.00    +0.033 A 
ATOM      8  C   UNL     1       2.137   0.031  -0.774  0.00  0.00    +0.024 A 
ATOM      9  C   UNL     1       2.112   1.411  -0.771  0.00  0.00    +0.017 A 
ATOM     10  C   UNL     1       1.169   2.086  -0.017  0.00  0.00    +0.018 A 
ATOM     11  C   UNL     1       0.248   1.380   0.737  0.00  0.00    +0.017 A 
ATOM     12  C   UNL     1       0.268  -0.001   0.738  0.00  0.00    +0.024 A 
ATOM     13 BR   UNL     1       1.139   3.977  -0.015  0.00  0.00    -0.050 Br
ENDBRANCH   5   7
ENDBRANCH   1   3
BRANCH   1  14
ATOM     14  S   UNL     1       3.999  -4.769  -0.973  0.00  0.00    -0.072 S 
BRANCH  14  18
ATOM     15  C   UNL     1       3.889  -8.622  -1.571  0.00  0.00    +0.151 A 
ATOM     16  N   UNL     1       2.713  -8.382  -1.064  0.00  0.00    -0.132 NA
ATOM     17  N   UNL     1       2.591  -7.129  -0.807  0.00  0.00    -0.121 NA
ATOM     18  C   UNL     1       3.692  -6.496  -1.139  0.00  0.00    +0.209 A 
ATOM     19  N   UNL     1       4.553  -7.429  -1.642  0.00  0.00    -0.228 N 
BRANCH  19  20
ATOM     20  N   UNL     1       5.816  -7.215  -2.116  0.00  0.00    -0.295 N 
ATOM     21  H   UNL     1       6.499  -7.303  -1.378  0.00  0.00    +0.163 HD
ATOM     22  H   UNL     1       6.027  -7.840  -2.880  0.00  0.00    +0.163 HD
ENDBRANCH  19  20
BRANCH  15  24
ATOM     23  C   UNL     1       4.071 -10.199  -3.476  0.00  0.00    +0.012 C 
ATOM     24  C   UNL     1       4.417  -9.966  -2.004  0.00  0.00    +0.074 C 
ENDBRANCH  15  24
ENDBRANCH  14  18
ENDBRANCH   1  14
TORSDOF 6
