REMARK  Name = ZINC39217301
REMARK  7 active torsions:
REMARK  status: ('A' for Active; 'I' for Inactive)
REMARK    1  A    between atoms: C_1  and  C_2
REMARK    2  A    between atoms: C_6  and  C_25
REMARK    3  A    between atoms: N_8  and  C_10
REMARK    4  A    between atoms: C_10  and  C_11
REMARK    5  A    between atoms: N_13  and  C_14
REMARK    6  A    between atoms: C_14  and  C_15
REMARK    7  A    between atoms: C_15  and  C_16
REMARK                            x       y       z     vdW  Elec       q    Type
REMARK                         _______ _______ _______ _____ _____    ______ ____
ROOT
ATOM      1  C   UNL     1       1.323  -2.256   3.475  0.00  0.00    +0.229 C 
ATOM      2  O   UNL     1       2.309  -2.015   2.812  0.00  0.00    -0.274 OA
ATOM      3  N   UNL     1       1.446  -2.550   4.784  0.00  0.00    -0.314 N 
ATOM      4  H   UNL     1       0.657  -2.743   5.314  0.00  0.00    +0.149 HD
ENDROOT
BRANCH   1   5
ATOM      5  C   UNL     1      -0.041  -2.228   2.834  0.00  0.00    +0.198 C 
BRANCH   5  10
ATOM      6  C   UNL     1      -0.019   1.526   0.010  0.00  0.00    +0.026 C 
ATOM      7  C   UNL     1       0.002  -0.004   0.002  0.00  0.00    +0.082 C 
ATOM      8  C   UNL     1      -1.437  -0.576   0.083  0.00  0.00    +0.093 C 
ATOM      9  C   UNL     1      -1.210  -1.964   0.723  0.00  0.00    +0.085 C 
ATOM     10  N   UNL     1       0.093  -1.885   1.411  0.00  0.00    -0.230 NA
ATOM     11  N   UNL     1       0.626  -0.532   1.244  0.00  0.00    -0.249 NA
ATOM     12  C   UNL     1      -2.322  -2.269   1.728  0.00  0.00    +0.027 C 
ATOM     13 BR   UNL     1      -2.572   0.549   1.228  0.00  0.00    -0.085 Br
ATOM     14  H   UNL     1       0.396   0.047   2.038  0.00  0.00    +0.141 HD
ENDBRANCH   5  10
ENDBRANCH   1   5
BRANCH   3  15
ATOM     15  C   UNL     1       2.771  -2.577   5.407  0.00  0.00    +0.112 C 
BRANCH  15  16
ATOM     16  C   UNL     1       2.631  -2.934   6.888  0.00  0.00    +0.093 C 
BRANCH  16  17
ATOM     17  C   UNL     1       3.995  -2.962   7.529  0.00  0.00    +0.110 A 
ATOM     18  N   UNL     1       5.000  -3.677   7.113  0.00  0.00    -0.232 NA
ATOM     19  C   UNL     1       6.074  -3.466   7.917  0.00  0.00    +0.089 A 
ATOM     20  C   UNL     1       7.380  -3.962   7.929  0.00  0.00    +0.030 A 
ATOM     21  C   UNL     1       8.256  -3.549   8.893  0.00  0.00    +0.002 A 
ATOM     22  C   UNL     1       7.862  -2.639   9.864  0.00  0.00    +0.002 A 
ATOM     23  C   UNL     1       6.578  -2.137   9.871  0.00  0.00    +0.028 A 
ATOM     24  C   UNL     1       5.675  -2.545   8.900  0.00  0.00    +0.066 A 
ATOM     25  N   UNL     1       4.356  -2.241   8.624  0.00  0.00    -0.342 N 
ATOM     26  H   UNL     1       3.792  -1.628   9.121  0.00  0.00    +0.167 HD
ENDBRANCH  16  17
ENDBRANCH  15  16
ENDBRANCH   3  15
TORSDOF 5
