REMARK  Name = ZINC55261200
REMARK  8 active torsions:
REMARK  status: ('A' for Active; 'I' for Inactive)
REMARK    1  A    between atoms: C_1  and  C_2
REMARK    2  A    between atoms: C_2  and  C_3
REMARK    3  A    between atoms: C_2  and  C_4
REMARK    4  A    between atoms: C_4  and  C_5
REMARK    5  A    between atoms: C_5  and  N_6
REMARK    6  A    between atoms: C_7  and  C_9
REMARK    7  A    between atoms: N_12  and  S_15
REMARK    8  A    between atoms: S_15  and  C_18
REMARK                            x       y       z     vdW  Elec       q    Type
REMARK                         _______ _______ _______ _____ _____    ______ ____
ROOT
ATOM      1  C   UNL     1      -4.435  -4.410  -0.207  0.00  0.00    +0.077 C 
ATOM      2  C   UNL     1      -5.211  -3.802  -1.377  0.00  0.00    +0.030 C 
ATOM      3  C   UNL     1      -6.657  -4.308  -1.343  0.00  0.00    +0.110 C 
ATOM      4  N   UNL     1      -6.644  -5.777  -1.325  0.00  0.00    -0.177 NA
ATOM      5  C   UNL     1      -5.853  -6.464  -0.295  0.00  0.00    +0.110 C 
ATOM      6  C   UNL     1      -4.417  -5.934  -0.341  0.00  0.00    +0.030 C 
ENDROOT
BRANCH   1   8
ATOM      7  N   UNL     1      -2.790  -2.565  -0.111  0.00  0.00    -0.315 N 
ATOM      8  C   UNL     1      -3.021  -3.888  -0.217  0.00  0.00    +0.216 C 
ATOM      9  O   UNL     1      -2.091  -4.660  -0.322  0.00  0.00    -0.276 OA
ATOM     10  H   UNL     1      -3.534  -1.948  -0.027  0.00  0.00    +0.149 HD
BRANCH   7  11
ATOM     11  C   UNL     1      -1.416  -2.058  -0.121  0.00  0.00    +0.104 C 
BRANCH  11  12
ATOM     12  C   UNL     1      -1.433  -0.534   0.013  0.00  0.00    +0.022 C 
BRANCH  12  14
ATOM     13  C   UNL     1      -0.019   1.526   0.010  0.00  0.00    +0.007 C 
ATOM     14  C   UNL     1       0.002  -0.004   0.002  0.00  0.00    -0.016 C 
ATOM     15  C   UNL     1       0.742  -0.511   1.242  0.00  0.00    +0.007 C 
ENDBRANCH  12  14
ENDBRANCH  11  12
ENDBRANCH   7  11
ENDBRANCH   1   8
BRANCH   4  16
ATOM     16  S   UNL     1      -7.505  -6.642  -2.445  0.00  0.00    +0.061 S 
ATOM     17  O   UNL     1      -7.756  -7.916  -1.868  0.00  0.00    -0.153 OA
ATOM     18  O   UNL     1      -8.548  -5.792  -2.900  0.00  0.00    -0.153 OA
BRANCH  16  19
ATOM     19  C   UNL     1      -6.440  -6.914  -3.822  0.00  0.00    +0.107 A 
ATOM     20  C   UNL     1      -6.401  -5.996  -4.856  0.00  0.00    +0.032 A 
ATOM     21  C   UNL     1      -5.568  -6.202  -5.940  0.00  0.00    +0.049 A 
ATOM     22  C   UNL     1      -4.771  -7.332  -5.992  0.00  0.00    +0.142 A 
ATOM     23  C   UNL     1      -4.811  -8.258  -4.951  0.00  0.00    +0.078 A 
ATOM     24  C   UNL     1      -5.643  -8.043  -3.865  0.00  0.00    +0.055 A 
ATOM     25  N   UNL     1      -4.000  -9.400  -5.017  0.00  0.00    -0.280 N 
ATOM     26  C   UNL     1      -2.983  -9.430  -5.906  0.00  0.00    +0.255 C 
ATOM     27  O   UNL     1      -2.288 -10.420  -6.003  0.00  0.00    -0.272 OA
ATOM     28  C   UNL     1      -2.716  -8.230  -6.778  0.00  0.00    +0.325 C 
ATOM     29  O   UNL     1      -3.945  -7.551  -7.050  0.00  0.00    -0.481 OA
ATOM     30  H   UNL     1      -4.166 -10.157  -4.433  0.00  0.00    +0.155 HD
ENDBRANCH  16  19
ENDBRANCH   4  16
TORSDOF 6
