REMARK  Name = ZINC09470733
REMARK  5 active torsions:
REMARK  status: ('A' for Active; 'I' for Inactive)
REMARK    1  A    between atoms: C_1  and  C_2
REMARK    2  A    between atoms: C_2  and  C_20
REMARK    3  A    between atoms: N_12  and  C_13
REMARK    4  A    between atoms: C_13  and  C_14
REMARK    5  A    between atoms: C_24  and  N_26
REMARK                            x       y       z     vdW  Elec       q    Type
REMARK                         _______ _______ _______ _____ _____    ______ ____
ROOT
ATOM      1  C   UNL     1      -2.075   6.298  -0.695  0.00  0.00    +0.059 C 
ATOM      2  C   UNL     1      -2.413   5.450  -1.923  0.00  0.00    +0.125 C 
ATOM      3  N   UNL     1      -3.321   6.199  -2.795  0.00  0.00    -0.319 N 
ATOM      4  C   UNL     1      -4.031   5.512  -3.773  0.00  0.00    +0.041 A 
ATOM      5  C   UNL     1      -4.432   6.126  -4.948  0.00  0.00    +0.024 A 
ATOM      6  C   UNL     1      -5.149   5.407  -5.886  0.00  0.00    +0.002 A 
ATOM      7  C   UNL     1      -5.468   4.077  -5.660  0.00  0.00    +0.001 A 
ATOM      8  C   UNL     1      -5.072   3.450  -4.497  0.00  0.00    +0.015 A 
ATOM      9  C   UNL     1      -4.347   4.162  -3.544  0.00  0.00    +0.058 A 
ATOM     10  C   UNL     1      -3.894   3.534  -2.290  0.00  0.00    +0.251 C 
ATOM     11  O   UNL     1      -4.291   2.427  -1.980  0.00  0.00    -0.270 OA
ATOM     12  N   UNL     1      -3.036   4.198  -1.490  0.00  0.00    -0.268 N 
ATOM     13  H   UNL     1      -3.426   7.157  -2.689  0.00  0.00    +0.148 HD
ENDROOT
BRANCH   2  14
ATOM     14  C   UNL     1      -1.145   5.141  -2.677  0.00  0.00    -0.004 A 
ATOM     15  C   UNL     1      -0.160   6.104  -2.795  0.00  0.00    +0.007 A 
ATOM     16  C   UNL     1       1.005   5.824  -3.485  0.00  0.00    +0.002 A 
ATOM     17  C   UNL     1       1.187   4.582  -4.060  0.00  0.00    +0.028 A 
ATOM     18  C   UNL     1       0.200   3.613  -3.944  0.00  0.00    +0.069 A 
ATOM     19  C   UNL     1      -0.967   3.895  -3.245  0.00  0.00    +0.035 A 
BRANCH  18  20
ATOM     20  N   UNL     1       0.382   2.351  -4.527  0.00  0.00    -0.200 N 
ATOM     21  C   UNL     1       1.485   1.888  -5.153  0.00  0.00    +0.250 A 
ATOM     22  N   UNL     1       1.228   0.666  -5.541  0.00  0.00    -0.116 NA
ATOM     23  N   UNL     1       0.034   0.328  -5.210  0.00  0.00    -0.023 NA
ATOM     24  N   UNL     1      -0.547   1.297  -4.589  0.00  0.00    -0.039 NA
ENDBRANCH  18  20
ENDBRANCH   2  14
BRANCH  12  25
ATOM     25  C   UNL     1      -2.727   3.662  -0.163  0.00  0.00    +0.145 C 
BRANCH  25  26
ATOM     26  C   UNL     1      -1.517   2.768  -0.252  0.00  0.00    -0.030 A 
ATOM     27  C   UNL     1      -1.666   1.431  -0.571  0.00  0.00    +0.005 A 
ATOM     28  C   UNL     1      -0.556   0.611  -0.647  0.00  0.00    +0.000 A 
ATOM     29  C   UNL     1       0.704   1.129  -0.414  0.00  0.00    +0.000 A 
ATOM     30  C   UNL     1       0.854   2.467  -0.099  0.00  0.00    +0.000 A 
ATOM     31  C   UNL     1      -0.257   3.286  -0.018  0.00  0.00    +0.005 A 
ENDBRANCH  25  26
ENDBRANCH  12  25
TORSDOF 4
