REMARK  Name = ZINC01085375
REMARK  6 active torsions:
REMARK  status: ('A' for Active; 'I' for Inactive)
REMARK    1  A    between atoms: C_1  and  C_2
REMARK    2  A    between atoms: N_4  and  S_5
REMARK    3  A    between atoms: S_5  and  C_8
REMARK    4  A    between atoms: C_11  and  N_14
REMARK    5  A    between atoms: C_15  and  C_16
REMARK    6  A    between atoms: C_25  and  O_26
REMARK                            x       y       z     vdW  Elec       q    Type
REMARK                         _______ _______ _______ _____ _____    ______ ____
ROOT
ATOM      1  N   UNL     1      -0.007  -4.014  -6.773  0.00  0.00    -0.255 NA
ATOM      2  C   UNL     1       0.780  -3.432  -7.637  0.00  0.00    +0.123 C 
ENDROOT
BRANCH   2   3
ATOM      3  C   UNL     1       0.772  -3.858  -9.038  0.00  0.00    +0.042 A 
ATOM      4  C   UNL     1       1.652  -3.221 -10.019  0.00  0.00    -0.006 A 
ATOM      5  C   UNL     1       2.525  -2.189  -9.655  0.00  0.00    +0.009 A 
ATOM      6  C   UNL     1       3.329  -1.622 -10.599  0.00  0.00    +0.001 A 
ATOM      7  C   UNL     1       3.293  -2.055 -11.922  0.00  0.00    +0.001 A 
ATOM      8  C   UNL     1       2.455  -3.057 -12.309  0.00  0.00    +0.008 A 
ATOM      9  C   UNL     1       1.613  -3.664 -11.363  0.00  0.00    -0.017 A 
ATOM     10  C   UNL     1       0.736  -4.701 -11.727  0.00  0.00    +0.012 A 
ATOM     11  C   UNL     1      -0.075  -5.283 -10.805  0.00  0.00    +0.046 A 
ATOM     12  C   UNL     1      -0.071  -4.886  -9.468  0.00  0.00    +0.126 A 
BRANCH  12  13
ATOM     13  O   UNL     1      -0.893  -5.499  -8.580  0.00  0.00    -0.506 OA
ATOM     14  H   UNL     1      -1.763  -5.085  -8.499  0.00  0.00    +0.292 HD
ENDBRANCH  12  13
ENDBRANCH   2   3
BRANCH   1  18
ATOM     15  C   UNL     1       0.014  -2.811  -2.814  0.00  0.00    +0.113 A 
ATOM     16  C   UNL     1      -1.190  -3.022  -3.463  0.00  0.00    +0.031 A 
ATOM     17  C   UNL     1      -1.205  -3.423  -4.783  0.00  0.00    +0.029 A 
ATOM     18  C   UNL     1      -0.001  -3.616  -5.464  0.00  0.00    +0.064 A 
ATOM     19  C   UNL     1       1.211  -3.401  -4.802  0.00  0.00    +0.029 A 
ATOM     20  C   UNL     1       1.210  -2.995  -3.484  0.00  0.00    +0.031 A 
BRANCH  15  21
ATOM     21  S   UNL     1       0.023  -2.299  -1.128  0.00  0.00    +0.102 S 
ATOM     22  O   UNL     1       1.279  -2.691  -0.591  0.00  0.00    -0.146 OA
ATOM     23  O   UNL     1      -1.212  -2.725  -0.568  0.00  0.00    -0.146 OA
BRANCH  21  27
ATOM     24  C   UNL     1      -0.018   1.503   0.010  0.00  0.00    +0.116 C 
ATOM     25  C   UNL     1       0.002  -0.004   0.002  0.00  0.00    +0.262 C 
ATOM     26  O   UNL     1       0.022  -0.685   1.167  0.00  0.00    -0.270 OA
ATOM     27  N   UNL     1       0.000  -0.643  -1.119  0.00  0.00    -0.091 NA
ENDBRANCH  21  27
ENDBRANCH  15  21
ENDBRANCH   1  18
TORSDOF 5
