REMARK  Name = ZINC39694856
REMARK  6 active torsions:
REMARK  status: ('A' for Active; 'I' for Inactive)
REMARK    1  A    between atoms: C_1  and  C_2
REMARK    2  A    between atoms: C_4  and  C_36
REMARK    3  A    between atoms: C_6  and  C_8
REMARK    4  A    between atoms: C_8  and  N_9
REMARK    5  A    between atoms: C_10  and  C_12
REMARK    6  A    between atoms: C_23  and  C_25
REMARK                            x       y       z     vdW  Elec       q    Type
REMARK                         _______ _______ _______ _____ _____    ______ ____
ROOT
ATOM      1  C   UNL     1       3.127  -3.974   4.472  0.00  0.00    +0.100 C 
ATOM      2  C   UNL     1       3.823  -4.956   3.503  0.00  0.00    +0.121 C 
ATOM      3  N   UNL     1       4.693  -5.784   4.371  0.00  0.00    -0.297 N 
ATOM      4  C   UNL     1       3.883  -6.016   5.591  0.00  0.00    +0.115 C 
ATOM      5  C   UNL     1       3.168  -4.673   5.841  0.00  0.00    -0.004 C 
ATOM      6  C   UNL     1       3.957  -3.833   6.841  0.00  0.00    -0.010 C 
ATOM      7  C   UNL     1       3.936  -4.522   8.208  0.00  0.00    -0.082 C 
ATOM      8  N   UNL     1       2.547  -4.678   8.658  0.00  0.00    +0.379 N 
ATOM      9  C   UNL     1       1.820  -5.563   7.740  0.00  0.00    -0.082 C 
ATOM     10  C   UNL     1       1.752  -4.918   6.353  0.00  0.00    -0.010 C 
ATOM     11  C   UNL     1       5.939  -6.227   4.110  0.00  0.00    +0.260 C 
ATOM     12  O   UNL     1       6.527  -6.902   4.929  0.00  0.00    -0.271 OA
ATOM     13  H   UNL     1       2.538  -5.076   9.585  0.00  0.00    -0.086 HD
ATOM     14  H   UNL     1       2.098  -3.774   8.678  0.00  0.00    -0.086 HD
ENDROOT
BRANCH  11  15
ATOM     15  C   UNL     1       6.602  -5.883   2.801  0.00  0.00    +0.296 C 
ATOM     16  C   UNL     1       5.844  -6.550   1.646  0.00  0.00    +0.283 C 
ATOM     17  O   UNL     1       6.506  -6.215   0.422  0.00  0.00    -0.484 OA
ATOM     18  C   UNL     1       7.862  -6.335   0.408  0.00  0.00    +0.162 A 
ATOM     19  C   UNL     1       8.529  -6.384  -0.807  0.00  0.00    +0.049 A 
ATOM     20  C   UNL     1       9.905  -6.503  -0.838  0.00  0.00    +0.004 A 
ATOM     21  C   UNL     1      10.621  -6.574   0.342  0.00  0.00    +0.004 A 
ATOM     22  C   UNL     1       9.963  -6.528   1.557  0.00  0.00    +0.049 A 
ATOM     23  C   UNL     1       8.582  -6.410   1.594  0.00  0.00    +0.163 A 
ATOM     24  O   UNL     1       7.947  -6.373   2.798  0.00  0.00    -0.473 OA
ENDBRANCH  11  15
BRANCH   1  26
ATOM     25  N   UNL     1       1.096  -2.569   4.333  0.00  0.00    -0.311 N 
ATOM     26  C   UNL     1       1.701  -3.739   4.046  0.00  0.00    +0.218 C 
ATOM     27  O   UNL     1       1.098  -4.602   3.444  0.00  0.00    -0.275 OA
ATOM     28  H   UNL     1       1.578  -1.879   4.815  0.00  0.00    +0.149 HD
BRANCH  25  29
ATOM     29  C   UNL     1      -0.291  -2.341   3.919  0.00  0.00    +0.139 C 
BRANCH  29  35
ATOM     30  C   UNL     1      -2.353   0.660   7.352  0.00  0.00    +0.044 C 
ATOM     31  C   UNL     1      -1.714   0.469   6.001  0.00  0.00    -0.050 A 
ATOM     32  C   UNL     1      -1.527   1.554   5.165  0.00  0.00    +0.006 A 
ATOM     33  C   UNL     1      -0.941   1.379   3.925  0.00  0.00    -0.050 A 
ATOM     34  C   UNL     1      -0.541   0.118   3.522  0.00  0.00    +0.008 A 
ATOM     35  C   UNL     1      -0.727  -0.967   4.359  0.00  0.00    -0.030 A 
ATOM     36  C   UNL     1      -1.309  -0.790   5.600  0.00  0.00    +0.008 A 
ATOM     37  C   UNL     1      -0.739   2.561   3.013  0.00  0.00    +0.044 C 
ENDBRANCH  29  35
ENDBRANCH  25  29
ENDBRANCH   1  26
TORSDOF 4
