REMARK  Name = ZINC65090491
REMARK  4 active torsions:
REMARK  status: ('A' for Active; 'I' for Inactive)
REMARK    1  A    between atoms: C_6  and  N_7
REMARK    2  A    between atoms: C_8  and  C_10
REMARK    3  A    between atoms: C_10  and  N_11
REMARK    4  A    between atoms: C_14  and  C_19
REMARK                            x       y       z     vdW  Elec       q    Type
REMARK                         _______ _______ _______ _____ _____    ______ ____
ROOT
ATOM      1  N   UNL     1      -2.193  -4.261  -0.311  0.00  0.00    -0.223 N 
ATOM      2  C   UNL     1      -2.029  -4.778  -1.517  0.00  0.00    +0.238 C 
ATOM      3  O   UNL     1      -2.106  -4.109  -2.525  0.00  0.00    -0.274 OA
ATOM      4  C   UNL     1      -1.735  -6.271  -1.552  0.00  0.00    +0.164 C 
ATOM      5  S   UNL     1      -1.759  -6.638   0.252  0.00  0.00    -0.053 S 
ATOM      6  C   UNL     1      -2.107  -4.981   0.823  0.00  0.00    +0.282 C 
ATOM      7  O   UNL     1      -2.238  -4.594   1.968  0.00  0.00    -0.262 OA
ENDROOT
BRANCH   4   8
ATOM      8  C   UNL     1      -0.360  -6.554  -2.161  0.00  0.00    +0.164 C 
ATOM      9  C   UNL     1      -0.108  -8.050  -2.288  0.00  0.00    +0.235 C 
ATOM     10  O   UNL     1      -0.062  -8.784  -1.324  0.00  0.00    -0.274 OA
ATOM     11  N   UNL     1       0.059  -8.494  -3.522  0.00  0.00    -0.246 N 
ATOM     12  C   UNL     1       0.013  -7.701  -4.609  0.00  0.00    +0.279 C 
ATOM     13  O   UNL     1       0.153  -8.017  -5.774  0.00  0.00    -0.263 OA
ATOM     14  S   UNL     1      -0.302  -6.074  -3.938  0.00  0.00    -0.053 S 
ATOM     15  H   UNL     1       0.223  -9.442  -3.652  0.00  0.00    +0.158 HD
ENDBRANCH   4   8
BRANCH   1  16
ATOM     16  C   UNL     1      -2.478  -2.828  -0.204  0.00  0.00    +0.213 C 
BRANCH  16  18
ATOM     17  N   UNL     1      -1.200  -0.722   0.010  0.00  0.00    -0.284 N 
ATOM     18  C   UNL     1      -1.183  -2.065  -0.099  0.00  0.00    +0.235 C 
ATOM     19  O   UNL     1      -0.126  -2.659  -0.113  0.00  0.00    -0.274 OA
ATOM     20  H   UNL     1      -2.044  -0.252   0.098  0.00  0.00    +0.155 HD
BRANCH  17  26
ATOM     21  C   UNL     1       1.072  -0.453  -0.766  0.00  0.00    +0.024 A 
ATOM     22  C   UNL     1       2.256   0.258  -0.778  0.00  0.00    +0.017 A 
ATOM     23  C   UNL     1       2.377   1.416  -0.032  0.00  0.00    +0.018 A 
ATOM     24  C   UNL     1       1.312   1.866   0.729  0.00  0.00    +0.017 A 
ATOM     25  C   UNL     1       0.126   1.159   0.745  0.00  0.00    +0.024 A 
ATOM     26  C   UNL     1       0.002  -0.004  -0.004  0.00  0.00    +0.033 A 
ATOM     27 BR   UNL     1       4.000   2.387  -0.051  0.00  0.00    -0.050 Br
ENDBRANCH  17  26
ENDBRANCH  16  18
ENDBRANCH   1  16
TORSDOF 4
