REMARK  Name = ZINC33810470
REMARK  7 active torsions:
REMARK  status: ('A' for Active; 'I' for Inactive)
REMARK    1  A    between atoms: C_1  and  C_2
REMARK    2  A    between atoms: C_2  and  C_3
REMARK    3  A    between atoms: C_3  and  S_4
REMARK    4  A    between atoms: S_4  and  C_5
REMARK    5  A    between atoms: C_12  and  C_24
REMARK    6  A    between atoms: C_18  and  C_22
REMARK    7  A    between atoms: C_18  and  C_23
REMARK                            x       y       z     vdW  Elec       q    Type
REMARK                         _______ _______ _______ _____ _____    ______ ____
ROOT
ATOM      1  C   UNL     1      -0.016   1.313   0.009  0.00  0.00    +0.171 A 
ATOM      2  N   UNL     1       1.141   2.033   0.002  0.00  0.00    -0.208 NA
ATOM      3  C   UNL     1       2.350   1.391  -0.012  0.00  0.00    +0.135 A 
ATOM      4  C   UNL     1       2.382   0.031  -0.015  0.00  0.00    +0.069 A 
ATOM      5  C   UNL     1       1.162  -0.679  -0.011  0.00  0.00    +0.258 A 
ATOM      6  O   UNL     1       1.161  -1.901  -0.020  0.00  0.00    -0.267 OA
ATOM      7  N   UNL     1       0.002  -0.004   0.002  0.00  0.00    -0.302 N 
ATOM      8  C   UNL     1       3.686  -0.711  -0.019  0.00  0.00    +0.092 C 
ATOM      9  C   UNL     1       4.824   0.184  -0.440  0.00  0.00    +0.024 C 
ATOM     10  C   UNL     1       4.696   1.528  -0.417  0.00  0.00    +0.017 C 
ATOM     11  N   UNL     1       3.522   2.111  -0.022  0.00  0.00    -0.302 N 
ATOM     12  C   UNL     1       5.841   2.425  -0.819  0.00  0.00    +0.058 C 
ATOM     13  C   UNL     1       6.694   1.726  -1.880  0.00  0.00    -0.023 C 
ATOM     14  C   UNL     1       7.200   0.401  -1.301  0.00  0.00    +0.086 C 
ATOM     15  C   UNL     1       6.021  -0.422  -0.858  0.00  0.00    +0.162 C 
ATOM     16  O   UNL     1       6.106  -1.634  -0.862  0.00  0.00    -0.292 OA
ATOM     17  C   UNL     1       5.846   1.453  -3.124  0.00  0.00    +0.011 C 
ATOM     18  C   UNL     1       7.881   2.616  -2.253  0.00  0.00    +0.011 C 
ATOM     19  H   UNL     1       3.522   3.166   0.288  0.00  0.00    +0.153 HD
ATOM     20  H   UNL     1      -0.943  -0.567   0.007  0.00  0.00    +0.171 HD
ENDROOT
BRANCH   8  21
ATOM     21  C   UNL     1       3.959  -1.236   1.367  0.00  0.00    -0.035 A 
ATOM     22  C   UNL     1       4.076  -0.358   2.428  0.00  0.00    +0.007 A 
ATOM     23  C   UNL     1       4.320  -0.839   3.700  0.00  0.00    +0.038 A 
ATOM     24  C   UNL     1       4.460  -2.200   3.910  0.00  0.00    +0.123 A 
ATOM     25  C   UNL     1       4.348  -3.079   2.845  0.00  0.00    +0.038 A 
ATOM     26  C   UNL     1       4.097  -2.596   1.575  0.00  0.00    +0.007 A 
ATOM     27  F   UNL     1       4.705  -2.671   5.152  0.00  0.00    -0.205 F 
ENDBRANCH   8  21
BRANCH   1  28
ATOM     28  S   UNL     1      -1.562   2.157   0.021  0.00  0.00    -0.088 S 
BRANCH  28  29
ATOM     29  C   UNL     1      -2.692   0.744   0.019  0.00  0.00    +0.077 C 
BRANCH  29  31
ATOM     30  C   UNL     1      -5.093   0.051   0.026  0.00  0.00    +0.004 C 
ATOM     31  C   UNL     1      -4.138   1.246   0.028  0.00  0.00    +0.008 C 
ENDBRANCH  29  31
ENDBRANCH  28  29
ENDBRANCH   1  28
TORSDOF 4
