REMARK  Name = ZINC39457630
REMARK  5 active torsions:
REMARK  status: ('A' for Active; 'I' for Inactive)
REMARK    1  A    between atoms: C_1  and  C_2
REMARK    2  A    between atoms: C_3  and  O_32
REMARK    3  A    between atoms: C_10  and  S_18
REMARK    4  A    between atoms: S_18  and  O_21
REMARK    5  A    between atoms: O_21  and  C_22
REMARK                            x       y       z     vdW  Elec       q    Type
REMARK                         _______ _______ _______ _____ _____    ______ ____
ROOT
ATOM      1  C   UNL     1      -1.020   0.881   0.295  0.00  0.00    +0.071 C 
ATOM      2  C   UNL     1      -0.692  -0.576   0.092  0.00  0.00    +0.101 A 
ATOM      3  C   UNL     1      -0.188  -1.125  -1.043  0.00  0.00    +0.145 A 
ATOM      4  C   UNL     1      -0.025  -2.495  -0.817  0.00  0.00    +0.025 A 
ATOM      5  C   UNL     1      -0.430  -2.742   0.472  0.00  0.00    +0.118 A 
ATOM      6  N   UNL     1      -0.846  -1.566   1.023  0.00  0.00    -0.131 N 
ATOM      7  O   UNL     1      -1.354  -1.399   2.333  0.00  0.00    -0.163 OA
ATOM      8  C   UNL     1      -0.356  -4.082   1.081  0.00  0.00    +0.104 A 
ATOM      9  C   UNL     1       0.887  -4.836   0.856  0.00  0.00    +0.074 A 
ATOM     10  C   UNL     1       0.998  -6.116   1.370  0.00  0.00    +0.150 A 
ATOM     11  C   UNL     1      -0.088  -6.623   2.110  0.00  0.00    +0.029 A 
ATOM     12  C   UNL     1      -0.036  -7.918   2.655  0.00  0.00    +0.012 A 
ATOM     13  C   UNL     1      -1.087  -8.388   3.382  0.00  0.00    +0.001 A 
ATOM     14  C   UNL     1      -2.218  -7.602   3.591  0.00  0.00    +0.002 A 
ATOM     15  C   UNL     1      -2.307  -6.347   3.072  0.00  0.00    +0.028 A 
ATOM     16  C   UNL     1      -1.244  -5.826   2.311  0.00  0.00    +0.074 A 
ATOM     17  N   UNL     1      -1.336  -4.597   1.787  0.00  0.00    -0.244 NA
ATOM     18  C   UNL     1       1.967  -4.188   0.114  0.00  0.00    +0.168 C 
ATOM     19  O   UNL     1       2.945  -3.789   0.712  0.00  0.00    -0.292 OA
ATOM     20  C   UNL     1       1.889  -4.005  -1.384  0.00  0.00    +0.084 C 
ATOM     21  C   UNL     1       0.477  -3.544  -1.768  0.00  0.00    +0.049 C 
ENDROOT
BRANCH  10  22
ATOM     22  S   UNL     1       2.450  -7.079   1.108  0.00  0.00    +0.152 S 
ATOM     23  O   UNL     1       2.017  -8.415   0.888  0.00  0.00    -0.131 OA
ATOM     24  O   UNL     1       3.242  -6.371   0.164  0.00  0.00    -0.131 OA
BRANCH  22  25
ATOM     25  O   UNL     1       3.229  -7.084   2.415  0.00  0.00    -0.342 OA
BRANCH  25  26
ATOM     26  C   UNL     1       2.693  -7.881   3.376  0.00  0.00    +0.157 A 
ATOM     27  C   UNL     1       1.897  -7.331   4.370  0.00  0.00    +0.048 A 
ATOM     28  C   UNL     1       1.352  -8.144   5.345  0.00  0.00    +0.004 A 
ATOM     29  C   UNL     1       1.600  -9.504   5.332  0.00  0.00    +0.000 A 
ATOM     30  C   UNL     1       2.393 -10.054   4.342  0.00  0.00    +0.004 A 
ATOM     31  C   UNL     1       2.935  -9.247   3.361  0.00  0.00    +0.048 A 
ENDBRANCH  25  26
ENDBRANCH  22  25
ENDBRANCH  10  22
BRANCH   3  32
ATOM     32  O   UNL     1       0.106  -0.461  -2.196  0.00  0.00    -0.505 OA
ATOM     33  H   UNL     1       1.011  -0.123  -2.235  0.00  0.00    +0.292 HD
ENDBRANCH   3  32
TORSDOF 4
