REMARK  Name = ZINC04716052
REMARK  4 active torsions:
REMARK  status: ('A' for Active; 'I' for Inactive)
REMARK    1  A    between atoms: C_1  and  O_2
REMARK    2  A    between atoms: O_2  and  C_3
REMARK    3  A    between atoms: C_6  and  C_9
REMARK    4  A    between atoms: C_12  and  C_19
REMARK                            x       y       z     vdW  Elec       q    Type
REMARK                         _______ _______ _______ _____ _____    ______ ____
ROOT
ATOM      1  C   UNL     1       2.587  -2.550   4.310  0.00  0.00    +0.148 C 
ATOM      2  C   UNL     1       1.597  -3.465   5.042  0.00  0.00    +0.088 C 
ATOM      3  C   UNL     1       2.316  -4.471   5.894  0.00  0.00    +0.055 C 
ATOM      4  N   UNL     1       3.470  -4.983   5.559  0.00  0.00    -0.214 NA
ATOM      5  C   UNL     1       4.080  -4.533   4.430  0.00  0.00    +0.270 A 
ATOM      6  N   UNL     1       3.682  -3.377   3.810  0.00  0.00    -0.202 N 
ATOM      7  N   UNL     1       4.516  -3.234   2.707  0.00  0.00    -0.042 NA
ATOM      8  N   UNL     1       5.334  -4.237   2.731  0.00  0.00    -0.021 NA
ATOM      9  N   UNL     1       5.088  -5.001   3.741  0.00  0.00    -0.088 NA
ENDROOT
BRANCH   3  10
ATOM     10  C   UNL     1       1.696  -4.898   7.158  0.00  0.00    -0.003 A 
ATOM     11  C   UNL     1       0.459  -4.374   7.545  0.00  0.00    +0.011 A 
ATOM     12  C   UNL     1      -0.117  -4.778   8.731  0.00  0.00    +0.016 A 
ATOM     13  C   UNL     1       0.528  -5.701   9.538  0.00  0.00    +0.018 A 
ATOM     14  C   UNL     1       1.754  -6.224   9.162  0.00  0.00    +0.016 A 
ATOM     15  C   UNL     1       2.339  -5.833   7.976  0.00  0.00    +0.011 A 
ATOM     16 BR   UNL     1      -0.268  -6.248  11.164  0.00  0.00    -0.050 Br
ENDBRANCH   3  10
BRANCH   1  20
ATOM     17  C   UNL     1       0.626  -0.618   1.042  0.00  0.00    +0.120 A 
ATOM     18  C   UNL     1       1.202   0.138   2.051  0.00  0.00    +0.046 A 
ATOM     19  C   UNL     1       1.835  -0.488   3.107  0.00  0.00    +0.009 A 
ATOM     20  C   UNL     1       1.895  -1.869   3.158  0.00  0.00    -0.022 A 
ATOM     21  C   UNL     1       1.322  -2.625   2.152  0.00  0.00    +0.009 A 
ATOM     22  C   UNL     1       0.682  -2.003   1.098  0.00  0.00    +0.046 A 
BRANCH  17  24
ATOM     23  C   UNL     1      -0.017   1.425   0.010  0.00  0.00    +0.277 C 
ATOM     24  O   UNL     1       0.002  -0.004   0.002  0.00  0.00    -0.495 OA
ENDBRANCH  17  24
ENDBRANCH   1  20
TORSDOF 3
