REMARK  Name = ZINC59151809
REMARK  6 active torsions:
REMARK  status: ('A' for Active; 'I' for Inactive)
REMARK    1  A    between atoms: C_1  and  C_2
REMARK    2  A    between atoms: C_5  and  N_9
REMARK    3  A    between atoms: N_9  and  C_10
REMARK    4  A    between atoms: C_10  and  N_12
REMARK    5  A    between atoms: N_12  and  N_13
REMARK    6  A    between atoms: N_21  and  C_24
REMARK                            x       y       z     vdW  Elec       q    Type
REMARK                         _______ _______ _______ _____ _____    ______ ____
ROOT
ATOM      1  N   UNL     1       0.247  -6.194   1.117  0.00  0.00    -0.217 N 
ATOM      2  H   UNL     1       0.139  -6.685   1.947  0.00  0.00    +0.176 HD
ENDROOT
BRANCH   1   3
ATOM      3  N   UNL     1       0.299  -6.881  -0.102  0.00  0.00    -0.175 NA
ATOM      4  C   UNL     1       0.317  -8.193  -0.116  0.00  0.00    +0.153 C 
ATOM      5  C   UNL     1       0.431  -9.105   1.046  0.00  0.00    +0.029 A 
ATOM      6  C   UNL     1       0.548  -8.894   2.415  0.00  0.00    +0.027 A 
ATOM      7  C   UNL     1       0.639  -9.975   3.270  0.00  0.00    +0.019 A 
ATOM      8  C   UNL     1       0.614 -11.264   2.764  0.00  0.00    +0.017 A 
ATOM      9  C   UNL     1       0.498 -11.483   1.406  0.00  0.00    +0.025 A 
ATOM     10  C   UNL     1       0.405 -10.407   0.530  0.00  0.00    +0.046 A 
ATOM     11  N   UNL     1       0.283 -10.351  -0.854  0.00  0.00    -0.269 N 
ATOM     12  C   UNL     1       0.220  -9.081  -1.290  0.00  0.00    +0.271 C 
ATOM     13  O   UNL     1       0.107  -8.726  -2.449  0.00  0.00    -0.268 OA
ATOM     14  C   UNL     1       0.224 -11.527  -1.726  0.00  0.00    +0.138 C 
ATOM     15 BR   UNL     1       0.799  -9.695   5.134  0.00  0.00    -0.050 Br
ENDBRANCH   1   3
BRANCH   1  16
ATOM     16  C   UNL     1       0.346  -4.850   1.138  0.00  0.00    +0.154 C 
ATOM     17  S   UNL     1       0.282  -4.010   2.628  0.00  0.00    -0.017 S 
BRANCH  16  18
ATOM     18  N   UNL     1       0.496  -4.167  -0.015  0.00  0.00    -0.296 N 
ATOM     19  H   UNL     1       0.449  -4.634  -0.864  0.00  0.00    +0.154 HD
BRANCH  18  24
ATOM     20  C   UNL     1       1.403   1.432   0.105  0.00  0.00    +0.047 C 
ATOM     21  C   UNL     1       1.162  -0.055   0.073  0.00  0.00    -0.015 A 
ATOM     22  C   UNL     1       1.788  -0.876   0.992  0.00  0.00    +0.008 A 
ATOM     23  C   UNL     1       1.569  -2.239   0.966  0.00  0.00    +0.024 A 
ATOM     24  C   UNL     1       0.718  -2.787   0.014  0.00  0.00    +0.035 A 
ATOM     25  C   UNL     1       0.089  -1.962  -0.909  0.00  0.00    +0.062 A 
ATOM     26  C   UNL     1       0.308  -0.596  -0.874  0.00  0.00    +0.128 A 
ATOM     27  F   UNL     1      -0.307   0.209  -1.768  0.00  0.00    -0.205 F 
ENDBRANCH  18  24
ENDBRANCH  16  18
ENDBRANCH   1  16
TORSDOF 4
