REMARK  Name = ZINC63161491
REMARK  5 active torsions:
REMARK  status: ('A' for Active; 'I' for Inactive)
REMARK    1  A    between atoms: C_1  and  N_2
REMARK    2  A    between atoms: N_2  and  C_3
REMARK    3  A    between atoms: C_3  and  C_4
REMARK    4  A    between atoms: N_14  and  C_15
REMARK    5  A    between atoms: C_17  and  C_23
REMARK                            x       y       z     vdW  Elec       q    Type
REMARK                         _______ _______ _______ _____ _____    ______ ____
ROOT
ATOM      1  C   UNL     1      -0.001   1.434   0.026  0.00  0.00    +0.134 C 
ATOM      2  N   UNL     1      -0.167  -0.021  -0.003  0.00  0.00    -0.284 N 
ATOM      3  C   UNL     1      -0.170  -0.676  -1.181  0.00  0.00    +0.307 C 
ATOM      4  O   UNL     1      -0.308  -1.884  -1.205  0.00  0.00    -0.252 OA
ATOM      5  N   UNL     1      -0.020   0.009  -2.332  0.00  0.00    -0.265 N 
ATOM      6  H   UNL     1       0.016   0.978  -2.319  0.00  0.00    +0.157 HD
ENDROOT
BRANCH   5   7
ATOM      7  C   UNL     1       0.084  -0.681  -3.549  0.00  0.00    +0.100 A 
ATOM      8  C   UNL     1      -0.811  -0.444  -4.557  0.00  0.00    +0.042 A 
ATOM      9  C   UNL     1      -0.684  -1.146  -5.764  0.00  0.00    +0.073 A 
ATOM     10  C   UNL     1       0.314  -2.046  -5.922  0.00  0.00    +0.098 A 
ATOM     11  N   UNL     1       1.203  -2.283  -4.921  0.00  0.00    -0.327 N 
ATOM     12  H   UNL     1       1.912  -2.932  -5.053  0.00  0.00    +0.168 HD
ATOM     13  C   UNL     1       1.115  -1.623  -3.751  0.00  0.00    +0.270 A 
ATOM     14  O   UNL     1       1.925  -1.842  -2.864  0.00  0.00    -0.266 OA
BRANCH   9  15
ATOM     15  C   UNL     1      -1.660  -0.899  -6.885  0.00  0.00    +0.419 C 
ATOM     16  F   UNL     1      -1.331  -1.710  -7.976  0.00  0.00    -0.166 F 
ATOM     17  F   UNL     1      -2.955  -1.203  -6.452  0.00  0.00    -0.166 F 
ATOM     18  F   UNL     1      -1.599   0.445  -7.268  0.00  0.00    -0.166 F 
ENDBRANCH   9  15
ENDBRANCH   5   7
BRANCH   2  19
ATOM     19  C   UNL     1      -0.330  -0.765   1.249  0.00  0.00    +0.144 C 
BRANCH  19  20
ATOM     20  C   UNL     1      -1.794  -0.858   1.591  0.00  0.00    -0.027 A 
ATOM     21  C   UNL     1      -2.387   0.125   2.362  0.00  0.00    +0.025 A 
ATOM     22  C   UNL     1      -3.731   0.040   2.677  0.00  0.00    +0.043 A 
ATOM     23  C   UNL     1      -4.483  -1.028   2.221  0.00  0.00    +0.040 A 
ATOM     24  C   UNL     1      -3.889  -2.011   1.450  0.00  0.00    +0.043 A 
ATOM     25  C   UNL     1      -2.546  -1.922   1.131  0.00  0.00    +0.025 A 
ATOM     26 CL   UNL     1      -4.831  -3.352   0.877  0.00  0.00    -0.083 Cl
ATOM     27 CL   UNL     1      -4.475   1.274   3.646  0.00  0.00    -0.083 Cl
ENDBRANCH  19  20
ENDBRANCH   2  19
TORSDOF 4
