REMARK  Name = ZINC00796079
REMARK  6 active torsions:
REMARK  status: ('A' for Active; 'I' for Inactive)
REMARK    1  A    between atoms: C_1  and  C_2
REMARK    2  A    between atoms: C_4  and  C_33
REMARK    3  A    between atoms: C_12  and  C_26
REMARK    4  A    between atoms: C_14  and  C_19
REMARK    5  A    between atoms: C_19  and  C_21
REMARK    6  A    between atoms: C_30  and  O_32
REMARK                            x       y       z     vdW  Elec       q    Type
REMARK                         _______ _______ _______ _____ _____    ______ ____
ROOT
ATOM      1  C   UNL     1      -0.234   1.492  -0.099  0.00  0.00    +0.044 C 
ATOM      2  C   UNL     1      -0.184  -0.015  -0.091  0.00  0.00    -0.049 A 
ATOM      3  C   UNL     1      -0.190  -0.723  -1.284  0.00  0.00    +0.009 A 
ATOM      4  C   UNL     1      -0.145  -2.092  -1.305  0.00  0.00    -0.024 A 
ATOM      5  C   UNL     1      -0.090  -2.831  -0.100  0.00  0.00    +0.083 A 
ATOM      6  C   UNL     1      -0.085  -2.077   1.095  0.00  0.00    +0.041 A 
ATOM      7  C   UNL     1      -0.125  -0.705   1.106  0.00  0.00    +0.020 A 
ATOM      8  S   UNL     1      -0.011  -3.342   2.340  0.00  0.00    -0.052 S 
ATOM      9  C   UNL     1       0.008  -4.745   1.234  0.00  0.00    +0.169 A 
ATOM     10  N   UNL     1      -0.041  -4.172   0.054  0.00  0.00    -0.224 NA
ATOM     11  N   UNL     1       0.062  -6.093   1.542  0.00  0.00    -0.232 N 
ATOM     12  C   UNL     1       0.110  -6.669   2.891  0.00  0.00    +0.152 C 
ATOM     13  C   UNL     1       0.159  -8.168   2.706  0.00  0.00    +0.080 C 
ATOM     14  C   UNL     1       0.139  -8.398   1.372  0.00  0.00    +0.250 C 
ATOM     15  C   UNL     1       0.073  -7.108   0.659  0.00  0.00    +0.293 C 
ATOM     16  O   UNL     1       0.037  -6.981  -0.549  0.00  0.00    -0.266 OA
ATOM     17  O   UNL     1       0.170  -9.617   0.786  0.00  0.00    -0.282 OA
ATOM     18  C   UNL     1      -0.155  -2.818  -2.625  0.00  0.00    +0.046 C 
ENDROOT
BRANCH  12  19
ATOM     19  C   UNL     1       1.344  -6.195   3.614  0.00  0.00    -0.019 A 
ATOM     20  C   UNL     1       2.567  -6.195   2.967  0.00  0.00    +0.006 A 
ATOM     21  C   UNL     1       3.701  -5.760   3.627  0.00  0.00    +0.004 A 
ATOM     22  C   UNL     1       3.615  -5.324   4.936  0.00  0.00    +0.045 A 
ATOM     23  C   UNL     1       2.390  -5.323   5.586  0.00  0.00    +0.117 A 
ATOM     24  C   UNL     1       1.253  -5.754   4.920  0.00  0.00    +0.051 A 
BRANCH  23  25
ATOM     25  O   UNL     1       2.304  -4.894   6.873  0.00  0.00    -0.507 OA
ATOM     26  H   UNL     1       2.129  -3.947   6.961  0.00  0.00    +0.292 HD
ENDBRANCH  23  25
ENDBRANCH  12  19
BRANCH  13  27
ATOM     27  C   UNL     1       0.216  -9.180   3.767  0.00  0.00    +0.230 C 
ATOM     28  O   UNL     1       1.206  -9.881   3.887  0.00  0.00    -0.283 OA
BRANCH  27  29
ATOM     29  C   UNL     1      -0.915  -9.346   4.684  0.00  0.00    +0.175 A 
ATOM     30  C   UNL     1      -0.957 -10.182   5.779  0.00  0.00    +0.053 A 
ATOM     31  C   UNL     1      -2.224 -10.019   6.357  0.00  0.00    +0.042 A 
ATOM     32  C   UNL     1      -2.891  -9.111   5.610  0.00  0.00    +0.196 A 
ATOM     33  O   UNL     1      -2.100  -8.704   4.609  0.00  0.00    -0.460 OA
ENDBRANCH  27  29
ENDBRANCH  13  27
TORSDOF 4
