REMARK  Name = ZINC21864169
REMARK  10 active torsions:
REMARK  status: ('A' for Active; 'I' for Inactive)
REMARK    1  A    between atoms: C_1  and  C_2
REMARK    2  A    between atoms: C_5  and  C_37
REMARK    3  A    between atoms: N_8  and  C_10
REMARK    4  A    between atoms: C_10  and  C_11
REMARK    5  A    between atoms: C_11  and  C_12
REMARK    6  A    between atoms: C_12  and  N_13
REMARK    7  A    between atoms: C_19  and  C_32
REMARK    8  A    between atoms: C_22  and  C_23
REMARK    9  A    between atoms: C_22  and  C_24
REMARK   10  A    between atoms: N_26  and  C_27
REMARK                            x       y       z     vdW  Elec       q    Type
REMARK                         _______ _______ _______ _____ _____    ______ ____
ROOT
ATOM      1  N   UNL     1       1.320   2.103   0.001  0.00  0.00    -0.281 N 
ATOM      2  C   UNL     1       2.330   1.584   0.737  0.00  0.00    +0.264 C 
ATOM      3  O   UNL     1       3.383   2.176   0.890  0.00  0.00    -0.268 OA
ATOM      4  C   UNL     1       2.089   0.269   1.341  0.00  0.00    +0.105 A 
ATOM      5  C   UNL     1       2.806  -0.432   2.270  0.00  0.00    +0.033 A 
ATOM      6  C   UNL     1       2.118  -1.621   2.516  0.00  0.00    +0.032 A 
ATOM      7  C   UNL     1       0.982  -1.625   1.722  0.00  0.00    +0.085 A 
ATOM      8  N   UNL     1       0.967  -0.478   0.999  0.00  0.00    -0.331 N 
ATOM      9  C   UNL     1       0.002  -0.004   0.002  0.00  0.00    +0.157 C 
ATOM     10  C   UNL     1      -0.019   1.524   0.010  0.00  0.00    +0.128 C 
ATOM     11  C   UNL     1      -0.779   2.015  -1.223  0.00  0.00    +0.043 C 
ENDROOT
BRANCH   7  12
ATOM     12  C   UNL     1      -0.031  -2.688   1.672  0.00  0.00    +0.151 A 
ATOM     13  C   UNL     1      -0.069  -3.796   2.465  0.00  0.00    +0.051 A 
ATOM     14  C   UNL     1      -1.201  -4.535   2.075  0.00  0.00    +0.042 A 
ATOM     15  C   UNL     1      -1.794  -3.853   1.074  0.00  0.00    +0.196 A 
ATOM     16  O   UNL     1      -1.089  -2.735   0.837  0.00  0.00    -0.461 OA
ENDBRANCH   7  12
BRANCH  10  17
ATOM     17  C   UNL     1      -0.744   1.995   1.245  0.00  0.00    +0.238 C 
ATOM     18  O   UNL     1      -1.926   2.262   1.189  0.00  0.00    -0.273 OA
ATOM     19  N   UNL     1      -0.079   2.119   2.411  0.00  0.00    -0.311 N 
ATOM     20  H   UNL     1       0.993   1.877   2.461  0.00  0.00    +0.149 HD
BRANCH  19  21
ATOM     21  C   UNL     1      -0.784   2.576   3.611  0.00  0.00    +0.073 C 
ATOM     22  C   UNL     1      -0.775   4.117   3.674  0.00  0.00    +0.022 C 
ATOM     23  C   UNL     1      -0.611   4.434   5.181  0.00  0.00    +0.002 C 
ATOM     24  C   UNL     1       0.372   3.337   5.657  0.00  0.00    +0.002 C 
ATOM     25  C   UNL     1      -0.055   2.080   4.872  0.00  0.00    +0.022 C 
ENDBRANCH  19  21
ENDBRANCH  10  17
BRANCH   1  26
ATOM     26  C   UNL     1       1.579   3.281  -0.830  0.00  0.00    +0.107 C 
BRANCH  26  27
ATOM     27  C   UNL     1       1.306   4.549  -0.018  0.00  0.00    +0.000 C 
BRANCH  27  28
ATOM     28  C   UNL     1       1.577   5.779  -0.886  0.00  0.00    -0.077 C 
BRANCH  28  34
ATOM     29  C   UNL     1       1.877  10.687  -0.780  0.00  0.00    +0.005 C 
ATOM     30  C   UNL     1       1.369   9.444  -0.048  0.00  0.00    -0.031 C 
ATOM     31  C   UNL     1       1.971   9.397   1.359  0.00  0.00    +0.003 C 
ATOM     32  C   UNL     1       1.503   8.120   2.063  0.00  0.00    -0.031 C 
ATOM     33  C   UNL     1       1.917   6.904   1.231  0.00  0.00    -0.076 C 
ATOM     34  N   UNL     1       1.315   6.996  -0.105  0.00  0.00    +0.380 N 
ATOM     35  C   UNL     1       1.786   8.190  -0.819  0.00  0.00    -0.076 C 
ATOM     36  C   UNL     1       2.147   8.035   3.448  0.00  0.00    +0.005 C 
ATOM     37  H   UNL     1       0.227   7.090   0.023  0.00  0.00    -0.082 HD
ENDBRANCH  28  34
ENDBRANCH  27  28
ENDBRANCH  26  27
ENDBRANCH   1  26
TORSDOF 7
