REMARK  Name = ZINC07473318
REMARK  6 active torsions:
REMARK  status: ('A' for Active; 'I' for Inactive)
REMARK    1  A    between atoms: C_1  and  C_2
REMARK    2  A    between atoms: C_2  and  C_3
REMARK    3  A    between atoms: C_2  and  C_4
REMARK    4  A    between atoms: C_4  and  C_6
REMARK    5  A    between atoms: C_4  and  N_18
REMARK    6  A    between atoms: C_19  and  C_21
REMARK                            x       y       z     vdW  Elec       q    Type
REMARK                         _______ _______ _______ _____ _____    ______ ____
ROOT
ATOM      1  C   UNL     1       1.369   2.061  -0.090  0.00  0.00    +0.162 C 
ENDROOT
BRANCH   1   2
ATOM      2  C   UNL     1       0.050   1.335  -0.154  0.00  0.00    +0.239 C 
ATOM      3  O   UNL     1      -0.921   1.789   0.414  0.00  0.00    -0.273 OA
ATOM      4  N   UNL     1      -0.053   0.183  -0.847  0.00  0.00    -0.263 N 
ATOM      5  C   UNL     1      -1.235  -0.538  -0.821  0.00  0.00    +0.165 A 
ATOM      6  N   UNL     1      -1.524  -1.668  -1.424  0.00  0.00    -0.225 NA
ATOM      7  C   UNL     1      -2.730  -2.264  -1.308  0.00  0.00    +0.080 A 
ATOM      8  C   UNL     1      -3.167  -3.473  -1.899  0.00  0.00    +0.029 A 
ATOM      9  C   UNL     1      -4.434  -3.943  -1.677  0.00  0.00    +0.002 A 
ATOM     10  C   UNL     1      -5.331  -3.257  -0.870  0.00  0.00    +0.001 A 
ATOM     11  C   UNL     1      -4.938  -2.072  -0.276  0.00  0.00    +0.017 A 
ATOM     12  C   UNL     1      -3.670  -1.593  -0.493  0.00  0.00    +0.041 A 
ATOM     13  S   UNL     1      -2.753  -0.170   0.048  0.00  0.00    -0.052 S 
ATOM     14  H   UNL     1       0.702  -0.140  -1.364  0.00  0.00    +0.157 HD
ENDBRANCH   1   2
BRANCH   1  15
ATOM     15  N   UNL     1       1.129   3.494   0.098  0.00  0.00    -0.303 N 
ATOM     16  C   UNL     1       2.051   4.390  -0.305  0.00  0.00    +0.220 C 
ATOM     17  O   UNL     1       3.080   4.010  -0.823  0.00  0.00    -0.275 OA
ATOM     18  H   UNL     1       0.306   3.798   0.512  0.00  0.00    +0.149 HD
BRANCH  16  19
ATOM     19  C   UNL     1       1.805   5.864  -0.113  0.00  0.00    +0.048 C 
ATOM     20  C   UNL     1       1.627   6.161   1.378  0.00  0.00    +0.019 C 
ATOM     21  C   UNL     1       1.377   7.657   1.573  0.00  0.00    -0.009 C 
ATOM     22  C   UNL     1       2.570   8.449   1.034  0.00  0.00    +0.007 C 
ATOM     23  C   UNL     1       2.747   8.152  -0.457  0.00  0.00    -0.009 C 
ATOM     24  C   UNL     1       2.998   6.656  -0.652  0.00  0.00    +0.019 C 
ATOM     25  C   UNL     1       1.481   8.560  -1.212  0.00  0.00    +0.007 C 
ATOM     26  C   UNL     1       0.288   7.769  -0.672  0.00  0.00    -0.009 C 
ATOM     27  C   UNL     1       0.111   8.066   0.818  0.00  0.00    +0.007 C 
ATOM     28  C   UNL     1       0.538   6.272  -0.868  0.00  0.00    +0.019 C 
ENDBRANCH  16  19
ENDBRANCH   1  15
BRANCH   1  30
ATOM     29  C   UNL     1       2.486   0.039   0.862  0.00  0.00    +0.009 C 
ATOM     30  C   UNL     1       2.190   1.524   1.084  0.00  0.00    +0.012 C 
ATOM     31  C   UNL     1       3.506   2.297   1.182  0.00  0.00    +0.009 C 
ENDBRANCH   1  30
TORSDOF 4
