REMARK  Name = ZINC52652820
REMARK  9 active torsions:
REMARK  status: ('A' for Active; 'I' for Inactive)
REMARK    1  A    between atoms: C_1  and  C_2
REMARK    2  A    between atoms: C_2  and  C_3
REMARK    3  A    between atoms: C_2  and  C_4
REMARK    4  A    between atoms: C_2  and  N_5
REMARK    5  A    between atoms: N_5  and  C_6
REMARK    6  A    between atoms: C_6  and  C_7
REMARK    7  A    between atoms: C_8  and  C_12
REMARK    8  A    between atoms: C_12  and  O_13
REMARK    9  A    between atoms: O_13  and  C_14
REMARK                            x       y       z     vdW  Elec       q    Type
REMARK                         _______ _______ _______ _____ _____    ______ ____
ROOT
ATOM      1  C   UNL     1       2.773  -0.455  -2.457  0.00  0.00    +0.094 A 
ATOM      2  C   UNL     1       2.814   0.183  -3.640  0.00  0.00    +0.029 A 
ATOM      3  C   UNL     1       3.577  -0.624  -4.515  0.00  0.00    +0.048 A 
ATOM      4  C   UNL     1       3.958  -1.707  -3.814  0.00  0.00    +0.195 A 
ATOM      5  O   UNL     1       3.473  -1.597  -2.566  0.00  0.00    -0.469 OA
ENDROOT
BRANCH   1   6
ATOM      6  C   UNL     1       2.068   0.031  -1.217  0.00  0.00    -0.006 C 
BRANCH   6   7
ATOM      7  N   UNL     1       0.690  -0.478  -1.207  0.00  0.00    +0.387 N 
ATOM      8  H   UNL     1       0.703  -1.487  -1.212  0.00  0.00    -0.085 HD
ATOM      9  H   UNL     1       0.202  -0.144  -2.024  0.00  0.00    -0.085 HD
BRANCH   7  11
ATOM     10  C   UNL     1      -0.019   1.526   0.010  0.00  0.00    -0.011 C 
ATOM     11  C   UNL     1       0.002  -0.004   0.002  0.00  0.00    -0.076 C 
ATOM     12  C   UNL     1       0.742  -0.511   1.242  0.00  0.00    -0.011 C 
ATOM     13  C   UNL     1      -1.433  -0.534   0.013  0.00  0.00    -0.011 C 
ENDBRANCH   7  11
ENDBRANCH   6   7
ENDBRANCH   1   6
BRANCH   2  14
ATOM     14  C   UNL     1       2.168   1.504  -3.971  0.00  0.00    +0.268 C 
BRANCH  14  15
ATOM     15  O   UNL     1       2.443   1.841  -5.332  0.00  0.00    -0.486 OA
BRANCH  15  16
ATOM     16  C   UNL     1       1.929   3.012  -5.793  0.00  0.00    +0.141 A 
ATOM     17  C   UNL     1       1.180   3.822  -4.952  0.00  0.00    +0.067 A 
ATOM     18  C   UNL     1       0.659   5.012  -5.423  0.00  0.00    +0.045 A 
ATOM     19  C   UNL     1       0.883   5.396  -6.734  0.00  0.00    +0.021 A 
ATOM     20  C   UNL     1       1.629   4.590  -7.574  0.00  0.00    +0.025 A 
ATOM     21  C   UNL     1       2.156   3.402  -7.106  0.00  0.00    +0.083 A 
ATOM     22 CL   UNL     1       3.098   2.394  -8.160  0.00  0.00    -0.080 Cl
ATOM     23 CL   UNL     1      -0.278   6.026  -4.371  0.00  0.00    -0.083 Cl
ENDBRANCH  15  16
ENDBRANCH  14  15
ENDBRANCH   2  14
TORSDOF 6
