REMARK  Name = ZINC31393963
REMARK  7 active torsions:
REMARK  status: ('A' for Active; 'I' for Inactive)
REMARK    1  A    between atoms: C_1  and  C_2
REMARK    2  A    between atoms: C_2  and  C_4
REMARK    3  A    between atoms: C_2  and  N_16
REMARK    4  A    between atoms: C_7  and  N_10
REMARK    5  A    between atoms: C_11  and  C_13
REMARK    6  A    between atoms: C_17  and  C_19
REMARK    7  A    between atoms: N_24  and  C_26
REMARK                            x       y       z     vdW  Elec       q    Type
REMARK                         _______ _______ _______ _____ _____    ______ ____
ROOT
ATOM      1  N   UNL     1      -3.353  11.357  -2.399  0.00  0.00    -0.308 N 
ATOM      2  C   UNL     1      -2.869  10.147  -2.741  0.00  0.00    +0.219 C 
ATOM      3  O   UNL     1      -2.138  10.036  -3.702  0.00  0.00    -0.275 OA
ATOM      4  H   UNL     1      -4.016  11.458  -1.527  0.00  0.00    +0.149 HD
ENDROOT
BRANCH   2   5
ATOM      5  C   UNL     1      -3.235   8.931  -1.929  0.00  0.00    +0.101 C 
ATOM      6  C   UNL     1      -2.745   9.072  -0.469  0.00  0.00    +0.110 C 
ATOM      7  C   UNL     1      -2.307   7.675  -0.089  0.00  0.00    +0.221 C 
ATOM      8  O   UNL     1      -2.120   7.291   1.046  0.00  0.00    -0.275 OA
ATOM      9  N   UNL     1      -2.155   6.922  -1.192  0.00  0.00    -0.271 N 
ATOM     10  C   UNL     1      -2.444   7.692  -2.407  0.00  0.00    +0.127 C 
BRANCH   9  11
ATOM     11  C   UNL     1      -1.764   5.576  -1.182  0.00  0.00    +0.040 A 
ATOM     12  C   UNL     1      -1.743   4.851  -2.366  0.00  0.00    +0.027 A 
ATOM     13  C   UNL     1      -1.360   3.524  -2.357  0.00  0.00    +0.051 A 
ATOM     14  C   UNL     1      -0.995   2.912  -1.167  0.00  0.00    +0.162 A 
ATOM     15  C   UNL     1      -1.014   3.636   0.020  0.00  0.00    +0.164 A 
ATOM     16  C   UNL     1      -1.400   4.968   0.010  0.00  0.00    +0.073 A 
ATOM     17  O   UNL     1      -0.652   3.055   1.196  0.00  0.00    -0.485 OA
ATOM     18  C   UNL     1      -0.630   1.624   1.228  0.00  0.00    +0.270 C 
ATOM     19  C   UNL     1       0.093   1.127  -0.032  0.00  0.00    +0.270 C 
ATOM     20  O   UNL     1      -0.623   1.602  -1.177  0.00  0.00    -0.485 OA
ENDBRANCH   9  11
ENDBRANCH   2   5
BRANCH   1  22
ATOM     21  C   UNL     1      -1.660  13.097  -2.695  0.00  0.00    +0.033 C 
ATOM     22  C   UNL     1      -2.996  12.539  -3.188  0.00  0.00    +0.100 C 
BRANCH  22  23
ATOM     23  C   UNL     1      -4.067  13.588  -3.033  0.00  0.00    -0.027 A 
ATOM     24  C   UNL     1      -4.654  13.797  -1.799  0.00  0.00    +0.007 A 
ATOM     25  C   UNL     1      -5.632  14.762  -1.653  0.00  0.00    +0.023 A 
ATOM     26  C   UNL     1      -6.032  15.514  -2.749  0.00  0.00    +0.033 A 
ATOM     27  C   UNL     1      -5.444  15.298  -3.988  0.00  0.00    +0.023 A 
ATOM     28  C   UNL     1      -4.463  14.336  -4.127  0.00  0.00    +0.007 A 
BRANCH  26  29
ATOM     29  N   UNL     1      -7.026  16.489  -2.605  0.00  0.00    -0.285 N 
ATOM     30  C   UNL     1      -7.895  16.719  -3.609  0.00  0.00    +0.220 C 
ATOM     31  O   UNL     1      -7.879  16.017  -4.598  0.00  0.00    -0.275 OA
ATOM     32  H   UNL     1      -7.098  17.067  -1.672  0.00  0.00    +0.155 HD
BRANCH  30  33
ATOM     33  C   UNL     1      -8.886  17.850  -3.504  0.00  0.00    +0.075 C 
ATOM     34  C   UNL     1     -10.364  17.482  -3.359  0.00  0.00    +0.013 C 
ATOM     35  C   UNL     1      -9.845  18.060  -4.677  0.00  0.00    +0.013 C 
ENDBRANCH  30  33
ENDBRANCH  26  29
ENDBRANCH  22  23
ENDBRANCH   1  22
TORSDOF 6
