REMARK  Name = ZINC05447371
REMARK  4 active torsions:
REMARK  status: ('A' for Active; 'I' for Inactive)
REMARK    1  A    between atoms: C_4  and  C_7
REMARK    2  A    between atoms: N_9  and  C_10
REMARK    3  A    between atoms: C_12  and  C_24
REMARK    4  A    between atoms: N_14  and  C_18
REMARK                            x       y       z     vdW  Elec       q    Type
REMARK                         _______ _______ _______ _____ _____    ______ ____
ROOT
ATOM      1  C   UNL     1      -0.018   1.461   0.010  0.00  0.00    +0.187 C 
ATOM      2  C   UNL     1      -0.645   1.998  -1.290  0.00  0.00    +0.153 C 
ATOM      3  N   UNL     1       0.427   2.784  -1.916  0.00  0.00    -0.241 N 
ATOM      4  N   UNL     1       1.563   2.739  -1.111  0.00  0.00    -0.232 N 
ATOM      5  C   UNL     1       1.391   2.009  -0.000  0.00  0.00    +0.252 C 
ATOM      6  O   UNL     1       2.229   1.818   0.856  0.00  0.00    -0.272 OA
ATOM      7  H   UNL     1       2.393   3.190  -1.332  0.00  0.00    +0.173 HD
ENDROOT
BRANCH   2   8
ATOM      8  C   UNL     1      -1.829   2.876  -0.979  0.00  0.00    -0.023 A 
ATOM      9  C   UNL     1      -1.633   4.185  -0.581  0.00  0.00    +0.007 A 
ATOM     10  C   UNL     1      -2.720   4.993  -0.301  0.00  0.00    +0.020 A 
ATOM     11  C   UNL     1      -4.003   4.487  -0.409  0.00  0.00    +0.041 A 
ATOM     12  C   UNL     1      -4.198   3.175  -0.801  0.00  0.00    +0.020 A 
ATOM     13  C   UNL     1      -3.111   2.370  -1.086  0.00  0.00    +0.007 A 
ATOM     14 CL   UNL     1      -5.368   5.499  -0.051  0.00  0.00    -0.084 Cl
ENDBRANCH   2   8
BRANCH   3  15
ATOM     15  C   UNL     1       0.322   3.470  -3.129  0.00  0.00    +0.048 A 
ATOM     16  C   UNL     1      -0.866   3.436  -3.848  0.00  0.00    +0.025 A 
ATOM     17  C   UNL     1      -0.967   4.120  -5.043  0.00  0.00    +0.002 A 
ATOM     18  C   UNL     1       0.116   4.828  -5.530  0.00  0.00    +0.000 A 
ATOM     19  C   UNL     1       1.302   4.860  -4.820  0.00  0.00    +0.002 A 
ATOM     20  C   UNL     1       1.408   4.183  -3.621  0.00  0.00    +0.025 A 
ENDBRANCH   3  15
BRANCH   1  23
ATOM     21  C   UNL     1       0.095  -0.683   1.163  0.00  0.00    +0.245 C 
ATOM     22  O   UNL     1       0.161  -0.080   2.216  0.00  0.00    -0.270 OA
ATOM     23  N   UNL     1       0.002  -0.004   0.002  0.00  0.00    -0.298 N 
ATOM     24  H   UNL     1      -0.051  -0.485  -0.839  0.00  0.00    +0.150 HD
BRANCH  21  28
ATOM     25  C   UNL     1       0.151  -4.930   1.139  0.00  0.00    +0.000 A 
ATOM     26  C   UNL     1       0.228  -4.247   2.340  0.00  0.00    +0.001 A 
ATOM     27  C   UNL     1       0.210  -2.868   2.354  0.00  0.00    +0.013 A 
ATOM     28  C   UNL     1       0.115  -2.162   1.154  0.00  0.00    +0.037 A 
ATOM     29  C   UNL     1       0.032  -2.857  -0.053  0.00  0.00    +0.013 A 
ATOM     30  C   UNL     1       0.056  -4.236  -0.054  0.00  0.00    +0.001 A 
ENDBRANCH  21  28
ENDBRANCH   1  23
TORSDOF 4
