REMARK  Name = ZINC24338086
REMARK  15 active torsions:
REMARK  status: ('A' for Active; 'I' for Inactive)
REMARK    1  A    between atoms: C_1  and  C_2
REMARK    2  A    between atoms: C_2  and  O_3
REMARK    3  A    between atoms: O_3  and  C_4
REMARK    4  A    between atoms: C_4  and  C_6
REMARK    5  A    between atoms: C_10  and  N_11
REMARK    6  A    between atoms: C_12  and  C_14
REMARK    7  A    between atoms: C_14  and  C_16
REMARK    8  A    between atoms: C_14  and  N_17
REMARK    9  A    between atoms: N_20  and  C_23
REMARK   10  A    between atoms: C_23  and  C_24
REMARK   11  A    between atoms: N_26  and  C_27
REMARK   12  A    between atoms: C_27  and  C_28
REMARK   13  A    between atoms: C_28  and  C_29
REMARK   14  A    between atoms: C_29  and  O_30
REMARK   15  A    between atoms: O_30  and  C_31
REMARK                            x       y       z     vdW  Elec       q    Type
REMARK                         _______ _______ _______ _____ _____    ______ ____
ROOT
ATOM      1  C   UNL     1      -0.502   3.509  -2.628  0.00  0.00    +0.140 C 
ATOM      2  C   UNL     1      -1.961   3.138  -2.901  0.00  0.00    +0.034 C 
ENDROOT
BRANCH   1   3
ATOM      3  N   UNL     1      -0.108   3.008  -1.305  0.00  0.00    -0.295 NA
ATOM      4  C   UNL     1      -0.016   1.541  -1.303  0.00  0.00    +0.066 C 
ATOM      5  C   UNL     1       0.473   1.065   0.067  0.00  0.00    -0.063 C 
ATOM      6  N   UNL     1      -0.457   1.532   1.105  0.00  0.00    +0.387 N 
ATOM      7  C   UNL     1      -0.550   2.999   1.103  0.00  0.00    -0.063 C 
ATOM      8  C   UNL     1      -1.038   3.475  -0.267  0.00  0.00    +0.066 C 
ATOM      9  H   UNL     1      -1.454   1.128   0.875  0.00  0.00    -0.081 HD
BRANCH   6  10
ATOM     10  C   UNL     1      -0.062   1.031   2.429  0.00  0.00    +0.019 C 
BRANCH  10  11
ATOM     11  C   UNL     1      -0.219  -0.468   2.465  0.00  0.00    +0.196 C 
ATOM     12  O   UNL     1      -0.724  -1.048   1.527  0.00  0.00    -0.278 OA
ATOM     13  N   UNL     1       0.203  -1.163   3.540  0.00  0.00    -0.317 N 
ATOM     14  H   UNL     1       0.661  -0.637   4.390  0.00  0.00    +0.149 HD
BRANCH  13  15
ATOM     15  C   UNL     1       0.051  -2.620   3.575  0.00  0.00    +0.106 C 
BRANCH  15  16
ATOM     16  C   UNL     1       0.606  -3.159   4.896  0.00  0.00    +0.047 C 
BRANCH  16  17
ATOM     17  C   UNL     1       0.447  -4.680   4.933  0.00  0.00    +0.161 C 
BRANCH  17  18
ATOM     18  O   UNL     1       0.965  -5.183   6.166  0.00  0.00    -0.383 OA
ATOM     19  C   UNL     1       0.865  -6.602   6.303  0.00  0.00    +0.193 C 
ENDBRANCH  17  18
ENDBRANCH  16  17
ENDBRANCH  15  16
ENDBRANCH  13  15
ENDBRANCH  10  11
ENDBRANCH   6  10
ENDBRANCH   1   3
BRANCH   1  21
ATOM     20  N   UNL     1      -0.655   5.690  -3.785  0.00  0.00    -0.278 N 
ATOM     21  C   UNL     1      -0.350   5.008  -2.663  0.00  0.00    +0.235 C 
ATOM     22  O   UNL     1       0.048   5.600  -1.682  0.00  0.00    -0.274 OA
ATOM     23  H   UNL     1      -1.015   5.153  -4.674  0.00  0.00    +0.155 HD
BRANCH  20  28
ATOM     24  C   UNL     1      -0.770   7.938  -4.870  0.00  0.00    +0.091 A 
ATOM     25  C   UNL     1      -0.544   9.355  -4.640  0.00  0.00    -0.021 A 
ATOM     26  C   UNL     1      -0.091   9.673  -3.408  0.00  0.00    -0.004 A 
ATOM     27  S   UNL     1       0.029   8.126  -2.556  0.00  0.00    -0.077 S 
ATOM     28  C   UNL     1      -0.515   7.069  -3.817  0.00  0.00    +0.086 A 
ATOM     29  C   UNL     1       0.236  11.040  -2.891  0.00  0.00    +0.043 C 
ATOM     30  C   UNL     1       0.337  11.998  -4.087  0.00  0.00    +0.005 C 
ATOM     31  C   UNL     1      -0.881  11.789  -4.991  0.00  0.00    +0.005 C 
ATOM     32  C   UNL     1      -0.783  10.433  -5.691  0.00  0.00    +0.037 C 
BRANCH  24  33
ATOM     33  C   UNL     1      -1.254   7.445  -6.161  0.00  0.00    +0.342 C 
ATOM     34  O   UNL     1      -2.449   7.350  -6.367  0.00  0.00    -0.245 OA
BRANCH  33  35
ATOM     35  O   UNL     1      -0.375   7.098  -7.123  0.00  0.00    -0.461 OA
BRANCH  35  37
ATOM     36  C   UNL     1       0.215   6.274  -9.337  0.00  0.00    +0.048 C 
ATOM     37  C   UNL     1      -0.926   6.618  -8.377  0.00  0.00    +0.229 C 
ENDBRANCH  35  37
ENDBRANCH  33  35
ENDBRANCH  24  33
ENDBRANCH  20  28
ENDBRANCH   1  21
TORSDOF 12
