REMARK  Name = ZINC12870834
REMARK  6 active torsions:
REMARK  status: ('A' for Active; 'I' for Inactive)
REMARK    1  A    between atoms: C_1  and  C_2
REMARK    2  A    between atoms: C_6  and  C_9
REMARK    3  A    between atoms: C_10  and  C_11
REMARK    4  A    between atoms: C_10  and  N_50
REMARK    5  A    between atoms: C_19  and  O_28
REMARK    6  A    between atoms: C_20  and  C_22
REMARK                            x       y       z     vdW  Elec       q    Type
REMARK                         _______ _______ _______ _____ _____    ______ ____
ROOT
ATOM      1  C   UNL     1      -2.394   3.925   0.100  0.00  0.00    -0.046 A 
ATOM      2  C   UNL     1      -2.113   5.251   0.167  0.00  0.00    +0.094 A 
ATOM      3  C   UNL     1      -0.770   5.683   0.207  0.00  0.00    +0.337 A 
ATOM      4  O   UNL     1      -0.532   6.876   0.268  0.00  0.00    -0.245 OA
ATOM      5  O   UNL     1       0.251   4.813   0.180  0.00  0.00    -0.422 OA
ATOM      6  C   UNL     1       0.040   3.479   0.115  0.00  0.00    +0.140 A 
ATOM      7  C   UNL     1      -1.275   2.980   0.072  0.00  0.00    +0.022 A 
ATOM      8  C   UNL     1      -1.502   1.601  -0.002  0.00  0.00    +0.057 A 
ATOM      9  C   UNL     1      -0.432   0.732  -0.022  0.00  0.00    +0.125 A 
ATOM     10  C   UNL     1       0.879   1.229   0.020  0.00  0.00    +0.027 A 
ATOM     11  C   UNL     1       1.109   2.598   0.088  0.00  0.00    +0.059 A 
ENDROOT
BRANCH  10  12
ATOM     12  C   UNL     1       2.025   0.289  -0.008  0.00  0.00    -0.014 A 
ATOM     13  C   UNL     1       3.068   0.484  -0.913  0.00  0.00    +0.008 A 
ATOM     14  C   UNL     1       4.135  -0.391  -0.930  0.00  0.00    +0.001 A 
ATOM     15  C   UNL     1       4.166  -1.466  -0.061  0.00  0.00    +0.000 A 
ATOM     16  C   UNL     1       3.131  -1.668   0.835  0.00  0.00    +0.001 A 
ATOM     17  C   UNL     1       2.062  -0.797   0.866  0.00  0.00    +0.008 A 
ENDBRANCH  10  12
BRANCH   9  18
ATOM     18  O   UNL     1      -0.647  -0.609  -0.089  0.00  0.00    -0.506 OA
ATOM     19  H   UNL     1      -0.723  -1.038   0.774  0.00  0.00    +0.292 HD
ENDBRANCH   9  18
BRANCH   1  20
ATOM     20  C   UNL     1      -3.820   3.437   0.056  0.00  0.00    -0.042 C 
BRANCH  20  28
ATOM     21  C   UNL     1      -6.949   0.914  -2.783  0.00  0.00    +0.036 C 
ATOM     22  C   UNL     1      -5.636   1.697  -2.748  0.00  0.00    +0.099 C 
ATOM     23  C   UNL     1      -5.368   2.182  -1.321  0.00  0.00    -0.047 C 
ATOM     24  C   UNL     1      -4.276   4.148  -2.214  0.00  0.00    -0.047 C 
ATOM     25  C   UNL     1      -4.555   3.643  -3.632  0.00  0.00    +0.099 C 
ATOM     26  O   UNL     1      -5.729   2.827  -3.620  0.00  0.00    -0.378 OA
ATOM     27  C   UNL     1      -4.772   4.836  -4.566  0.00  0.00    +0.036 C 
ATOM     28  N   UNL     1      -4.125   2.983  -1.318  0.00  0.00    +0.386 N 
ATOM     29  H   UNL     1      -3.351   2.399  -1.656  0.00  0.00    -0.081 HD
ENDBRANCH  20  28
ENDBRANCH   1  20
TORSDOF 4
