REMARK  Name = ZINC13078184
REMARK  8 active torsions:
REMARK  status: ('A' for Active; 'I' for Inactive)
REMARK    1  A    between atoms: C_1  and  C_2
REMARK    2  A    between atoms: C_3  and  C_12
REMARK    3  A    between atoms: C_4  and  C_11
REMARK    4  A    between atoms: CA_7  and  C_8
REMARK    5  A    between atoms: C_12  and  C_14
REMARK    6  A    between atoms: C_15  and  C_16
REMARK    7  A    between atoms: C_17  and  C_30
REMARK    8  A    between atoms: N_19  and  C_22
REMARK                            x       y       z     vdW  Elec       q    Type
REMARK                         _______ _______ _______ _____ _____    ______ ____
ROOT
ATOM      1  C   UNL     1       0.109  -1.354  -3.588  0.00  0.00    +0.052 C 
ATOM      2  C   UNL     1       0.200  -0.945  -4.875  0.00  0.00    +0.016 C 
ENDROOT
BRANCH   2   3
ATOM      3  C   UNL     1       0.316  -1.933  -5.953  0.00  0.00    +0.034 A 
ATOM      4  C   UNL     1      -0.459  -1.983  -7.136  0.00  0.00    +0.069 A 
ATOM      5  N   UNL     1      -0.056  -3.004  -7.840  0.00  0.00    -0.174 NA
ATOM      6  N   UNL     1       0.980  -3.650  -7.157  0.00  0.00    -0.248 N 
ATOM      7  C   UNL     1       1.210  -2.991  -6.008  0.00  0.00    +0.135 A 
ATOM      8 CL   UNL     1       2.402  -3.395  -4.812  0.00  0.00    -0.062 Cl
ATOM      9  C   UNL     1      -1.557  -1.024  -7.515  0.00  0.00    +0.068 C 
BRANCH   6  10
ATOM     10  C   UNL     1       1.698  -4.840  -7.620  0.00  0.00    +0.131 C 
ATOM     11  C   UNL     1       0.701  -5.995  -7.814  0.00  0.00    +0.051 C 
ATOM     12  C   UNL     1       1.421  -7.132  -8.593  0.00  0.00    +0.168 C 
ATOM     13  S   UNL     1       2.370  -6.146  -9.827  0.00  0.00    -0.029 S 
ATOM     14  O   UNL     1       1.595  -6.018 -11.011  0.00  0.00    -0.174 OA
ATOM     15  O   UNL     1       3.693  -6.657  -9.909  0.00  0.00    -0.174 OA
ATOM     16  C   UNL     1       2.406  -4.525  -8.960  0.00  0.00    +0.192 C 
ENDBRANCH   6  10
ENDBRANCH   2   3
BRANCH   1  17
ATOM     17  C   UNL     1      -0.003  -0.400  -2.547  0.00  0.00    +0.188 C 
ATOM     18  O   UNL     1      -0.113   0.783  -2.815  0.00  0.00    -0.287 OA
BRANCH  17  21
ATOM     19  C   UNL     1       2.593  -0.917  -0.778  0.00  0.00    +0.047 C 
ATOM     20  C   UNL     1       1.157  -1.071  -0.346  0.00  0.00    -0.008 A 
ATOM     21  C   UNL     1       0.013  -0.839  -1.138  0.00  0.00    +0.046 A 
ATOM     22  C   UNL     1      -1.091  -1.101  -0.347  0.00  0.00    +0.025 A 
ATOM     23  N   UNL     1      -0.662  -1.474   0.869  0.00  0.00    -0.352 N 
ATOM     24  H   UNL     1      -1.232  -1.715   1.617  0.00  0.00    +0.166 HD
ATOM     25  CA  UNL     1       0.717  -1.466   0.886  0.00  0.00    +0.132 A 
ATOM     26  C   UNL     1      -2.530  -0.985  -0.776  0.00  0.00    +0.064 C 
BRANCH  25  27
ATOM     27  C   UNL     1       1.563  -1.819   2.026  0.00  0.00    +0.403 C 
ATOM     28  O   UNL     1       1.052  -2.160   3.086  0.00  0.00    -0.239 OA
ATOM     29  OXT UNL     1       2.783  -1.772   1.922  0.00  0.00    -0.239 OA
ENDBRANCH  25  27
ENDBRANCH  17  21
ENDBRANCH   1  17
TORSDOF 5
