REMARK  Name = ZINC34715753
REMARK  8 active torsions:
REMARK  status: ('A' for Active; 'I' for Inactive)
REMARK    1  A    between atoms: C_1  and  C_2
REMARK    2  A    between atoms: C_2  and  N_3
REMARK    3  A    between atoms: C_8  and  C_25
REMARK    4  A    between atoms: C_11  and  C_14
REMARK    5  A    between atoms: N_16  and  C_17
REMARK    6  A    between atoms: C_17  and  C_18
REMARK    7  A    between atoms: C_22  and  C_24
REMARK    8  A    between atoms: C_29  and  C_31
REMARK                            x       y       z     vdW  Elec       q    Type
REMARK                         _______ _______ _______ _____ _____    ______ ____
ROOT
ATOM      1  N   UNL     1      -0.564  -2.701  -0.012  0.00  0.00    -0.300 N 
ATOM      2  C   UNL     1      -1.601  -1.839   0.007  0.00  0.00    +0.302 C 
ATOM      3  O   UNL     1      -1.397  -0.645   0.108  0.00  0.00    -0.253 OA
ATOM      4  N   UNL     1      -2.863  -2.302  -0.085  0.00  0.00    -0.284 N 
ATOM      5  C   UNL     1      -3.133  -3.746  -0.085  0.00  0.00    +0.117 C 
ATOM      6  C   UNL     1      -4.158  -4.057   1.010  0.00  0.00    +0.037 C 
ATOM      7  C   UNL     1      -5.399  -3.185   0.804  0.00  0.00    +0.024 C 
ATOM      8  C   UNL     1      -5.011  -1.709   0.910  0.00  0.00    +0.093 C 
ATOM      9  C   UNL     1      -3.996  -1.371  -0.180  0.00  0.00    +0.122 C 
ATOM     10  H   UNL     1      -0.728  -3.657  -0.019  0.00  0.00    +0.150 HD
ENDROOT
BRANCH   6  11
ATOM     11  C   UNL     1      -4.546  -5.511   0.938  0.00  0.00    -0.042 A 
ATOM     12  C   UNL     1      -5.119  -6.017  -0.215  0.00  0.00    +0.007 A 
ATOM     13  C   UNL     1      -5.474  -7.350  -0.282  0.00  0.00    +0.039 A 
ATOM     14  C   UNL     1      -5.258  -8.180   0.805  0.00  0.00    +0.126 A 
ATOM     15  C   UNL     1      -4.685  -7.673   1.959  0.00  0.00    -0.015 A 
ATOM     16  C   UNL     1      -4.324  -6.340   2.022  0.00  0.00    +0.010 A 
ATOM     17  C   UNL     1      -4.449  -8.574   3.143  0.00  0.00    +0.047 C 
ATOM     18  F   UNL     1      -5.606  -9.484   0.741  0.00  0.00    -0.205 F 
ENDBRANCH   6  11
BRANCH   8  19
ATOM     19  C   UNL     1      -4.398  -1.446   2.262  0.00  0.00    +0.218 C 
ATOM     20  O   UNL     1      -4.283  -2.350   3.062  0.00  0.00    -0.275 OA
ATOM     21  N   UNL     1      -3.978  -0.205   2.581  0.00  0.00    -0.311 N 
ATOM     22  H   UNL     1      -4.071   0.518   1.942  0.00  0.00    +0.149 HD
BRANCH  21  23
ATOM     23  C   UNL     1      -3.383   0.050   3.895  0.00  0.00    +0.139 C 
BRANCH  23  24
ATOM     24  C   UNL     1      -3.001   1.504   3.999  0.00  0.00    -0.030 A 
ATOM     25  C   UNL     1      -1.744   1.919   3.600  0.00  0.00    +0.005 A 
ATOM     26  C   UNL     1      -1.394   3.253   3.695  0.00  0.00    +0.001 A 
ATOM     27  C   UNL     1      -2.301   4.172   4.190  0.00  0.00    +0.003 A 
ATOM     28  C   UNL     1      -3.557   3.757   4.588  0.00  0.00    -0.050 A 
ATOM     29  C   UNL     1      -3.909   2.424   4.489  0.00  0.00    +0.008 A 
ATOM     30  C   UNL     1      -4.545   4.759   5.128  0.00  0.00    +0.044 C 
ENDBRANCH  23  24
ENDBRANCH  21  23
ENDBRANCH   8  19
BRANCH   1  32
ATOM     31  C   UNL     1       1.788  -3.370  -0.043  0.00  0.00    +0.024 C 
ATOM     32  C   UNL     1       0.810  -2.193  -0.022  0.00  0.00    +0.102 C 
ENDBRANCH   1  32
TORSDOF 5
