REMARK  Name = ZINC20617078
REMARK  12 active torsions:
REMARK  status: ('A' for Active; 'I' for Inactive)
REMARK    1  A    between atoms: C_1  and  C_2
REMARK    2  A    between atoms: C_5  and  N_8
REMARK    3  A    between atoms: C_9  and  C_11
REMARK    4  A    between atoms: C_14  and  C_33
REMARK    5  A    between atoms: C_17  and  C_32
REMARK    6  A    between atoms: N_21  and  C_22
REMARK    7  A    between atoms: C_25  and  C_28
REMARK    8  A    between atoms: C_28  and  O_30
REMARK    9  A    between atoms: O_30  and  C_31
REMARK   10  A    between atoms: C_33  and  O_34
REMARK   11  A    between atoms: O_34  and  C_35
REMARK   12  A    between atoms: C_35  and  C_37
REMARK                            x       y       z     vdW  Elec       q    Type
REMARK                         _______ _______ _______ _____ _____    ______ ____
ROOT
ATOM      1  C   UNL     1      -4.820   0.957   0.292  0.00  0.00    +0.098 A 
ATOM      2  C   UNL     1      -6.048   1.591   0.418  0.00  0.00    +0.030 A 
ATOM      3  C   UNL     1      -7.233   0.738   0.526  0.00  0.00    +0.028 A 
ATOM      4  C   UNL     1      -8.528   1.252   0.389  0.00  0.00    +0.018 A 
ATOM      5  C   UNL     1      -9.595   0.385   0.503  0.00  0.00    +0.118 A 
ATOM      6  N   UNL     1      -9.410  -0.901   0.736  0.00  0.00    -0.256 NA
ATOM      7  C   UNL     1      -8.212  -1.433   0.874  0.00  0.00    +0.081 A 
ATOM      8  C   UNL     1      -7.077  -0.639   0.777  0.00  0.00    +0.159 A 
ATOM      9  O   UNL     1      -5.837  -1.161   0.919  0.00  0.00    -0.437 OA
ATOM     10  C   UNL     1      -4.822  -0.519   0.286  0.00  0.00    +0.212 A 
ATOM     11  N   UNL     1      -3.865  -1.196  -0.316  0.00  0.00    -0.325 N 
ATOM     12  C   UNL     1      -8.074  -2.910   1.139  0.00  0.00    +0.069 C 
ATOM     13  H   UNL     1      -3.003  -0.664  -0.745  0.00  0.00    +0.169 HD
ENDROOT
BRANCH  11  14
ATOM     14  C   UNL     1      -3.943  -2.552  -0.406  0.00  0.00    +0.042 A 
ATOM     15  C   UNL     1      -3.311  -3.355   0.552  0.00  0.00    +0.026 A 
ATOM     16  C   UNL     1      -3.393  -4.714   0.464  0.00  0.00    +0.017 A 
ATOM     17  C   UNL     1      -4.099  -5.306  -0.590  0.00  0.00    +0.059 A 
ATOM     18  C   UNL     1      -4.727  -4.504  -1.550  0.00  0.00    +0.017 A 
ATOM     19  C   UNL     1      -4.650  -3.145  -1.460  0.00  0.00    +0.026 A 
BRANCH  17  20
ATOM     20  C   UNL     1      -4.183  -6.773  -0.687  0.00  0.00    +0.339 C 
ATOM     21  O   UNL     1      -4.797  -7.287  -1.602  0.00  0.00    -0.245 OA
BRANCH  20  22
ATOM     22  O   UNL     1      -3.579  -7.545   0.237  0.00  0.00    -0.464 OA
ATOM     23  C   UNL     1      -3.703  -8.983   0.078  0.00  0.00    +0.280 C 
ENDBRANCH  20  22
ENDBRANCH  17  20
ENDBRANCH  11  14
BRANCH   1  25
ATOM     24  N   UNL     1      -2.389   1.078   0.058  0.00  0.00    -0.281 N 
ATOM     25  C   UNL     1      -3.567   1.724   0.173  0.00  0.00    +0.253 C 
ATOM     26  O   UNL     1      -3.595   2.940   0.181  0.00  0.00    -0.270 OA
ATOM     27  H   UNL     1      -2.370  -0.018  -0.034  0.00  0.00    +0.155 HD
BRANCH  24  32
ATOM     28  C   UNL     1       2.469   4.005   0.049  0.00  0.00    +0.044 C 
ATOM     29  C   UNL     1       1.177   3.229   0.049  0.00  0.00    -0.050 A 
ATOM     30  C   UNL     1       0.105   3.674   0.801  0.00  0.00    +0.005 A 
ATOM     31  C   UNL     1      -1.080   2.965   0.803  0.00  0.00    +0.023 A 
ATOM     32  C   UNL     1      -1.193   1.802   0.053  0.00  0.00    +0.034 A 
ATOM     33  C   UNL     1      -0.116   1.360  -0.705  0.00  0.00    +0.023 A 
ATOM     34  C   UNL     1       1.067   2.074  -0.703  0.00  0.00    +0.005 A 
ENDBRANCH  24  32
ENDBRANCH   1  25
BRANCH   4  35
ATOM     35  C   UNL     1      -8.751   2.718   0.122  0.00  0.00    +0.269 C 
BRANCH  35  36
ATOM     36  O   UNL     1     -10.176   2.981   0.025  0.00  0.00    -0.460 OA
BRANCH  36  37
ATOM     37  C   UNL     1     -10.547   4.249  -0.212  0.00  0.00    +0.304 C 
ATOM     38  O   UNL     1      -9.709   5.111  -0.334  0.00  0.00    -0.251 OA
ATOM     39  C   UNL     1     -12.008   4.598  -0.326  0.00  0.00    +0.136 C 
ENDBRANCH  36  37
ENDBRANCH  35  36
ENDBRANCH   4  35
TORSDOF 8
