REMARK  Name = ZINC35929636
REMARK  8 active torsions:
REMARK  status: ('A' for Active; 'I' for Inactive)
REMARK    1  A    between atoms: C_1  and  C_2
REMARK    2  A    between atoms: C_2  and  C_3
REMARK    3  A    between atoms: C_2  and  C_4
REMARK    4  A    between atoms: C_7  and  N_10
REMARK    5  A    between atoms: C_11  and  N_33
REMARK    6  A    between atoms: C_13  and  C_27
REMARK    7  A    between atoms: N_19  and  C_20
REMARK    8  A    between atoms: C_20  and  C_21
REMARK                            x       y       z     vdW  Elec       q    Type
REMARK                         _______ _______ _______ _____ _____    ______ ____
ROOT
ATOM      1  N   UNL     1      -5.498  -1.969  -0.439  0.00  0.00    -0.239 N 
ATOM      2  C   UNL     1      -5.752  -3.283  -0.280  0.00  0.00    +0.129 A 
ATOM      3  C   UNL     1      -7.010  -3.398   0.301  0.00  0.00    +0.084 A 
ATOM      4  C   UNL     1      -7.840  -4.463   0.716  0.00  0.00    +0.089 A 
ATOM      5  N   UNL     1      -9.020  -4.170   1.247  0.00  0.00    -0.214 NA
ATOM      6  C   UNL     1      -9.436  -2.917   1.398  0.00  0.00    +0.218 A 
ATOM      7  N   UNL     1      -8.728  -1.866   1.040  0.00  0.00    -0.195 NA
ATOM      8  C   UNL     1      -7.510  -2.023   0.486  0.00  0.00    +0.162 A 
ATOM      9  N   UNL     1      -6.575  -1.214   0.038  0.00  0.00    -0.274 N 
ATOM     10  N   UNL     1     -10.682  -2.705   1.962  0.00  0.00    -0.308 N 
ATOM     11  H   UNL     1     -11.225  -3.461   2.235  0.00  0.00    +0.149 HD
ATOM     12  H   UNL     1      -6.626  -0.245   0.036  0.00  0.00    +0.189 HD
ENDROOT
BRANCH   1  16
ATOM     13  C   UNL     1      -2.011  -0.391  -2.087  0.00  0.00    -0.045 A 
ATOM     14  C   UNL     1      -2.534   0.153  -0.928  0.00  0.00    +0.006 A 
ATOM     15  C   UNL     1      -3.690  -0.368  -0.379  0.00  0.00    +0.028 A 
ATOM     16  C   UNL     1      -4.327  -1.439  -0.993  0.00  0.00    +0.065 A 
ATOM     17  C   UNL     1      -3.799  -1.982  -2.157  0.00  0.00    +0.028 A 
ATOM     18  C   UNL     1      -2.646  -1.454  -2.703  0.00  0.00    +0.006 A 
BRANCH  13  20
ATOM     19  C   UNL     1      -0.970   1.654  -3.026  0.00  0.00    +0.012 C 
ATOM     20  C   UNL     1      -0.750   0.180  -2.683  0.00  0.00    +0.013 C 
ATOM     21  C   UNL     1       0.393   0.056  -1.673  0.00  0.00    +0.012 C 
ENDBRANCH  13  20
ENDBRANCH   1  16
BRANCH   4  22
ATOM     22  C   UNL     1      -7.404  -5.870   0.560  0.00  0.00    +0.001 A 
ATOM     23  C   UNL     1      -6.112  -6.247   0.927  0.00  0.00    +0.010 A 
ATOM     24  C   UNL     1      -5.713  -7.560   0.781  0.00  0.00    +0.001 A 
ATOM     25  C   UNL     1      -6.590  -8.500   0.271  0.00  0.00    +0.000 A 
ATOM     26  C   UNL     1      -7.872  -8.132  -0.095  0.00  0.00    +0.001 A 
ATOM     27  C   UNL     1      -8.286  -6.824   0.052  0.00  0.00    +0.010 A 
ENDBRANCH   4  22
BRANCH   2  28
ATOM     28  N   UNL     1      -4.916  -4.326  -0.630  0.00  0.00    -0.343 N 
ATOM     29  H   UNL     1      -3.970  -4.164  -0.766  0.00  0.00    +0.144 HD
ATOM     30  H   UNL     1      -5.276  -5.220  -0.741  0.00  0.00    +0.144 HD
ENDBRANCH   2  28
BRANCH  10  31
ATOM     31  C   UNL     1     -11.180  -1.340   2.146  0.00  0.00    +0.160 C 
BRANCH  31  32
ATOM     32  C   UNL     1     -12.548  -1.385   2.775  0.00  0.00    +0.058 A 
ATOM     33  C   UNL     1     -12.675  -1.260   4.146  0.00  0.00    +0.025 A 
ATOM     34  C   UNL     1     -13.939  -1.303   4.714  0.00  0.00    +0.003 A 
ATOM     35  C   UNL     1     -15.033  -1.470   3.878  0.00  0.00    +0.020 A 
ATOM     36  C   UNL     1     -14.829  -1.588   2.517  0.00  0.00    +0.111 A 
ATOM     37  N   UNL     1     -13.612  -1.537   2.010  0.00  0.00    -0.258 NA
ENDBRANCH  31  32
ENDBRANCH  10  31
TORSDOF 6
