REMARK  Name = ZINC13496528
REMARK  4 active torsions:
REMARK  status: ('A' for Active; 'I' for Inactive)
REMARK    1  A    between atoms: C_1  and  C_2
REMARK    2  A    between atoms: N_13  and  C_16
REMARK    3  A    between atoms: C_16  and  C_17
REMARK    4  A    between atoms: N_19  and  N_20
REMARK                            x       y       z     vdW  Elec       q    Type
REMARK                         _______ _______ _______ _____ _____    ______ ____
ROOT
ATOM      1  C   UNL     1      -2.164  -7.406   0.426  0.00  0.00    +0.223 C 
ENDROOT
BRANCH   1  13
ATOM      2  C   UNL     1      -0.019   1.526   0.010  0.00  0.00    +0.008 C 
ATOM      3  C   UNL     1       0.002  -0.004   0.002  0.00  0.00    -0.009 C 
ATOM      4  C   UNL     1      -1.433  -0.537   0.021  0.00  0.00    +0.008 C 
ATOM      5  C   UNL     1      -1.430  -2.044  -0.237  0.00  0.00    +0.037 C 
ATOM      6  C   UNL     1      -0.472  -2.712   0.745  0.00  0.00    -0.023 A 
ATOM      7  C   UNL     1       0.476  -1.985   1.383  0.00  0.00    -0.004 A 
ATOM      8  S   UNL     1       1.343  -3.148   2.406  0.00  0.00    -0.073 S 
ATOM      9  C   UNL     1       0.437  -4.601   1.978  0.00  0.00    +0.116 A 
ATOM     10  C   UNL     1      -0.517  -4.131   1.048  0.00  0.00    +0.076 A 
ATOM     11  C   UNL     1      -1.426  -5.099   0.502  0.00  0.00    +0.263 A 
ATOM     12  O   UNL     1      -2.286  -4.796  -0.308  0.00  0.00    -0.267 OA
ATOM     13  N   UNL     1      -1.267  -6.369   0.944  0.00  0.00    -0.290 N 
ATOM     14  C   UNL     1      -0.319  -6.726   1.843  0.00  0.00    +0.203 A 
ATOM     15  N   UNL     1       0.532  -5.869   2.365  0.00  0.00    -0.230 NA
ATOM     16  C   UNL     1       0.737  -0.516   1.249  0.00  0.00    +0.046 C 
ENDBRANCH   1  13
BRANCH   1  17
ATOM     17  C   UNL     1      -1.562  -8.017  -0.813  0.00  0.00    +0.252 C 
ATOM     18  O   UNL     1      -0.490  -7.626  -1.223  0.00  0.00    -0.272 OA
ATOM     19  N   UNL     1      -2.216  -8.999  -1.465  0.00  0.00    -0.205 N 
ATOM     20  H   UNL     1      -3.073  -9.312  -1.137  0.00  0.00    +0.177 HD
BRANCH  19  21
ATOM     21  N   UNL     1      -1.656  -9.568  -2.617  0.00  0.00    -0.174 NA
ATOM     22  C   UNL     1      -2.292 -10.523  -3.251  0.00  0.00    +0.152 C 
ATOM     23  C   UNL     1      -1.856 -11.240  -4.472  0.00  0.00    +0.028 A 
ATOM     24  C   UNL     1      -0.728 -11.148  -5.279  0.00  0.00    +0.012 A 
ATOM     25  C   UNL     1      -0.602 -11.974  -6.378  0.00  0.00    +0.001 A 
ATOM     26  C   UNL     1      -1.597 -12.891  -6.674  0.00  0.00    +0.002 A 
ATOM     27  C   UNL     1      -2.720 -12.990  -5.878  0.00  0.00    +0.024 A 
ATOM     28  C   UNL     1      -2.864 -12.166  -4.768  0.00  0.00    +0.043 A 
ATOM     29  N   UNL     1      -3.876 -12.063  -3.819  0.00  0.00    -0.280 N 
ATOM     30  C   UNL     1      -3.595 -11.122  -2.901  0.00  0.00    +0.269 C 
ATOM     31  O   UNL     1      -4.293 -10.816  -1.953  0.00  0.00    -0.268 OA
ATOM     32  H   UNL     1      -4.681 -12.605  -3.817  0.00  0.00    +0.155 HD
ENDBRANCH  19  21
ENDBRANCH   1  17
TORSDOF 3
