REMARK  Name = ZINC63506828
REMARK  8 active torsions:
REMARK  status: ('A' for Active; 'I' for Inactive)
REMARK    1  A    between atoms: C_1  and  C_2
REMARK    2  A    between atoms: C_4  and  C_14
REMARK    3  A    between atoms: C_7  and  O_12
REMARK    4  A    between atoms: O_12  and  C_13
REMARK    5  A    between atoms: C_14  and  C_15
REMARK    6  A    between atoms: C_15  and  N_16
REMARK    7  A    between atoms: C_21  and  C_22
REMARK    8  A    between atoms: C_21  and  O_23
REMARK                            x       y       z     vdW  Elec       q    Type
REMARK                         _______ _______ _______ _____ _____    ______ ____
ROOT
ATOM      1  C   UNL     1       1.363  -0.963  -3.578  0.00  0.00    +0.118 C 
ENDROOT
BRANCH   1   2
ATOM      2  N   UNL     1       0.997  -0.729  -4.977  0.00  0.00    -0.235 N 
ATOM      3  C   UNL     1       0.184  -1.501  -5.725  0.00  0.00    +0.406 C 
ATOM      4  O   UNL     1      -0.373  -2.495  -5.304  0.00  0.00    -0.226 OA
ATOM      5  O   UNL     1       0.054  -1.053  -6.987  0.00  0.00    -0.439 OA
ATOM      6  C   UNL     1       0.480   0.316  -7.014  0.00  0.00    +0.160 C 
ATOM      7  C   UNL     1       1.448   0.398  -5.820  0.00  0.00    +0.175 C 
ATOM      8  C   UNL     1       1.294   1.728  -5.080  0.00  0.00    +0.068 C 
ATOM      9  C   UNL     1       1.207   0.631  -8.315  0.00  0.00    +0.053 C 
ATOM     10  C   UNL     1       0.231   0.517  -9.488  0.00  0.00    +0.004 C 
ATOM     11  C   UNL     1      -0.932   1.489  -9.278  0.00  0.00    +0.000 C 
ATOM     12  C   UNL     1      -1.667   1.139  -7.983  0.00  0.00    +0.004 C 
ATOM     13  C   UNL     1      -0.699   1.255  -6.802  0.00  0.00    +0.053 C 
BRANCH   7  14
ATOM     14  O   UNL     1       2.798   0.207  -6.247  0.00  0.00    -0.368 OA
ATOM     15  H   UNL     1       3.437   0.160  -5.522  0.00  0.00    +0.212 HD
ENDBRANCH   7  14
ENDBRANCH   1   2
BRANCH   1  16
ATOM     16  C   UNL     1       0.352  -0.269  -2.664  0.00  0.00    +0.052 C 
BRANCH  16  19
ATOM     17  C   UNL     1      -0.019   1.526   0.010  0.00  0.00    +0.035 C 
ATOM     18  C   UNL     1       0.002  -0.004   0.002  0.00  0.00    +0.103 C 
ATOM     19  C   UNL     1       0.729  -0.509  -1.224  0.00  0.00    -0.037 C 
ATOM     20  C   UNL     1       1.785  -1.220  -0.768  0.00  0.00    +0.003 A 
ATOM     21  C   UNL     1       2.858  -1.954  -1.447  0.00  0.00    +0.055 A 
ATOM     22  C   UNL     1       3.803  -2.586  -0.711  0.00  0.00    +0.121 A 
ATOM     23  C   UNL     1       3.796  -2.567   0.695  0.00  0.00    +0.047 A 
ATOM     24  C   UNL     1       2.851  -1.919   1.409  0.00  0.00    +0.029 A 
ATOM     25  C   UNL     1       1.779  -1.200   0.713  0.00  0.00    +0.043 A 
ATOM     26  N   UNL     1       0.758  -0.506   1.155  0.00  0.00    -0.378 N 
ATOM     27  H   UNL     1       0.540  -0.349   2.087  0.00  0.00    +0.160 HD
BRANCH  22  28
ATOM     28  O   UNL     1       4.792  -3.263  -1.353  0.00  0.00    -0.495 OA
ATOM     29  C   UNL     1       5.767  -3.915  -0.537  0.00  0.00    +0.277 C 
ENDBRANCH  22  28
ENDBRANCH  16  19
ENDBRANCH   1  16
TORSDOF 5
