REMARK  Name = ZINC08343471
REMARK  8 active torsions:
REMARK  status: ('A' for Active; 'I' for Inactive)
REMARK    1  A    between atoms: C_1  and  C_2
REMARK    2  A    between atoms: C_2  and  C_3
REMARK    3  A    between atoms: C_3  and  N_4
REMARK    4  A    between atoms: C_13  and  C_15
REMARK    5  A    between atoms: N_17  and  N_18
REMARK    6  A    between atoms: C_21  and  C_28
REMARK    7  A    between atoms: C_24  and  C_26
REMARK    8  A    between atoms: C_24  and  C_27
REMARK                            x       y       z     vdW  Elec       q    Type
REMARK                         _______ _______ _______ _____ _____    ______ ____
ROOT
ATOM      1  N   UNL     1       1.197  -0.631  -0.022  0.00  0.00    -0.228 N 
ATOM      2  C   UNL     1       0.002  -0.005  -0.003  0.00  0.00    +0.275 A 
ATOM      3  O   UNL     1      -1.035  -0.642   0.000  0.00  0.00    -0.266 OA
ATOM      4  C   UNL     1      -0.018   1.464   0.014  0.00  0.00    +0.050 A 
ATOM      5  C   UNL     1      -1.196   2.204   0.040  0.00  0.00    +0.014 A 
ATOM      6  C   UNL     1      -1.129   3.581   0.050  0.00  0.00    +0.001 A 
ATOM      7  C   UNL     1       0.098   4.232   0.045  0.00  0.00    +0.001 A 
ATOM      8  C   UNL     1       1.276   3.517   0.024  0.00  0.00    +0.011 A 
ATOM      9  C   UNL     1       1.231   2.127   0.008  0.00  0.00    +0.020 A 
ATOM     10  C   UNL     1       2.442   1.290  -0.014  0.00  0.00    +0.155 A 
ATOM     11  N   UNL     1       2.318  -0.015  -0.027  0.00  0.00    -0.163 NA
ENDROOT
BRANCH  10  12
ATOM     12  C   UNL     1       3.780   1.913  -0.021  0.00  0.00    +0.284 C 
ATOM     13  O   UNL     1       3.887   3.124  -0.009  0.00  0.00    -0.267 OA
ATOM     14  N   UNL     1       4.883   1.139  -0.042  0.00  0.00    -0.202 N 
ATOM     15  H   UNL     1       4.798   0.173  -0.052  0.00  0.00    +0.178 HD
BRANCH  14  16
ATOM     16  N   UNL     1       6.154   1.731  -0.049  0.00  0.00    -0.189 NA
ATOM     17  C   UNL     1       7.201   0.999   0.034  0.00  0.00    +0.038 C 
ATOM     18  C   UNL     1       7.095  -0.510   0.029  0.00  0.00    +0.055 C 
ATOM     19  C   UNL     1       7.876  -1.057   1.228  0.00  0.00    -0.008 C 
ATOM     20  C   UNL     1       9.310  -0.526   1.185  0.00  0.00    +0.010 C 
ATOM     21  C   UNL     1       9.303   0.996   1.333  0.00  0.00    -0.029 C 
ATOM     22  C   UNL     1       8.576   1.621   0.132  0.00  0.00    +0.059 C 
ATOM     23  C   UNL     1       8.583   1.380   2.627  0.00  0.00    +0.011 C 
ATOM     24  C   UNL     1      10.744   1.511   1.379  0.00  0.00    +0.011 C 
ATOM     25  C   UNL     1       7.897  -2.586   1.169  0.00  0.00    +0.008 C 
ENDBRANCH  14  16
ENDBRANCH  10  12
BRANCH   1  26
ATOM     26  C   UNL     1       1.211  -2.096  -0.039  0.00  0.00    +0.147 C 
BRANCH  26  28
ATOM     27  C   UNL     1       1.217  -4.119  -1.506  0.00  0.00    +0.005 C 
ATOM     28  C   UNL     1       1.202  -2.589  -1.488  0.00  0.00    +0.020 C 
ENDBRANCH  26  28
ENDBRANCH   1  26
TORSDOF 4
