REMARK  Name = ZINC35057393
REMARK  9 active torsions:
REMARK  status: ('A' for Active; 'I' for Inactive)
REMARK    1  A    between atoms: C_1  and  C_2
REMARK    2  A    between atoms: C_2  and  C_4
REMARK    3  A    between atoms: C_2  and  O_7
REMARK    4  A    between atoms: O_7  and  C_8
REMARK    5  A    between atoms: C_10  and  N_40
REMARK    6  A    between atoms: C_12  and  O_29
REMARK    7  A    between atoms: C_20  and  C_24
REMARK    8  A    between atoms: O_29  and  C_30
REMARK    9  A    between atoms: C_41  and  C_43
REMARK                            x       y       z     vdW  Elec       q    Type
REMARK                         _______ _______ _______ _____ _____    ______ ____
ROOT
ATOM      1  C   UNL     1       1.921  -0.548  -1.252  0.00  0.00    +0.177 C 
ATOM      2  C   UNL     1       2.658   0.781  -1.459  0.00  0.00    +0.173 C 
ATOM      3  C   UNL     1       2.381   1.310  -2.868  0.00  0.00    +0.331 C 
ATOM      4  O   UNL     1       2.755   0.329  -3.841  0.00  0.00    -0.332 OA
ATOM      5  C   UNL     1       2.038  -0.896  -3.712  0.00  0.00    +0.179 C 
ATOM      6  C   UNL     1       2.358  -1.524  -2.345  0.00  0.00    +0.183 C 
ATOM      7  O   UNL     1       1.665  -2.766  -2.233  0.00  0.00    -0.336 OA
ATOM      8  C   UNL     1       2.022  -3.701  -3.258  0.00  0.00    +0.319 C 
ATOM      9  O   UNL     1       1.762  -3.141  -4.546  0.00  0.00    -0.342 OA
ATOM     10  C   UNL     1       2.441  -1.891  -4.803  0.00  0.00    +0.197 C 
ENDROOT
BRANCH   8  11
ATOM     11  C   UNL     1       3.488  -4.030  -3.145  0.00  0.00    +0.161 A 
ATOM     12  C   UNL     1       4.169  -4.870  -3.946  0.00  0.00    +0.050 A 
ATOM     13  C   UNL     1       5.506  -4.881  -3.485  0.00  0.00    +0.041 A 
ATOM     14  C   UNL     1       5.561  -4.048  -2.430  0.00  0.00    +0.195 A 
ATOM     15  O   UNL     1       4.337  -3.531  -2.232  0.00  0.00    -0.463 OA
ENDBRANCH   8  11
BRANCH   2  16
ATOM     16  N   UNL     1       2.190   1.757  -0.472  0.00  0.00    -0.304 N 
ATOM     17  C   UNL     1       2.994   2.769  -0.090  0.00  0.00    +0.210 C 
ATOM     18  O   UNL     1       4.106   2.871  -0.564  0.00  0.00    -0.276 OA
ATOM     19  C   UNL     1       2.513   3.773   0.925  0.00  0.00    +0.109 C 
ATOM     20  H   UNL     1       1.300   1.676  -0.093  0.00  0.00    +0.149 HD
ENDBRANCH   2  16
BRANCH   1  21
ATOM     21  O   UNL     1       0.511  -0.333  -1.336  0.00  0.00    -0.358 OA
BRANCH  21  23
ATOM     22  C   UNL     1      -0.424  -0.520   0.884  0.00  0.00    +0.050 C 
ATOM     23  C   UNL     1      -0.258  -1.184  -0.484  0.00  0.00    +0.228 C 
BRANCH  23  24
ATOM     24  C   UNL     1      -1.615  -1.415  -1.098  0.00  0.00    +0.384 C 
ATOM     25  O   UNL     1      -1.931  -0.828  -2.118  0.00  0.00    -0.243 OA
ATOM     26  O   UNL     1      -2.397  -2.190  -0.573  0.00  0.00    -0.243 OA
ENDBRANCH  23  24
ENDBRANCH  21  23
ENDBRANCH   1  21
BRANCH   3  27
ATOM     27  O   UNL     1       0.988   1.599  -3.000  0.00  0.00    -0.462 OA
BRANCH  27  28
ATOM     28  C   UNL     1       0.587   2.179  -4.162  0.00  0.00    +0.125 A 
ATOM     29  C   UNL     1       1.529   2.455  -5.157  0.00  0.00    +0.046 A 
ATOM     30  C   UNL     1       1.158   3.034  -6.330  0.00  0.00    +0.012 A 
ATOM     31  C   UNL     1      -0.192   3.361  -6.550  0.00  0.00    -0.018 A 
ATOM     32  C   UNL     1      -0.610   3.960  -7.750  0.00  0.00    +0.008 A 
ATOM     33  C   UNL     1      -1.925   4.263  -7.930  0.00  0.00    +0.001 A 
ATOM     34  C   UNL     1      -2.866   3.988  -6.939  0.00  0.00    +0.001 A 
ATOM     35  C   UNL     1      -2.498   3.409  -5.764  0.00  0.00    +0.008 A 
ATOM     36  C   UNL     1      -1.149   3.082  -5.543  0.00  0.00    -0.014 A 
ATOM     37  C   UNL     1      -0.733   2.478  -4.344  0.00  0.00    +0.054 A 
ENDBRANCH  27  28
ENDBRANCH   3  27
TORSDOF 7
