REMARK  Name = ZINC67460040
REMARK  7 active torsions:
REMARK  status: ('A' for Active; 'I' for Inactive)
REMARK    1  A    between atoms: C_4  and  C_7
REMARK    2  A    between atoms: C_8  and  C_9
REMARK    3  A    between atoms: C_9  and  N_10
REMARK    4  A    between atoms: C_14  and  C_17
REMARK    5  A    between atoms: C_17  and  N_18
REMARK    6  A    between atoms: C_19  and  C_21
REMARK    7  A    between atoms: C_23  and  N_27
REMARK                            x       y       z     vdW  Elec       q    Type
REMARK                         _______ _______ _______ _____ _____    ______ ____
ROOT
ATOM      1  N   UNL     1       5.087  -3.681   1.066  0.00  0.00    +0.382 N 
ATOM      2  C   UNL     1       4.057  -4.712   0.892  0.00  0.00    -0.078 C 
ATOM      3  C   UNL     1       4.054  -5.645   2.105  0.00  0.00    -0.018 C 
ATOM      4  C   UNL     1       5.428  -6.310   2.234  0.00  0.00    +0.001 C 
ATOM      5  C   UNL     1       6.502  -5.223   2.340  0.00  0.00    -0.011 C 
ATOM      6  C   UNL     1       6.414  -4.306   1.118  0.00  0.00    -0.073 C 
ATOM      7  H   UNL     1       4.918  -3.181   1.926  0.00  0.00    -0.081 HD
ENDROOT
BRANCH   1   8
ATOM      8  C   UNL     1       5.033  -2.743  -0.063  0.00  0.00    -0.051 C 
BRANCH   8  10
ATOM      9  C   UNL     1       3.695  -0.685  -0.038  0.00  0.00    +0.002 C 
ATOM     10  C   UNL     1       3.716  -2.010  -0.046  0.00  0.00    -0.045 C 
BRANCH   9  14
ATOM     11  C   UNL     1      -0.017   1.379   0.010  0.00  0.00    +0.000 A 
ATOM     12  C   UNL     1       1.168   2.093   0.002  0.00  0.00    +0.001 A 
ATOM     13  C   UNL     1       2.377   1.429  -0.013  0.00  0.00    +0.008 A 
ATOM     14  C   UNL     1       2.403   0.034  -0.021  0.00  0.00    -0.025 A 
ATOM     15  C   UNL     1       1.204  -0.681  -0.013  0.00  0.00    +0.008 A 
ATOM     16  C   UNL     1       0.002  -0.004   0.002  0.00  0.00    +0.001 A 
ENDBRANCH   9  14
ENDBRANCH   8  10
ENDBRANCH   1   8
BRANCH   5  17
ATOM     17  C   UNL     1       7.885  -5.875   2.391  0.00  0.00    +0.106 C 
BRANCH  17  18
ATOM     18  N   UNL     1       8.008  -6.662   3.621  0.00  0.00    -0.310 N 
ATOM     19  C   UNL     1       9.149  -7.330   3.882  0.00  0.00    +0.264 C 
ATOM     20  O   UNL     1      10.077  -7.280   3.097  0.00  0.00    -0.268 OA
ATOM     21  H   UNL     1       7.269  -6.703   4.247  0.00  0.00    +0.149 HD
BRANCH  19  22
ATOM     22  C   UNL     1       9.274  -8.124   5.122  0.00  0.00    +0.149 A 
ATOM     23  C   UNL     1      10.406  -8.864   5.521  0.00  0.00    +0.077 A 
ATOM     24  C   UNL     1      10.120  -9.447   6.714  0.00  0.00    +0.112 A 
ATOM     25  N   UNL     1       8.853  -9.091   7.057  0.00  0.00    -0.264 N 
ATOM     26  H   UNL     1       8.384  -9.363   7.861  0.00  0.00    +0.190 HD
ATOM     27  N   UNL     1       8.347  -8.260   6.050  0.00  0.00    -0.168 NA
BRANCH  24  28
ATOM     28  N   UNL     1      10.971 -10.265   7.452  0.00  0.00    -0.343 N 
ATOM     29  H   UNL     1      11.861 -10.463   7.122  0.00  0.00    +0.144 HD
ATOM     30  H   UNL     1      10.674 -10.637   8.297  0.00  0.00    +0.144 HD
ENDBRANCH  24  28
ENDBRANCH  19  22
ENDBRANCH  17  18
ENDBRANCH   5  17
TORSDOF 7
