REMARK  Name = ZINC46680342
REMARK  6 active torsions:
REMARK  status: ('A' for Active; 'I' for Inactive)
REMARK    1  A    between atoms: C_1  and  C_2
REMARK    2  A    between atoms: C_4  and  C_16
REMARK    3  A    between atoms: C_21  and  C_29
REMARK    4  A    between atoms: C_22  and  S_24
REMARK    5  A    between atoms: S_24  and  C_25
REMARK    6  A    between atoms: C_25  and  C_26
REMARK                            x       y       z     vdW  Elec       q    Type
REMARK                         _______ _______ _______ _____ _____    ______ ____
ROOT
ATOM      1  C   UNL     1       0.029  -2.821  -2.491  0.00  0.00    +0.252 C 
ATOM      2  O   UNL     1       0.046  -4.037  -2.478  0.00  0.00    -0.270 OA
ATOM      3  N   UNL     1       0.014  -2.160  -3.666  0.00  0.00    -0.261 N 
ATOM      4  C   UNL     1       0.018  -2.869  -4.862  0.00  0.00    +0.166 A 
ATOM      5  N   UNL     1       0.011  -2.416  -6.103  0.00  0.00    -0.229 NA
ATOM      6  C   UNL     1       0.017  -3.240  -7.134  0.00  0.00    +0.061 A 
ATOM      7  C   UNL     1       0.030  -4.586  -6.920  0.00  0.00    +0.070 A 
ATOM      8  S   UNL     1       0.042  -4.636  -5.133  0.00  0.00    -0.045 S 
ATOM      9  C   UNL     1       0.008  -2.695  -8.539  0.00  0.00    +0.067 C 
ATOM     10  H   UNL     1       0.001  -1.191  -3.676  0.00  0.00    +0.157 HD
ENDROOT
BRANCH   1  14
ATOM     11  C   UNL     1      -0.018   1.503   0.010  0.00  0.00    +0.065 C 
ATOM     12  C   UNL     1       0.002  -0.004   0.002  0.00  0.00    +0.041 A 
ATOM     13  C   UNL     1       0.005  -0.673  -1.209  0.00  0.00    +0.038 A 
ATOM     14  C   UNL     1       0.025  -2.069  -1.220  0.00  0.00    +0.068 A 
ATOM     15  C   UNL     1       0.039  -2.738   0.022  0.00  0.00    +0.120 A 
ATOM     16  C   UNL     1       0.034  -1.974   1.204  0.00  0.00    +0.161 A 
ATOM     17  N   UNL     1       0.022  -0.653   1.148  0.00  0.00    -0.233 NA
ATOM     18  N   UNL     1       0.047  -2.886   2.237  0.00  0.00    -0.312 N 
ATOM     19  C   UNL     1       0.069  -4.130   1.685  0.00  0.00    +0.112 A 
ATOM     20  N   UNL     1       0.059  -4.034   0.384  0.00  0.00    -0.230 NA
ATOM     21  C   UNL     1       0.108  -5.423   2.465  0.00  0.00    +0.074 C 
ATOM     22  C   UNL     1      -0.933  -5.371   3.584  0.00  0.00    +0.008 C 
ATOM     23  C   UNL     1      -0.311  -4.755   4.833  0.00  0.00    +0.002 C 
ATOM     24  C   UNL     1       0.718  -3.694   4.448  0.00  0.00    +0.022 C 
ATOM     25  C   UNL     1       0.030  -2.571   3.668  0.00  0.00    +0.125 C 
ENDBRANCH   1  14
BRANCH   7  26
ATOM     26  S   UNL     1       0.039  -5.909  -8.083  0.00  0.00    -0.107 S 
BRANCH  26  27
ATOM     27  C   UNL     1       0.056  -7.401  -7.050  0.00  0.00    +0.170 C 
BRANCH  27  28
ATOM     28  C   UNL     1       0.065  -8.622  -7.932  0.00  0.00    +0.221 C 
ATOM     29  O   UNL     1       0.060  -8.499  -9.139  0.00  0.00    -0.275 OA
ATOM     30  N   UNL     1       0.077  -9.852  -7.380  0.00  0.00    -0.329 N 
ATOM     31  H   UNL     1       0.081  -9.950  -6.415  0.00  0.00    +0.145 HD
ATOM     32  H   UNL     1       0.083 -10.638  -7.948  0.00  0.00    +0.145 HD
ENDBRANCH  27  28
ENDBRANCH  26  27
ENDBRANCH   7  26
TORSDOF 4
