REMARK  Name = ZINC32736218
REMARK  6 active torsions:
REMARK  status: ('A' for Active; 'I' for Inactive)
REMARK    1  A    between atoms: C_3  and  C_6
REMARK    2  A    between atoms: N_8  and  C_9
REMARK    3  A    between atoms: C_9  and  C_10
REMARK    4  A    between atoms: N_15  and  C_18
REMARK    5  A    between atoms: C_18  and  C_19
REMARK    6  A    between atoms: C_25  and  C_30
REMARK                            x       y       z     vdW  Elec       q    Type
REMARK                         _______ _______ _______ _____ _____    ______ ____
ROOT
ATOM      1  C   UNL     1       6.138  -2.032  -0.068  0.00  0.00    +0.233 C 
ATOM      2  O   UNL     1       5.328  -2.934  -0.065  0.00  0.00    -0.274 OA
ATOM      3  N   UNL     1       7.457  -2.310  -0.083  0.00  0.00    -0.298 N 
ATOM      4  C   UNL     1       8.456  -1.231  -0.081  0.00  0.00    +0.123 C 
ATOM      5  C   UNL     1       9.445  -1.481  -1.224  0.00  0.00    +0.104 C 
ATOM      6  N   UNL     1       9.996  -2.838  -1.103  0.00  0.00    -0.292 NA
ATOM      7  C   UNL     1       8.944  -3.854  -1.243  0.00  0.00    +0.104 C 
ATOM      8  C   UNL     1       7.935  -3.701  -0.094  0.00  0.00    +0.123 C 
ENDROOT
BRANCH   1   9
ATOM      9  C   UNL     1       5.671  -0.599  -0.056  0.00  0.00    +0.200 C 
BRANCH   9  12
ATOM     10  C   UNL     1       3.561   0.619  -0.029  0.00  0.00    +0.280 C 
ATOM     11  O   UNL     1       4.195   1.658  -0.030  0.00  0.00    -0.267 OA
ATOM     12  N   UNL     1       4.206  -0.564  -0.042  0.00  0.00    -0.300 N 
ATOM     13  H   UNL     1       3.701  -1.392  -0.041  0.00  0.00    +0.150 HD
BRANCH  10  16
ATOM     14  C   UNL     1      -0.016   1.347   0.009  0.00  0.00    +0.042 A 
ATOM     15  C   UNL     1       1.319   1.778  -0.001  0.00  0.00    +0.054 A 
ATOM     16  C   UNL     1       2.095   0.654  -0.014  0.00  0.00    +0.189 A 
ATOM     17  O   UNL     1       1.276  -0.418  -0.012  0.00  0.00    -0.458 OA
ATOM     18  C   UNL     1       0.002  -0.004   0.002  0.00  0.00    +0.196 A 
ENDBRANCH  10  16
ENDBRANCH   9  12
ENDBRANCH   1   9
BRANCH   6  19
ATOM     19  C   UNL     1      11.074  -3.057  -2.077  0.00  0.00    +0.158 C 
BRANCH  19  20
ATOM     20  C   UNL     1      11.775  -4.355  -1.766  0.00  0.00    +0.125 A 
ATOM     21  N   UNL     1      12.815  -4.754  -2.543  0.00  0.00    -0.309 N 
ATOM     22  H   UNL     1      13.092  -4.198  -3.288  0.00  0.00    +0.170 HD
ATOM     23  C   UNL     1      13.468  -5.905  -2.299  0.00  0.00    +0.260 A 
ATOM     24  O   UNL     1      14.400  -6.249  -3.005  0.00  0.00    -0.267 OA
ATOM     25  C   UNL     1      13.052  -6.718  -1.197  0.00  0.00    +0.080 A 
ATOM     26  C   UNL     1      13.593  -7.992  -0.735  0.00  0.00    +0.010 A 
ATOM     27  C   UNL     1      13.028  -8.585   0.347  0.00  0.00    +0.057 A 
ATOM     28  S   UNL     1      11.728  -7.455   0.805  0.00  0.00    -0.076 S 
ATOM     29  C   UNL     1      11.969  -6.225  -0.451  0.00  0.00    +0.116 A 
ATOM     30  N   UNL     1      11.376  -5.073  -0.751  0.00  0.00    -0.225 NA
BRANCH  26  31
ATOM     31  C   UNL     1      14.734  -8.623  -1.430  0.00  0.00    +0.021 A 
ATOM     32  C   UNL     1      15.897  -9.120  -0.905  0.00  0.00    +0.016 A 
ATOM     33  C   UNL     1      16.828  -9.670  -1.761  0.00  0.00    +0.008 A 
ATOM     34  C   UNL     1      16.565  -9.702  -3.091  0.00  0.00    +0.046 A 
ATOM     35  S   UNL     1      14.951  -8.944  -3.173  0.00  0.00    -0.097 S 
ENDBRANCH  26  31
ENDBRANCH  19  20
ENDBRANCH   6  19
TORSDOF 6
