REMARK  Name = ZINC05042263
REMARK  7 active torsions:
REMARK  status: ('A' for Active; 'I' for Inactive)
REMARK    1  A    between atoms: C_5  and  C_7
REMARK    2  A    between atoms: C_7  and  O_8
REMARK    3  A    between atoms: O_8  and  C_9
REMARK    4  A    between atoms: C_14  and  C_15
REMARK    5  A    between atoms: C_17  and  C_27
REMARK    6  A    between atoms: C_22  and  N_26
REMARK    7  A    between atoms: C_23  and  C_24
REMARK                            x       y       z     vdW  Elec       q    Type
REMARK                         _______ _______ _______ _____ _____    ______ ____
ROOT
ATOM      1  C   UNL     1      -0.272  -4.030  -0.017  0.00  0.00    +0.125 A 
ATOM      2  C   UNL     1       0.839  -4.861  -0.027  0.00  0.00    +0.046 A 
ATOM      3  C   UNL     1       0.674  -6.233  -0.033  0.00  0.00    +0.004 A 
ATOM      4  C   UNL     1      -0.598  -6.777  -0.028  0.00  0.00    +0.001 A 
ATOM      5  C   UNL     1      -1.706  -5.951  -0.019  0.00  0.00    +0.008 A 
ATOM      6  C   UNL     1      -1.546  -4.579  -0.007  0.00  0.00    +0.004 A 
ENDROOT
BRANCH   6   7
ATOM      7  C   UNL     1      -2.755  -3.679   0.010  0.00  0.00    +0.089 C 
ATOM      8  C   UNL     1      -3.533  -3.936   1.293  0.00  0.00    +0.159 C 
ATOM      9  C   UNL     1      -4.826  -3.139   1.250  0.00  0.00    +0.089 C 
ATOM     10  N   UNL     1      -5.081  -2.197   2.098  0.00  0.00    -0.296 NA
ATOM     11  S   UNL     1      -5.962  -3.583  -0.037  0.00  0.00    -0.058 S 
ATOM     12  C   UNL     1      -4.872  -3.878  -1.395  0.00  0.00    +0.079 C 
ATOM     13  C   UNL     1      -3.539  -3.917  -1.231  0.00  0.00    +0.066 C 
ATOM     14  H   UNL     1      -4.437  -1.979   2.789  0.00  0.00    +0.187 HD
BRANCH  12  15
ATOM     15  N   UNL     1      -5.401  -4.075  -2.648  0.00  0.00    -0.352 N 
ATOM     16  H   UNL     1      -6.362  -4.051  -2.779  0.00  0.00    +0.143 HD
ATOM     17  H   UNL     1      -4.813  -4.238  -3.402  0.00  0.00    +0.143 HD
ENDBRANCH  12  15
BRANCH  13  18
ATOM     18  C   UNL     1      -2.777  -4.223  -2.403  0.00  0.00    +0.098 C 
ATOM     19  N   UNL     1      -2.172  -4.466  -3.334  0.00  0.00    -0.191 NA
ENDBRANCH  13  18
BRANCH   8  20
ATOM     20  C   UNL     1      -3.838  -5.372   1.405  0.00  0.00    +0.074 C 
ATOM     21  N   UNL     1      -4.074  -6.479   1.492  0.00  0.00    -0.196 NA
ENDBRANCH   8  20
ENDBRANCH   6   7
BRANCH   1  22
ATOM     22  O   UNL     1      -0.112  -2.680  -0.011  0.00  0.00    -0.487 OA
BRANCH  22  23
ATOM     23  C   UNL     1       1.229  -2.186  -0.022  0.00  0.00    +0.266 C 
BRANCH  23  28
ATOM     24  C   UNL     1      -0.017   1.378   0.010  0.00  0.00    +0.000 A 
ATOM     25  C   UNL     1       1.171   2.086   0.002  0.00  0.00    +0.001 A 
ATOM     26  C   UNL     1       2.377   1.412  -0.013  0.00  0.00    +0.020 A 
ATOM     27  C   UNL     1       2.397   0.029  -0.021  0.00  0.00    +0.047 A 
ATOM     28  C   UNL     1       1.208  -0.679  -0.013  0.00  0.00    +0.008 A 
ATOM     29  C   UNL     1       0.002  -0.004   0.002  0.00  0.00    +0.008 A 
ATOM     30 CL   UNL     1       3.912  -0.818  -0.041  0.00  0.00    -0.083 Cl
ENDBRANCH  23  28
ENDBRANCH  22  23
ENDBRANCH   1  22
TORSDOF 7
