REMARK  Name = ZINC02152136
REMARK  13 active torsions:
REMARK  status: ('A' for Active; 'I' for Inactive)
REMARK    1  A    between atoms: C_1  and  C_2
REMARK    2  A    between atoms: C_3  and  C_31
REMARK    3  A    between atoms: C_4  and  C_30
REMARK    4  A    between atoms: C_5  and  C_10
REMARK    5  A    between atoms: C_6  and  C_9
REMARK    6  A    between atoms: C_7  and  C_8
REMARK    7  A    between atoms: C_10  and  S_11
REMARK    8  A    between atoms: S_11  and  C_12
REMARK    9  A    between atoms: C_12  and  C_13
REMARK   10  A    between atoms: N_15  and  N_16
REMARK   11  A    between atoms: N_16  and  C_17
REMARK   12  A    between atoms: C_17  and  N_19
REMARK   13  A    between atoms: N_19  and  C_20
REMARK                            x       y       z     vdW  Elec       q    Type
REMARK                         _______ _______ _______ _____ _____    ______ ____
ROOT
ATOM      1  C   UNL     1       2.369   1.025  -0.015  0.00  0.00    +0.239 C 
ATOM      2  O   UNL     1       2.385  -0.188  -0.022  0.00  0.00    -0.273 OA
ATOM      3  N   UNL     1       1.193   1.683  -0.000  0.00  0.00    -0.234 N 
ATOM      4  H   UNL     1       1.179   2.653   0.005  0.00  0.00    +0.173 HD
ENDROOT
BRANCH   3   5
ATOM      5  N   UNL     1      -0.011   0.966   0.007  0.00  0.00    -0.246 N 
ATOM      6  H   UNL     1       0.002  -0.004   0.002  0.00  0.00    +0.172 HD
BRANCH   5   7
ATOM      7  C   UNL     1      -1.187   1.624   0.017  0.00  0.00    +0.147 C 
ATOM      8  S   UNL     1      -2.658   0.748   0.019  0.00  0.00    -0.017 S 
BRANCH   7   9
ATOM      9  N   UNL     1      -1.206   2.971   0.024  0.00  0.00    -0.322 N 
ATOM     10  H   UNL     1      -0.372   3.468   0.023  0.00  0.00    +0.148 HD
BRANCH   9  11
ATOM     11  C   UNL     1      -2.484   3.687   0.034  0.00  0.00    +0.079 C 
ATOM     12  C   UNL     1      -3.010   3.882  -1.409  0.00  0.00    +0.030 C 
ATOM     13  C   UNL     1      -3.070   5.434  -1.574  0.00  0.00    +0.014 C 
ATOM     14  C   UNL     1      -3.518   5.856  -0.127  0.00  0.00    +0.017 C 
ATOM     15  C   UNL     1      -2.293   5.145   0.558  0.00  0.00    +0.032 C 
ATOM     16  C   UNL     1      -1.153   5.705  -0.301  0.00  0.00    -0.026 C 
ATOM     17  C   UNL     1      -1.600   5.871  -1.530  0.00  0.00    -0.027 C 
ENDBRANCH   9  11
ENDBRANCH   7   9
ENDBRANCH   5   7
ENDBRANCH   3   5
BRANCH   1  18
ATOM     18  C   UNL     1       3.663   1.796  -0.023  0.00  0.00    +0.166 C 
BRANCH  18  19
ATOM     19  S   UNL     1       5.058   0.636  -0.043  0.00  0.00    -0.147 S 
BRANCH  19  20
ATOM     20  C   UNL     1       6.521   1.709  -0.051  0.00  0.00    +0.105 C 
BRANCH  20  25
ATOM     21  C   UNL     1      11.296  -1.545  -0.114  0.00  0.00    +0.044 C 
ATOM     22  C   UNL     1      10.051  -0.696  -0.098  0.00  0.00    -0.044 A 
ATOM     23  C   UNL     1       9.468  -0.301  -1.287  0.00  0.00    -0.044 A 
ATOM     24  C   UNL     1       8.326   0.477  -1.272  0.00  0.00    -0.043 A 
ATOM     25  C   UNL     1       7.766   0.860  -0.068  0.00  0.00    -0.031 A 
ATOM     26  C   UNL     1       8.352   0.469   1.122  0.00  0.00    -0.043 A 
ATOM     27  C   UNL     1       9.492  -0.313   1.107  0.00  0.00    -0.044 A 
ATOM     28  C   UNL     1      10.128  -0.743   2.404  0.00  0.00    +0.044 C 
ATOM     29  C   UNL     1       7.745   0.892   2.435  0.00  0.00    +0.044 C 
ATOM     30  C   UNL     1       7.690   0.908  -2.569  0.00  0.00    +0.044 C 
ATOM     31  C   UNL     1      10.078  -0.719  -2.600  0.00  0.00    +0.044 C 
ENDBRANCH  20  25
ENDBRANCH  19  20
ENDBRANCH  18  19
ENDBRANCH   1  18
TORSDOF 8
