REMARK  Name = ZINC33262805
REMARK  11 active torsions:
REMARK  status: ('A' for Active; 'I' for Inactive)
REMARK    1  A    between atoms: C_1  and  C_2
REMARK    2  A    between atoms: C_2  and  C_3
REMARK    3  A    between atoms: C_2  and  N_4
REMARK    4  A    between atoms: C_8  and  S_13
REMARK    5  A    between atoms: S_13  and  N_16
REMARK    6  A    between atoms: C_20  and  C_23
REMARK    7  A    between atoms: N_25  and  C_26
REMARK    8  A    between atoms: C_26  and  C_27
REMARK    9  A    between atoms: C_27  and  N_28
REMARK   10  A    between atoms: N_28  and  C_29
REMARK   11  A    between atoms: N_28  and  C_30
REMARK                            x       y       z     vdW  Elec       q    Type
REMARK                         _______ _______ _______ _____ _____    ______ ____
ROOT
ATOM      1  N   UNL     1       0.803  -0.460  -1.143  0.00  0.00    -0.176 NA
ATOM      2  C   UNL     1       2.170   0.056  -1.299  0.00  0.00    +0.109 C 
ATOM      3  C   UNL     1       2.124   1.587  -1.276  0.00  0.00    +0.018 C 
ATOM      4  C   UNL     1       1.419   2.053  -0.001  0.00  0.00    +0.015 C 
ATOM      5  C   UNL     1      -0.019   1.528   0.010  0.00  0.00    +0.091 C 
ATOM      6  C   UNL     1       0.002  -0.004   0.002  0.00  0.00    +0.122 C 
ENDROOT
BRANCH   5   7
ATOM      7  C   UNL     1      -0.723   2.014   1.251  0.00  0.00    +0.217 C 
ATOM      8  O   UNL     1      -1.165   1.216   2.050  0.00  0.00    -0.275 OA
ATOM      9  N   UNL     1      -0.862   3.337   1.472  0.00  0.00    -0.317 N 
ATOM     10  H   UNL     1      -0.461   4.061   0.747  0.00  0.00    +0.149 HD
BRANCH   9  11
ATOM     11  C   UNL     1      -1.546   3.810   2.678  0.00  0.00    +0.085 C 
BRANCH  11  12
ATOM     12  C   UNL     1      -1.567   5.340   2.686  0.00  0.00    -0.060 C 
BRANCH  12  13
ATOM     13  N   UNL     1      -2.253   5.814   3.894  0.00  0.00    +0.381 N 
ATOM     14  C   UNL     1      -1.491   5.468   5.102  0.00  0.00    -0.096 C 
ATOM     15  H   UNL     1      -3.227   5.305   3.952  0.00  0.00    -0.082 HD
BRANCH  13  16
ATOM     16  C   UNL     1      -2.502   7.260   3.825  0.00  0.00    -0.069 C 
ATOM     17  C   UNL     1      -1.168   8.008   3.820  0.00  0.00    -0.015 C 
ATOM     18  C   UNL     1      -1.427   9.514   3.748  0.00  0.00    -0.002 C 
ATOM     19  C   UNL     1      -2.251   9.948   4.962  0.00  0.00    -0.000 C 
ATOM     20  C   UNL     1      -3.586   9.200   4.967  0.00  0.00    -0.002 C 
ATOM     21  C   UNL     1      -3.326   7.694   5.039  0.00  0.00    -0.015 C 
ENDBRANCH  13  16
ENDBRANCH  12  13
ENDBRANCH  11  12
ENDBRANCH   9  11
ENDBRANCH   5   7
BRANCH   1  22
ATOM     22  S   UNL     1       0.176  -1.534  -2.236  0.00  0.00    +0.061 S 
ATOM     23  O   UNL     1       1.282  -2.187  -2.843  0.00  0.00    -0.153 OA
ATOM     24  O   UNL     1      -0.853  -2.246  -1.562  0.00  0.00    -0.153 OA
BRANCH  22  29
ATOM     25  N   UNL     1      -2.676   1.596  -6.303  0.00  0.00    -0.241 N 
ATOM     26  C   UNL     1      -1.810   0.888  -5.504  0.00  0.00    +0.089 A 
ATOM     27  C   UNL     1      -0.468   0.536  -5.608  0.00  0.00    +0.031 A 
ATOM     28  C   UNL     1       0.121  -0.196  -4.615  0.00  0.00    +0.031 A 
ATOM     29  C   UNL     1      -0.609  -0.592  -3.501  0.00  0.00    +0.108 A 
ATOM     30  C   UNL     1      -1.927  -0.264  -3.378  0.00  0.00    +0.060 A 
ATOM     31  C   UNL     1      -2.554   0.490  -4.380  0.00  0.00    +0.115 A 
ATOM     32  N   UNL     1      -3.808   0.958  -4.532  0.00  0.00    -0.129 NA
ATOM     33  N   UNL     1      -3.912   1.605  -5.639  0.00  0.00    -0.064 NA
BRANCH  25  35
ATOM     34  C   UNL     1      -3.264   1.616  -8.677  0.00  0.00    +0.032 C 
ATOM     35  C   UNL     1      -2.369   2.219  -7.593  0.00  0.00    +0.103 C 
ATOM     36  C   UNL     1      -2.619   3.726  -7.504  0.00  0.00    +0.032 C 
ENDBRANCH  25  35
ENDBRANCH  22  29
ENDBRANCH   1  22
TORSDOF 8
