REMARK  Name = ZINC35504776
REMARK  11 active torsions:
REMARK  status: ('A' for Active; 'I' for Inactive)
REMARK    1  A    between atoms: C_1  and  C_2
REMARK    2  A    between atoms: C_2  and  C_3
REMARK    3  A    between atoms: C_3  and  N_4
REMARK    4  A    between atoms: C_8  and  C_23
REMARK    5  A    between atoms: C_13  and  C_14
REMARK    6  A    between atoms: C_13  and  C_15
REMARK    7  A    between atoms: N_17  and  C_18
REMARK    8  A    between atoms: N_25  and  C_26
REMARK    9  A    between atoms: C_26  and  C_27
REMARK   10  A    between atoms: C_26  and  C_28
REMARK   11  A    between atoms: C_26  and  C_29
REMARK                            x       y       z     vdW  Elec       q    Type
REMARK                         _______ _______ _______ _____ _____    ______ ____
ROOT
ATOM      1  N   UNL     1       0.971  -2.134   1.560  0.00  0.00    -0.281 N 
ATOM      2  C   UNL     1       0.109  -2.921   2.249  0.00  0.00    +0.266 C 
ATOM      3  O   UNL     1      -0.733  -2.454   2.993  0.00  0.00    -0.268 OA
ATOM      4  C   UNL     1       0.249  -4.372   2.047  0.00  0.00    +0.137 A 
ATOM      5  C   UNL     1      -0.531  -5.433   2.428  0.00  0.00    +0.155 A 
ATOM      6  N   UNL     1       0.066  -6.547   1.957  0.00  0.00    -0.230 NA
ATOM      7  C   UNL     1       1.163  -6.221   1.319  0.00  0.00    +0.200 A 
ATOM      8  N   UNL     1       1.324  -4.897   1.356  0.00  0.00    -0.323 N 
ATOM      9  C   UNL     1       2.387  -4.043   0.826  0.00  0.00    +0.158 C 
ATOM     10  C   UNL     1       1.807  -2.666   0.489  0.00  0.00    +0.128 C 
ATOM     11  C   UNL     1       0.966  -2.777  -0.784  0.00  0.00    +0.043 C 
ENDROOT
BRANCH  10  12
ATOM     12  C   UNL     1       2.942  -1.707   0.237  0.00  0.00    +0.238 C 
ATOM     13  O   UNL     1       3.215  -1.376  -0.898  0.00  0.00    -0.273 OA
ATOM     14  N   UNL     1       3.654  -1.218   1.271  0.00  0.00    -0.311 N 
ATOM     15  H   UNL     1       3.485  -1.539   2.171  0.00  0.00    +0.149 HD
BRANCH  14  16
ATOM     16  C   UNL     1       4.683  -0.202   1.037  0.00  0.00    +0.073 C 
ATOM     17  C   UNL     1       6.030  -0.879   0.712  0.00  0.00    +0.022 C 
ATOM     18  C   UNL     1       7.084   0.022   1.402  0.00  0.00    +0.002 C 
ATOM     19  C   UNL     1       6.379   0.425   2.720  0.00  0.00    +0.002 C 
ATOM     20  C   UNL     1       4.904   0.628   2.314  0.00  0.00    +0.022 C 
ENDBRANCH  14  16
ENDBRANCH  10  12
BRANCH   5  21
ATOM     21  C   UNL     1      -1.787  -5.368   3.206  0.00  0.00    +0.265 C 
ATOM     22  O   UNL     1      -2.220  -4.293   3.573  0.00  0.00    -0.268 OA
ATOM     23  N   UNL     1      -2.451  -6.501   3.509  0.00  0.00    -0.305 N 
ATOM     24  H   UNL     1      -2.105  -7.359   3.217  0.00  0.00    +0.150 HD
BRANCH  23  25
ATOM     25  C   UNL     1      -3.695  -6.437   4.280  0.00  0.00    +0.027 C 
ATOM     26  C   UNL     1      -4.724  -5.598   3.520  0.00  0.00    +0.031 C 
ATOM     27  C   UNL     1      -4.241  -7.851   4.485  0.00  0.00    +0.031 C 
ATOM     28  C   UNL     1      -3.419  -5.795   5.641  0.00  0.00    +0.031 C 
ENDBRANCH  23  25
ENDBRANCH   5  21
BRANCH   1  29
ATOM     29  C   UNL     1       1.062  -0.711   1.896  0.00  0.00    +0.109 C 
BRANCH  29  31
ATOM     30  C   UNL     1       0.250   1.579   1.313  0.00  0.00    +0.005 C 
ATOM     31  C   UNL     1       0.155   0.092   0.962  0.00  0.00    +0.016 C 
ENDBRANCH  29  31
ENDBRANCH   1  29
TORSDOF 6
