REMARK  Name = ZINC40400994
REMARK  13 active torsions:
REMARK  status: ('A' for Active; 'I' for Inactive)
REMARK    1  A    between atoms: C_1  and  C_2
REMARK    2  A    between atoms: C_2  and  N_3
REMARK    3  A    between atoms: N_3  and  C_4
REMARK    4  A    between atoms: C_6  and  C_7
REMARK    5  A    between atoms: C_12  and  C_32
REMARK    6  A    between atoms: C_13  and  C_25
REMARK    7  A    between atoms: C_14  and  C_17
REMARK    8  A    between atoms: C_21  and  O_23
REMARK    9  A    between atoms: O_23  and  C_24
REMARK   10  A    between atoms: N_27  and  C_28
REMARK   11  A    between atoms: N_27  and  C_30
REMARK   12  A    between atoms: C_28  and  C_29
REMARK   13  A    between atoms: C_30  and  C_31
REMARK                            x       y       z     vdW  Elec       q    Type
REMARK                         _______ _______ _______ _____ _____    ______ ____
ROOT
ATOM      1  C   UNL     1       1.436  -3.871  -2.909  0.00  0.00    +0.048 C 
ATOM      2  C   UNL     1       2.101  -4.393  -3.962  0.00  0.00    +0.072 C 
ATOM      3  S   UNL     1       2.013  -6.140  -3.626  0.00  0.00    -0.060 S 
ATOM      4  C   UNL     1       1.148  -6.082  -2.189  0.00  0.00    +0.166 C 
ATOM      5  N   UNL     1       0.729  -7.036  -1.384  0.00  0.00    -0.230 NA
ATOM      6  C   UNL     1       0.047  -6.836  -0.267  0.00  0.00    +0.051 C 
ATOM      7  C   UNL     1      -0.278  -5.556   0.135  0.00  0.00    +0.060 C 
ATOM      8  C   UNL     1       0.171  -4.407  -0.739  0.00  0.00    +0.148 C 
ATOM      9  N   UNL     1       0.935  -4.750  -1.968  0.00  0.00    -0.267 N 
ATOM     10  C   UNL     1      -0.379  -8.014   0.571  0.00  0.00    +0.066 C 
ENDROOT
BRANCH   8  11
ATOM     11  C   UNL     1      -1.054  -3.632  -1.152  0.00  0.00    -0.019 A 
ATOM     12  C   UNL     1      -1.902  -4.143  -2.117  0.00  0.00    +0.006 A 
ATOM     13  C   UNL     1      -3.026  -3.434  -2.498  0.00  0.00    +0.004 A 
ATOM     14  C   UNL     1      -3.306  -2.213  -1.914  0.00  0.00    +0.045 A 
ATOM     15  C   UNL     1      -2.457  -1.699  -0.945  0.00  0.00    +0.120 A 
ATOM     16  C   UNL     1      -1.332  -2.415  -0.561  0.00  0.00    +0.051 A 
BRANCH  15  17
ATOM     17  O   UNL     1      -2.729  -0.499  -0.369  0.00  0.00    -0.495 OA
ATOM     18  C   UNL     1      -3.908   0.180  -0.810  0.00  0.00    +0.277 C 
ENDBRANCH  15  17
ENDBRANCH   8  11
BRANCH   1  21
ATOM     19  C   UNL     1       1.861  -1.577  -3.625  0.00  0.00    +0.239 C 
ATOM     20  O   UNL     1       2.545  -2.069  -4.687  0.00  0.00    -0.271 OA
ATOM     21  C   UNL     1       1.256  -2.419  -2.765  0.00  0.00    +0.091 C 
BRANCH  19  22
ATOM     22  N   UNL     1       1.786  -0.209  -3.423  0.00  0.00    -0.312 N 
ATOM     23  H   UNL     1       1.361   0.140  -2.625  0.00  0.00    +0.149 HD
BRANCH  22  25
ATOM     24  C   UNL     1       2.026   2.151  -4.018  0.00  0.00    +0.024 C 
ATOM     25  C   UNL     1       2.349   0.709  -4.416  0.00  0.00    +0.101 C 
ENDBRANCH  22  25
ENDBRANCH  19  22
ENDBRANCH   1  21
BRANCH   7  26
ATOM     26  C   UNL     1      -1.000  -5.329   1.316  0.00  0.00    +0.246 C 
ATOM     27  O   UNL     1      -2.207  -5.164   1.271  0.00  0.00    -0.270 OA
ATOM     28  N   UNL     1      -0.359  -5.292   2.502  0.00  0.00    -0.298 N 
BRANCH  28  29
ATOM     29  C   UNL     1      -1.125  -5.178   3.745  0.00  0.00    +0.104 C 
ATOM     30  C   UNL     1      -1.468  -6.576   4.263  0.00  0.00    +0.024 C 
ENDBRANCH  28  29
BRANCH  28  31
ATOM     31  C   UNL     1       1.103  -5.367   2.547  0.00  0.00    +0.104 C 
ATOM     32  C   UNL     1       1.684  -3.954   2.615  0.00  0.00    +0.024 C 
ENDBRANCH  28  31
ENDBRANCH   7  26
TORSDOF 8
