REMARK  Name = ZINC23580652
REMARK  5 active torsions:
REMARK  status: ('A' for Active; 'I' for Inactive)
REMARK    1  A    between atoms: C_1  and  C_2
REMARK    2  A    between atoms: C_3  and  C_16
REMARK    3  A    between atoms: N_9  and  C_12
REMARK    4  A    between atoms: C_12  and  C_13
REMARK    5  A    between atoms: C_18  and  C_21
REMARK                            x       y       z     vdW  Elec       q    Type
REMARK                         _______ _______ _______ _____ _____    ______ ____
ROOT
ATOM      1  C   UNL     1      -0.018   1.503   0.010  0.00  0.00    +0.066 C 
ATOM      2  C   UNL     1       0.002  -0.004   0.002  0.00  0.00    +0.049 A 
ATOM      3  C   UNL     1       0.006  -0.689  -1.211  0.00  0.00    +0.047 A 
ATOM      4  C   UNL     1       0.026  -2.087  -1.196  0.00  0.00    -0.034 A 
ATOM      5  C   UNL     1       0.043  -2.735   0.020  0.00  0.00    -0.042 A 
ATOM      6  C   UNL     1       0.036  -1.982   1.184  0.00  0.00    +0.113 A 
ATOM      7  N   UNL     1       0.022  -0.664   1.142  0.00  0.00    -0.259 NA
ATOM      8  C   UNL     1       0.072  -4.236   0.115  0.00  0.00    -0.041 C 
ATOM      9  N   UNL     1      -0.360  -4.839  -1.149  0.00  0.00    +0.383 N 
ATOM     10  C   UNL     1       0.452  -4.293  -2.247  0.00  0.00    -0.074 C 
ATOM     11  C   UNL     1       0.027  -2.844  -2.496  0.00  0.00    +0.017 C 
ATOM     12  H   UNL     1      -1.333  -4.625  -1.310  0.00  0.00    -0.081 HD
ENDROOT
BRANCH   3  13
ATOM     13  C   UNL     1      -0.012   0.052  -2.497  0.00  0.00    +0.204 A 
ATOM     14  N   UNL     1      -0.027   1.388  -2.628  0.00  0.00    -0.186 NA
ATOM     15  C   UNL     1      -0.040   1.713  -3.900  0.00  0.00    +0.279 A 
ATOM     16  O   UNL     1      -0.034   0.579  -4.623  0.00  0.00    -0.331 OA
ATOM     17  N   UNL     1      -0.010  -0.490  -3.690  0.00  0.00    -0.056 NA
BRANCH  15  18
ATOM     18  C   UNL     1      -0.059   3.087  -4.443  0.00  0.00    +0.152 A 
ATOM     19  C   UNL     1      -0.072   3.287  -5.827  0.00  0.00    +0.207 A 
ATOM     20  C   UNL     1      -0.090   4.589  -6.319  0.00  0.00    +0.054 A 
ATOM     21  C   UNL     1      -0.095   5.636  -5.414  0.00  0.00    +0.021 A 
ATOM     22  C   UNL     1      -0.082   5.362  -4.055  0.00  0.00    +0.083 A 
ATOM     23  N   UNL     1      -0.070   4.124  -3.613  0.00  0.00    -0.354 N 
ATOM     24  O   UNL     1      -0.066   2.229  -6.677  0.00  0.00    -0.286 OA
ATOM     25  H   UNL     1      -0.066   3.964  -2.656  0.00  0.00    +0.166 HD
ENDBRANCH  15  18
ENDBRANCH   3  13
BRANCH   9  26
ATOM     26  C   UNL     1      -0.182  -6.296  -1.085  0.00  0.00    -0.075 C 
BRANCH  26  27
ATOM     27  C   UNL     1      -1.115  -6.877  -0.020  0.00  0.00    -0.028 C 
ATOM     28  C   UNL     1      -0.469  -7.556   1.190  0.00  0.00    +0.002 C 
ATOM     29  C   UNL     1      -1.164  -8.400   0.120  0.00  0.00    +0.002 C 
ENDBRANCH  26  27
ENDBRANCH   9  26
TORSDOF 4
