REMARK  Name = ZINC28890391
REMARK  5 active torsions:
REMARK  status: ('A' for Active; 'I' for Inactive)
REMARK    1  A    between atoms: C_3  and  C_8
REMARK    2  A    between atoms: C_5  and  N_7
REMARK    3  A    between atoms: C_13  and  N_24
REMARK    4  A    between atoms: C_16  and  C_17
REMARK    5  A    between atoms: N_24  and  C_25
REMARK                            x       y       z     vdW  Elec       q    Type
REMARK                         _______ _______ _______ _____ _____    ______ ____
ROOT
ATOM      1  C   UNL     1      -0.138   5.330  -0.003  0.00  0.00    +0.035 A 
ATOM      2  C   UNL     1      -0.687   6.146   0.993  0.00  0.00    +0.077 A 
ATOM      3  C   UNL     1      -1.391   5.865   2.175  0.00  0.00    +0.028 A 
ATOM      4  C   UNL     1      -1.804   6.894   2.970  0.00  0.00    +0.005 A 
ATOM      5  C   UNL     1      -1.517   8.212   2.600  0.00  0.00    +0.043 A 
ATOM      6  C   UNL     1      -0.829   8.469   1.454  0.00  0.00    +0.121 A 
ATOM      7  N   UNL     1      -0.409   7.444   0.650  0.00  0.00    -0.218 N 
ATOM      8  N   UNL     1       0.300   7.430  -0.557  0.00  0.00    -0.164 NA
ATOM      9  C   UNL     1       0.465   6.181  -0.950  0.00  0.00    +0.101 A 
ENDROOT
BRANCH   9  10
ATOM     10  C   UNL     1       1.166   5.747  -2.182  0.00  0.00    +0.003 A 
ATOM     11  C   UNL     1       2.350   6.372  -2.569  0.00  0.00    +0.013 A 
ATOM     12  C   UNL     1       3.001   5.962  -3.715  0.00  0.00    +0.039 A 
ATOM     13  C   UNL     1       2.475   4.937  -4.484  0.00  0.00    +0.123 A 
ATOM     14  C   UNL     1       1.295   4.316  -4.106  0.00  0.00    +0.039 A 
ATOM     15  C   UNL     1       0.640   4.717  -2.959  0.00  0.00    +0.013 A 
ATOM     16  F   UNL     1       3.113   4.542  -5.607  0.00  0.00    -0.205 F 
ENDBRANCH   9  10
BRANCH   1  19
ATOM     17  C   UNL     1      -1.449   1.818  -0.276  0.00  0.00    +0.002 A 
ATOM     18  C   UNL     1      -1.407   3.197  -0.223  0.00  0.00    +0.009 A 
ATOM     19  C   UNL     1      -0.186   3.852  -0.054  0.00  0.00    -0.012 A 
ATOM     20  C   UNL     1       0.988   3.109   0.067  0.00  0.00    +0.031 A 
ATOM     21  C   UNL     1       0.935   1.725   0.018  0.00  0.00    +0.025 A 
ATOM     22  C   UNL     1      -0.286   1.082  -0.151  0.00  0.00    +0.023 A 
BRANCH  21  23
ATOM     23  N   UNL     1       2.108   0.976   0.139  0.00  0.00    -0.358 N 
ATOM     24  H   UNL     1       2.066  -0.122   0.101  0.00  0.00    +0.142 HD
ATOM     25  H   UNL     1       3.074   1.485   0.273  0.00  0.00    +0.142 HD
ENDBRANCH  21  23
ENDBRANCH   1  19
BRANCH   6  26
ATOM     26  N   UNL     1      -0.551   9.778   1.099  0.00  0.00    -0.326 N 
ATOM     27  H   UNL     1       0.005   9.991   0.174  0.00  0.00    +0.148 HD
BRANCH  26  28
ATOM     28  C   UNL     1      -0.996  10.880   1.956  0.00  0.00    +0.072 C 
ATOM     29  C   UNL     1      -2.433  11.295   1.578  0.00  0.00    +0.022 C 
ATOM     30  C   UNL     1      -2.438  12.836   1.740  0.00  0.00    +0.002 C 
ATOM     31  C   UNL     1      -1.035  13.239   1.223  0.00  0.00    +0.002 C 
ATOM     32  C   UNL     1      -0.108  12.116   1.730  0.00  0.00    +0.022 C 
ENDBRANCH  26  28
ENDBRANCH   6  26
TORSDOF 5
