REMARK  Name = ZINC20735765
REMARK  3 active torsions:
REMARK  status: ('A' for Active; 'I' for Inactive)
REMARK    1  A    between atoms: C_3  and  C_6
REMARK    2  A    between atoms: C_6  and  N_7
REMARK    3  A    between atoms: C_8  and  C_10
REMARK                            x       y       z     vdW  Elec       q    Type
REMARK                         _______ _______ _______ _____ _____    ______ ____
ROOT
ATOM      1  C   UNL     1       0.002  -0.004   0.002  0.00  0.00    +0.193 A 
ATOM      2  C   UNL     1      -0.017   1.386   0.010  0.00  0.00    +0.192 A 
ATOM      3  N   UNL     1      -1.053   2.291   0.029  0.00  0.00    -0.187 NA
ATOM      4  C   UNL     1      -0.816   3.620   0.029  0.00  0.00    +0.281 A 
ATOM      5  O   UNL     1      -1.738   4.414   0.041  0.00  0.00    -0.265 OA
ATOM      6  C   UNL     1       0.581   4.089   0.018  0.00  0.00    +0.068 A 
ATOM      7  C   UNL     1       0.890   5.448   0.021  0.00  0.00    +0.030 A 
ATOM      8  C   UNL     1       2.211   5.847   0.010  0.00  0.00    +0.019 A 
ATOM      9  C   UNL     1       3.227   4.903  -0.005  0.00  0.00    +0.017 A 
ATOM     10  C   UNL     1       2.933   3.554  -0.008  0.00  0.00    +0.030 A 
ATOM     11  C   UNL     1       1.611   3.135   0.003  0.00  0.00    +0.082 A 
ATOM     12  N   UNL     1       1.283   1.784  -0.001  0.00  0.00    -0.193 N 
ATOM     13  N   UNL     1       2.064   0.621  -0.014  0.00  0.00    -0.058 NA
ATOM     14  N   UNL     1       1.286  -0.403  -0.012  0.00  0.00    -0.122 NA
ATOM     15 BR   UNL     1       2.637   7.689   0.015  0.00  0.00    -0.050 Br
ENDROOT
BRANCH   1  17
ATOM     16  N   UNL     1      -1.017  -2.221  -0.001  0.00  0.00    -0.303 N 
ATOM     17  C   UNL     1      -1.175  -0.883   0.008  0.00  0.00    +0.268 C 
ATOM     18  O   UNL     1      -2.293  -0.403   0.021  0.00  0.00    -0.268 OA
ATOM     19  H   UNL     1      -0.006  -2.656  -0.012  0.00  0.00    +0.150 HD
BRANCH  16  20
ATOM     20  C   UNL     1      -2.191  -3.098   0.005  0.00  0.00    +0.179 C 
BRANCH  20  23
ATOM     21  C   UNL     1      -1.106  -6.568   0.609  0.00  0.00    +0.041 A 
ATOM     22  C   UNL     1      -1.499  -5.294   1.079  0.00  0.00    +0.046 A 
ATOM     23  C   UNL     1      -1.743  -4.537  -0.006  0.00  0.00    +0.122 A 
ATOM     24  O   UNL     1      -1.525  -5.283  -1.102  0.00  0.00    -0.466 OA
ATOM     25  C   UNL     1      -1.133  -6.514  -0.735  0.00  0.00    +0.195 A 
ENDBRANCH  20  23
ENDBRANCH  16  20
ENDBRANCH   1  17
TORSDOF 3
