REMARK  Name = ZINC08636533
REMARK  9 active torsions:
REMARK  status: ('A' for Active; 'I' for Inactive)
REMARK    1  A    between atoms: C_1  and  C_2
REMARK    2  A    between atoms: C_4  and  C_34
REMARK    3  A    between atoms: C_6  and  N_8
REMARK    4  A    between atoms: N_8  and  C_9
REMARK    5  A    between atoms: C_9  and  N_11
REMARK    6  A    between atoms: N_11  and  C_12
REMARK    7  A    between atoms: C_22  and  O_24
REMARK    8  A    between atoms: O_24  and  C_25
REMARK    9  A    between atoms: N_27  and  C_28
REMARK                            x       y       z     vdW  Elec       q    Type
REMARK                         _______ _______ _______ _____ _____    ______ ____
ROOT
ATOM      1  C   UNL     1       0.246   0.672  -0.680  0.00  0.00    +0.129 C 
ATOM      2  C   UNL     1      -0.773   0.751   0.477  0.00  0.00    +0.185 C 
ATOM      3  O   UNL     1      -2.059   0.848  -0.171  0.00  0.00    -0.368 OA
ATOM      4  C   UNL     1      -1.864   1.738  -1.289  0.00  0.00    +0.192 C 
ATOM      5  C   UNL     1      -0.470   1.349  -1.868  0.00  0.00    +0.173 C 
ATOM      6  O   UNL     1      -0.758   0.347  -2.865  0.00  0.00    -0.368 OA
ATOM      7  C   UNL     1      -1.954   0.798  -3.535  0.00  0.00    +0.207 C 
ATOM      8  C   UNL     1      -2.854   1.351  -2.408  0.00  0.00    +0.235 C 
ENDROOT
BRANCH   1   9
ATOM      9  N   UNL     1       1.470   1.401  -0.336  0.00  0.00    -0.319 N 
ATOM     10  H   UNL     1       1.573   2.462  -0.611  0.00  0.00    +0.148 HD
BRANCH   9  11
ATOM     11  C   UNL     1       2.467   0.774   0.317  0.00  0.00    +0.135 C 
ATOM     12  S   UNL     1       2.306  -0.876   0.745  0.00  0.00    -0.019 S 
BRANCH  11  13
ATOM     13  N   UNL     1       3.593   1.445   0.633  0.00  0.00    -0.297 N 
ATOM     14  H   UNL     1       3.726   2.484   0.298  0.00  0.00    +0.154 HD
BRANCH  13  20
ATOM     15  C   UNL     1       6.814   1.599   4.344  0.00  0.00    +0.044 C 
ATOM     16  C   UNL     1       6.170   0.871   3.192  0.00  0.00    -0.048 A 
ATOM     17  C   UNL     1       6.567  -0.416   2.879  0.00  0.00    +0.006 A 
ATOM     18  C   UNL     1       5.978  -1.087   1.823  0.00  0.00    -0.048 A 
ATOM     19  C   UNL     1       4.992  -0.473   1.077  0.00  0.00    +0.026 A 
ATOM     20  C   UNL     1       4.591   0.820   1.388  0.00  0.00    +0.033 A 
ATOM     21  C   UNL     1       5.188   1.493   2.446  0.00  0.00    +0.026 A 
ATOM     22  C   UNL     1       6.414  -2.490   1.486  0.00  0.00    +0.044 C 
ENDBRANCH  13  20
ENDBRANCH  11  13
ENDBRANCH   9  11
ENDBRANCH   1   9
BRANCH   8  23
ATOM     23  O   UNL     1      -3.774   0.329  -1.942  0.00  0.00    -0.442 OA
BRANCH  23  24
ATOM     24  C   UNL     1      -5.005   0.321  -2.487  0.00  0.00    +0.401 C 
ATOM     25  O   UNL     1      -5.302   1.144  -3.330  0.00  0.00    -0.226 OA
ATOM     26  N   UNL     1      -5.908  -0.601  -2.098  0.00  0.00    -0.278 N 
ATOM     27  H   UNL     1      -5.639  -1.347  -1.335  0.00  0.00    +0.152 HD
BRANCH  26  28
ATOM     28  C   UNL     1      -7.247  -0.611  -2.692  0.00  0.00    +0.076 C 
ATOM     29  C   UNL     1      -8.146   0.373  -1.939  0.00  0.00    +0.022 C 
ATOM     30  C   UNL     1      -9.545   0.363  -2.559  0.00  0.00    +0.002 C 
ATOM     31  C   UNL     1     -10.136  -1.045  -2.462  0.00  0.00    +0.000 C 
ATOM     32  C   UNL     1      -9.237  -2.028  -3.214  0.00  0.00    +0.002 C 
ATOM     33  C   UNL     1      -7.839  -2.018  -2.594  0.00  0.00    +0.022 C 
ENDBRANCH  26  28
ENDBRANCH  23  24
ENDBRANCH   8  23
TORSDOF 7
