REMARK  Name = ZINC35269449
REMARK  11 active torsions:
REMARK  status: ('A' for Active; 'I' for Inactive)
REMARK    1  A    between atoms: C_1  and  C_2
REMARK    2  A    between atoms: C_7  and  S_29
REMARK    3  A    between atoms: N_11  and  C_12
REMARK    4  A    between atoms: C_12  and  C_13
REMARK    5  A    between atoms: N_18  and  C_21
REMARK    6  A    between atoms: C_21  and  C_22
REMARK    7  A    between atoms: N_24  and  C_25
REMARK    8  A    between atoms: C_25  and  C_26
REMARK    9  A    between atoms: C_25  and  C_27
REMARK   10  A    between atoms: C_25  and  C_28
REMARK   11  A    between atoms: S_29  and  N_32
REMARK                            x       y       z     vdW  Elec       q    Type
REMARK                         _______ _______ _______ _____ _____    ______ ____
ROOT
ATOM      1  C   UNL     1       2.075  -0.239   1.552  0.00  0.00    +0.201 C 
ENDROOT
BRANCH   1  11
ATOM      2  C   UNL     1      -0.019   1.526   0.010  0.00  0.00    +0.028 C 
ATOM      3  C   UNL     1       0.002  -0.004   0.002  0.00  0.00    +0.075 C 
ATOM      4  C   UNL     1      -1.430  -0.557   0.082  0.00  0.00    +0.059 C 
ATOM      5  C   UNL     1      -1.455  -1.361   1.363  0.00  0.00    -0.023 A 
ATOM      6  C   UNL     1      -2.470  -2.086   1.958  0.00  0.00    +0.034 A 
ATOM      7  C   UNL     1      -2.244  -2.746   3.152  0.00  0.00    +0.105 A 
ATOM      8  C   UNL     1      -0.999  -2.679   3.750  0.00  0.00    +0.030 A 
ATOM      9  C   UNL     1       0.017  -1.957   3.160  0.00  0.00    +0.025 A 
ATOM     10  C   UNL     1      -0.204  -1.287   1.954  0.00  0.00    +0.034 A 
ATOM     11  N   UNL     1       0.679  -0.510   1.199  0.00  0.00    -0.318 N 
BRANCH   7  12
ATOM     12  S   UNL     1      -3.539  -3.670   3.909  0.00  0.00    +0.056 S 
ATOM     13  O   UNL     1      -3.229  -3.743   5.294  0.00  0.00    -0.153 OA
ATOM     14  O   UNL     1      -4.761  -3.125   3.430  0.00  0.00    -0.153 OA
BRANCH  12  15
ATOM     15  N   UNL     1      -3.447  -5.215   3.321  0.00  0.00    -0.204 NA
ATOM     16  H   UNL     1      -2.759  -5.449   2.679  0.00  0.00    +0.144 HD
ATOM     17  H   UNL     1      -4.081  -5.886   3.620  0.00  0.00    +0.144 HD
ENDBRANCH  12  15
ENDBRANCH   7  12
ENDBRANCH   1  11
BRANCH   1  18
ATOM     18  C   UNL     1       2.148   1.010   2.390  0.00  0.00    +0.233 C 
ATOM     19  O   UNL     1       1.134   1.615   2.667  0.00  0.00    -0.274 OA
ATOM     20  N   UNL     1       3.341   1.456   2.834  0.00  0.00    -0.298 N 
ATOM     21  C   UNL     1       4.583   0.740   2.505  0.00  0.00    +0.123 C 
ATOM     22  C   UNL     1       5.359   0.492   3.803  0.00  0.00    +0.104 C 
ATOM     23  N   UNL     1       5.545   1.766   4.511  0.00  0.00    -0.291 NA
ATOM     24  C   UNL     1       4.255   2.345   4.911  0.00  0.00    +0.104 C 
ATOM     25  C   UNL     1       3.434   2.673   3.654  0.00  0.00    +0.123 C 
BRANCH  23  26
ATOM     26  C   UNL     1       6.430   1.600   5.671  0.00  0.00    +0.180 C 
BRANCH  26  27
ATOM     27  C   UNL     1       6.794   2.954   6.223  0.00  0.00    +0.227 C 
ATOM     28  O   UNL     1       6.358   3.958   5.702  0.00  0.00    -0.274 OA
ATOM     29  N   UNL     1       7.603   3.048   7.297  0.00  0.00    -0.310 N 
ATOM     30  H   UNL     1       7.952   2.245   7.713  0.00  0.00    +0.149 HD
BRANCH  29  31
ATOM     31  C   UNL     1       7.956   4.365   7.834  0.00  0.00    +0.026 C 
ATOM     32  C   UNL     1       6.684   5.098   8.264  0.00  0.00    +0.031 C 
ATOM     33  C   UNL     1       8.879   4.192   9.042  0.00  0.00    +0.031 C 
ATOM     34  C   UNL     1       8.675   5.179   6.756  0.00  0.00    +0.031 C 
ENDBRANCH  29  31
ENDBRANCH  26  27
ENDBRANCH  23  26
ENDBRANCH   1  18
TORSDOF 7
