REMARK  Name = ZINC28632722
REMARK  9 active torsions:
REMARK  status: ('A' for Active; 'I' for Inactive)
REMARK    1  A    between atoms: C_1  and  C_2
REMARK    2  A    between atoms: C_2  and  N_3
REMARK    3  A    between atoms: N_3  and  S_4
REMARK    4  A    between atoms: S_4  and  C_7
REMARK    5  A    between atoms: C_10  and  C_13
REMARK    6  A    between atoms: N_15  and  N_16
REMARK    7  A    between atoms: N_16  and  C_17
REMARK    8  A    between atoms: C_17  and  N_19
REMARK    9  A    between atoms: N_19  and  C_20
REMARK                            x       y       z     vdW  Elec       q    Type
REMARK                         _______ _______ _______ _____ _____    ______ ____
ROOT
ATOM      1  C   UNL     1       0.891  -5.456   3.907  0.00  0.00    +0.260 C 
ATOM      2  O   UNL     1       2.042  -5.828   3.779  0.00  0.00    -0.269 OA
ATOM      3  N   UNL     1       0.191  -5.799   5.006  0.00  0.00    -0.231 N 
ATOM      4  H   UNL     1      -0.727  -5.502   5.108  0.00  0.00    +0.173 HD
ENDROOT
BRANCH   1   8
ATOM      5  C   UNL     1      -0.921  -3.081   0.888  0.00  0.00    +0.105 A 
ATOM      6  C   UNL     1       0.389  -3.501   0.740  0.00  0.00    +0.029 A 
ATOM      7  C   UNL     1       0.983  -4.273   1.716  0.00  0.00    +0.015 A 
ATOM      8  C   UNL     1       0.261  -4.629   2.856  0.00  0.00    +0.038 A 
ATOM      9  C   UNL     1      -1.060  -4.202   2.999  0.00  0.00    +0.015 A 
ATOM     10  C   UNL     1      -1.641  -3.426   2.018  0.00  0.00    +0.029 A 
BRANCH   5  11
ATOM     11  S   UNL     1      -1.673  -2.095  -0.364  0.00  0.00    +0.058 S 
ATOM     12  O   UNL     1      -3.076  -2.283  -0.241  0.00  0.00    -0.153 OA
ATOM     13  O   UNL     1      -0.972  -2.366  -1.570  0.00  0.00    -0.153 OA
BRANCH  11  14
ATOM     14  N   UNL     1      -1.372  -0.511   0.012  0.00  0.00    -0.190 NA
ATOM     15  H   UNL     1      -2.106   0.081   0.240  0.00  0.00    +0.148 HD
BRANCH  14  17
ATOM     16  C   UNL     1      -0.019   1.526   0.010  0.00  0.00    +0.022 C 
ATOM     17  C   UNL     1       0.002  -0.004   0.002  0.00  0.00    +0.102 C 
ENDBRANCH  14  17
ENDBRANCH  11  14
ENDBRANCH   5  11
ENDBRANCH   1   8
BRANCH   3  18
ATOM     18  N   UNL     1       0.789  -6.582   6.002  0.00  0.00    -0.246 N 
ATOM     19  H   UNL     1       1.707  -6.879   5.900  0.00  0.00    +0.172 HD
BRANCH  18  20
ATOM     20  C   UNL     1       0.088  -6.925   7.101  0.00  0.00    +0.147 C 
ATOM     21  S   UNL     1       0.819  -7.883   8.318  0.00  0.00    -0.017 S 
BRANCH  20  22
ATOM     22  N   UNL     1      -1.187  -6.513   7.243  0.00  0.00    -0.323 N 
ATOM     23  H   UNL     1      -1.601  -5.970   6.553  0.00  0.00    +0.148 HD
BRANCH  22  24
ATOM     24  C   UNL     1      -1.948  -6.885   8.438  0.00  0.00    +0.072 C 
ATOM     25  C   UNL     1      -2.571  -8.268   8.236  0.00  0.00    +0.022 C 
ATOM     26  C   UNL     1      -3.367  -8.656   9.484  0.00  0.00    +0.002 C 
ATOM     27  C   UNL     1      -4.474  -7.628   9.724  0.00  0.00    +0.000 C 
ATOM     28  C   UNL     1      -3.851  -6.245   9.926  0.00  0.00    +0.002 C 
ATOM     29  C   UNL     1      -3.055  -5.857   8.678  0.00  0.00    +0.022 C 
ENDBRANCH  22  24
ENDBRANCH  20  22
ENDBRANCH  18  20
ENDBRANCH   3  18
TORSDOF 8
