REMARK  Name = ZINC40476195
REMARK  6 active torsions:
REMARK  status: ('A' for Active; 'I' for Inactive)
REMARK    1  A    between atoms: C_1  and  C_2
REMARK    2  A    between atoms: C_2  and  C_35
REMARK    3  A    between atoms: C_6  and  C_26
REMARK    4  A    between atoms: C_13  and  S_17
REMARK    5  A    between atoms: S_17  and  C_18
REMARK    6  A    between atoms: C_18  and  C_19
REMARK                            x       y       z     vdW  Elec       q    Type
REMARK                         _______ _______ _______ _____ _____    ______ ____
ROOT
ATOM      1  C   UNL     1      -0.019   1.526   0.010  0.00  0.00    +0.011 C 
ATOM      2  C   UNL     1       0.002  -0.004   0.002  0.00  0.00    -0.023 C 
ATOM      3  C   UNL     1       0.740  -0.502  -1.242  0.00  0.00    +0.058 C 
ATOM      4  C   UNL     1       2.167  -0.010  -1.216  0.00  0.00    +0.017 C 
ATOM      5  C   UNL     1       2.812   0.186  -0.046  0.00  0.00    +0.024 C 
ATOM      6  C   UNL     1       4.237   0.677  -0.013  0.00  0.00    +0.094 C 
ATOM      7  C   UNL     1       4.911   0.490  -1.340  0.00  0.00    +0.069 A 
ATOM      8  C   UNL     1       6.307   0.528  -1.437  0.00  0.00    +0.258 A 
ATOM      9  O   UNL     1       6.994   0.712  -0.444  0.00  0.00    -0.267 OA
ATOM     10  N   UNL     1       6.878   0.359  -2.647  0.00  0.00    -0.302 N 
ATOM     11  H   UNL     1       7.844   0.381  -2.734  0.00  0.00    +0.171 HD
ATOM     12  C   UNL     1       6.101   0.157  -3.748  0.00  0.00    +0.171 A 
ATOM     13  N   UNL     1       4.787   0.119  -3.662  0.00  0.00    -0.208 NA
ATOM     14  C   UNL     1       4.168   0.278  -2.488  0.00  0.00    +0.135 A 
ATOM     15  N   UNL     1       2.790   0.228  -2.411  0.00  0.00    -0.302 N 
ATOM     16  C   UNL     1       2.173  -0.056   1.183  0.00  0.00    +0.162 C 
ATOM     17  O   UNL     1       2.788   0.110   2.217  0.00  0.00    -0.292 OA
ATOM     18  C   UNL     1       0.742  -0.517   1.242  0.00  0.00    +0.086 C 
ATOM     19  C   UNL     1      -1.431  -0.539   0.000  0.00  0.00    +0.011 C 
ATOM     20  H   UNL     1       2.258   0.362  -3.211  0.00  0.00    +0.153 HD
ENDROOT
BRANCH   6  21
ATOM     21  C   UNL     1       4.246   2.142   0.341  0.00  0.00    -0.017 A 
ATOM     22  C   UNL     1       4.912   2.587   1.473  0.00  0.00    +0.007 A 
ATOM     23  C   UNL     1       4.893   3.943   1.759  0.00  0.00    +0.020 A 
ATOM     24  C   UNL     1       4.216   4.801   0.913  0.00  0.00    +0.111 A 
ATOM     25  N   UNL     1       3.593   4.342  -0.155  0.00  0.00    -0.263 NA
ATOM     26  C   UNL     1       3.595   3.060  -0.462  0.00  0.00    +0.115 A 
ENDBRANCH   6  21
BRANCH  12  27
ATOM     27  S   UNL     1       6.870  -0.058  -5.319  0.00  0.00    -0.083 S 
BRANCH  27  28
ATOM     28  C   UNL     1       5.479  -0.290  -6.460  0.00  0.00    +0.112 C 
BRANCH  28  29
ATOM     29  C   UNL     1       6.004  -0.488  -7.859  0.00  0.00    -0.037 A 
ATOM     30  C   UNL     1       6.205   0.604  -8.682  0.00  0.00    +0.007 A 
ATOM     31  C   UNL     1       6.686   0.424  -9.965  0.00  0.00    +0.038 A 
ATOM     32  C   UNL     1       6.969  -0.851 -10.425  0.00  0.00    +0.123 A 
ATOM     33  C   UNL     1       6.768  -1.944  -9.599  0.00  0.00    +0.038 A 
ATOM     34  C   UNL     1       6.291  -1.761  -8.315  0.00  0.00    +0.007 A 
ATOM     35  F   UNL     1       7.440  -1.028 -11.679  0.00  0.00    -0.205 F 
ENDBRANCH  28  29
ENDBRANCH  27  28
ENDBRANCH  12  27
TORSDOF 4
