REMARK  Name = ZINC09914182
REMARK  4 active torsions:
REMARK  status: ('A' for Active; 'I' for Inactive)
REMARK    1  A    between atoms: C_1  and  C_2
REMARK    2  A    between atoms: C_2  and  C_22
REMARK    3  A    between atoms: N_5  and  C_9
REMARK    4  A    between atoms: C_9  and  C_10
REMARK                            x       y       z     vdW  Elec       q    Type
REMARK                         _______ _______ _______ _____ _____    ______ ____
ROOT
ATOM      1  C   UNL     1      -6.380   8.379   1.915  0.00  0.00    +0.047 C 
ATOM      2  C   UNL     1      -5.301   7.341   1.599  0.00  0.00    +0.138 C 
ATOM      3  C   UNL     1      -5.912   6.119   0.943  0.00  0.00    +0.251 C 
ATOM      4  O   UNL     1      -6.508   6.075  -0.111  0.00  0.00    -0.272 OA
ATOM      5  N   UNL     1      -5.653   5.091   1.776  0.00  0.00    -0.220 N 
ATOM      6  C   UNL     1      -4.975   5.490   2.858  0.00  0.00    +0.310 C 
ATOM      7  O   UNL     1      -4.631   4.744   3.753  0.00  0.00    -0.252 OA
ATOM      8  N   UNL     1      -4.714   6.810   2.842  0.00  0.00    -0.281 N 
ATOM      9  H   UNL     1      -4.236   7.314   3.519  0.00  0.00    +0.152 HD
ENDROOT
BRANCH   2  10
ATOM     10  C   UNL     1      -4.234   7.938   0.718  0.00  0.00    +0.022 A 
ATOM     11  C   UNL     1      -2.934   8.038   1.178  0.00  0.00    +0.047 A 
ATOM     12  C   UNL     1      -1.954   8.586   0.368  0.00  0.00    +0.124 A 
ATOM     13  C   UNL     1      -2.276   9.035  -0.902  0.00  0.00    +0.041 A 
ATOM     14  C   UNL     1      -3.575   8.934  -1.361  0.00  0.00    +0.041 A 
ATOM     15  C   UNL     1      -4.555   8.382  -0.553  0.00  0.00    +0.129 A 
ATOM     16  F   UNL     1      -5.824   8.279  -1.004  0.00  0.00    -0.205 F 
ATOM     17  F   UNL     1      -0.684   8.684   0.817  0.00  0.00    -0.205 F 
ENDBRANCH   2  10
BRANCH   5  18
ATOM     18  C   UNL     1      -6.069   3.708   1.529  0.00  0.00    +0.153 C 
BRANCH  18  19
ATOM     19  C   UNL     1      -4.990   2.988   0.762  0.00  0.00    -0.025 A 
ATOM     20  C   UNL     1      -3.987   2.322   1.444  0.00  0.00    +0.054 A 
ATOM     21  C   UNL     1      -2.997   1.662   0.736  0.00  0.00    +0.164 A 
ATOM     22  C   UNL     1      -3.011   1.669  -0.652  0.00  0.00    +0.180 A 
ATOM     23  C   UNL     1      -4.016   2.338  -1.331  0.00  0.00    +0.086 A 
ATOM     24  C   UNL     1      -5.005   2.996  -0.620  0.00  0.00    +0.029 A 
ATOM     25 CL   UNL     1      -4.037   2.349  -3.067  0.00  0.00    -0.080 Cl
ATOM     26  O   UNL     1      -2.031   1.014  -1.340  0.00  0.00    -0.487 OA
ATOM     27  C   UNL     1      -0.720   1.576  -1.246  0.00  0.00    +0.232 C 
ATOM     28  C   UNL     1      -0.013   1.086   0.008  0.00  0.00    +0.082 C 
ATOM     29  C   UNL     1      -0.696   1.562   1.280  0.00  0.00    +0.232 C 
ATOM     30  O   UNL     1      -2.003   1.000   1.396  0.00  0.00    -0.488 OA
ENDBRANCH  18  19
ENDBRANCH   5  18
TORSDOF 3
