REMARK  Name = ZINC08854925
REMARK  17 active torsions:
REMARK  status: ('A' for Active; 'I' for Inactive)
REMARK    1  A    between atoms: C_1  and  C_2
REMARK    2  A    between atoms: C_2  and  C_3
REMARK    3  A    between atoms: C_3  and  C_4
REMARK    4  A    between atoms: C_4  and  C_5
REMARK    5  A    between atoms: N_7  and  C_8
REMARK    6  A    between atoms: C_8  and  C_9
REMARK    7  A    between atoms: C_8  and  C_14
REMARK    8  A    between atoms: C_8  and  N_18
REMARK    9  A    between atoms: C_9  and  O_11
REMARK   10  A    between atoms: O_11  and  C_12
REMARK   11  A    between atoms: C_12  and  C_13
REMARK   12  A    between atoms: N_18  and  C_19
REMARK   13  A    between atoms: C_20  and  C_28
REMARK   14  A    between atoms: C_27  and  N_63
REMARK   15  A    between atoms: C_28  and  O_30
REMARK   16  A    between atoms: O_30  and  C_31
REMARK   17  A    between atoms: C_31  and  C_32
REMARK                            x       y       z     vdW  Elec       q    Type
REMARK                         _______ _______ _______ _____ _____    ______ ____
ROOT
ATOM      1  C   UNL     1       4.702   0.412  -0.058  0.00  0.00    +0.295 C 
ENDROOT
BRANCH   1   4
ATOM      2  C   UNL     1       7.122   0.133  -0.116  0.00  0.00    +0.215 C 
ATOM      3  O   UNL     1       6.954  -1.042  -0.363  0.00  0.00    -0.276 OA
ATOM      4  N   UNL     1       6.061   0.956  -0.001  0.00  0.00    -0.278 N 
ATOM      5  H   UNL     1       6.197   1.909   0.119  0.00  0.00    +0.152 HD
BRANCH   2   6
ATOM      6  C   UNL     1       8.518   0.674   0.062  0.00  0.00    +0.096 C 
BRANCH   6   7
ATOM      7  C   UNL     1       9.530  -0.459  -0.118  0.00  0.00    +0.009 C 
BRANCH   7   9
ATOM      8  C   UNL     1      11.960  -1.043  -0.117  0.00  0.00    +0.004 C 
ATOM      9  C   UNL     1      10.947   0.090   0.064  0.00  0.00    -0.003 C 
ENDBRANCH   7   9
ENDBRANCH   6   7
ENDBRANCH   2   6
ENDBRANCH   1   4
BRANCH   1  10
ATOM     10  C   UNL     1       4.496  -0.567   1.099  0.00  0.00    +0.438 C 
ATOM     11  F   UNL     1       3.160  -0.980   1.129  0.00  0.00    -0.166 F 
ATOM     12  F   UNL     1       5.325  -1.680   0.922  0.00  0.00    -0.166 F 
ATOM     13  F   UNL     1       4.815   0.064   2.306  0.00  0.00    -0.166 F 
ENDBRANCH   1  10
BRANCH   1  14
ATOM     14  C   UNL     1       4.505  -0.309  -1.367  0.00  0.00    +0.359 C 
ATOM     15  O   UNL     1       5.460  -0.601  -2.046  0.00  0.00    -0.246 OA
BRANCH  14  16
ATOM     16  O   UNL     1       3.267  -0.628  -1.777  0.00  0.00    -0.462 OA
BRANCH  16  17
ATOM     17  C   UNL     1       3.152  -1.321  -3.047  0.00  0.00    +0.229 C 
ATOM     18  C   UNL     1       1.677  -1.598  -3.346  0.00  0.00    +0.048 C 
ENDBRANCH  16  17
ENDBRANCH  14  16
ENDBRANCH   1  14
BRANCH   1  19
ATOM     19  N   UNL     1       3.733   1.505   0.048  0.00  0.00    -0.301 N 
ATOM     20  H   UNL     1       3.206   1.609   0.856  0.00  0.00    +0.149 HD
BRANCH  19  21
ATOM     21  C   UNL     1       3.571   2.389  -1.001  0.00  0.00    +0.082 A 
ATOM     22  C   UNL     1       2.637   3.412  -1.133  0.00  0.00    +0.090 A 
ATOM     23  C   UNL     1       2.683   4.204  -2.349  0.00  0.00    -0.025 A 
ATOM     24  C   UNL     1       3.643   3.852  -3.233  0.00  0.00    -0.021 A 
ATOM     25  S   UNL     1       4.481   2.492  -2.473  0.00  0.00    -0.080 S 
ATOM     26  C   UNL     1       3.909   4.493  -4.559  0.00  0.00    -0.036 C 
ATOM     27  C   UNL     1       2.370   6.196  -3.784  0.00  0.00    -0.074 C 
ATOM     28  C   UNL     1       1.746   5.365  -2.660  0.00  0.00    +0.018 C 
ATOM     29  C   UNL     1       3.009   6.119  -6.118  0.00  0.00    -0.096 C 
ATOM     30  N   UNL     1       2.724   5.311  -4.913  0.00  0.00    +0.381 N 
ATOM     31  H   UNL     1       1.933   4.687  -5.109  0.00  0.00    -0.082 HD
BRANCH  22  32
ATOM     32  C   UNL     1       1.650   3.679  -0.088  0.00  0.00    +0.342 C 
ATOM     33  O   UNL     1       0.569   3.120  -0.115  0.00  0.00    -0.245 OA
BRANCH  32  34
ATOM     34  O   UNL     1       1.937   4.546   0.905  0.00  0.00    -0.461 OA
BRANCH  34  35
ATOM     35  C   UNL     1       0.925   4.759   1.892  0.00  0.00    +0.229 C 
ATOM     36  C   UNL     1       1.429   5.765   2.929  0.00  0.00    +0.048 C 
ENDBRANCH  34  35
ENDBRANCH  32  34
ENDBRANCH  22  32
ENDBRANCH  19  21
ENDBRANCH   1  19
TORSDOF 13
