REMARK  Name = ZINC40366943
REMARK  8 active torsions:
REMARK  status: ('A' for Active; 'I' for Inactive)
REMARK    1  A    between atoms: C_1  and  C_2
REMARK    2  A    between atoms: C_5  and  S_9
REMARK    3  A    between atoms: C_6  and  C_8
REMARK    4  A    between atoms: S_9  and  N_12
REMARK    5  A    between atoms: N_12  and  C_13
REMARK    6  A    between atoms: C_13  and  C_15
REMARK    7  A    between atoms: C_13  and  C_17
REMARK    8  A    between atoms: C_15  and  N_16
REMARK                            x       y       z     vdW  Elec       q    Type
REMARK                         _______ _______ _______ _____ _____    ______ ____
ROOT
ATOM      1  N   UNL     1       1.016  -4.862   0.966  0.00  0.00    -0.188 NA
ATOM      2  H   UNL     1       1.484  -5.630   0.603  0.00  0.00    +0.148 HD
ENDROOT
BRANCH   1   3
ATOM      3  S   UNL     1      -0.077  -4.041   0.030  0.00  0.00    +0.059 S 
ATOM      4  O   UNL     1      -1.237  -3.854   0.830  0.00  0.00    -0.153 OA
ATOM      5  O   UNL     1      -0.117  -4.706  -1.225  0.00  0.00    -0.153 OA
BRANCH   3  10
ATOM      6  C   UNL     1       2.218   1.444  -0.991  0.00  0.00    +0.044 C 
ATOM      7  C   UNL     1       1.645   0.074  -0.736  0.00  0.00    -0.050 A 
ATOM      8  C   UNL     1       0.514  -0.067   0.046  0.00  0.00    +0.005 A 
ATOM      9  C   UNL     1      -0.012  -1.324   0.280  0.00  0.00    +0.029 A 
ATOM     10  C   UNL     1       0.593  -2.439  -0.269  0.00  0.00    +0.108 A 
ATOM     11  C   UNL     1       1.723  -2.298  -1.052  0.00  0.00    -0.024 A 
ATOM     12  C   UNL     1       2.246  -1.040  -1.289  0.00  0.00    +0.008 A 
ATOM     13  C   UNL     1       2.382  -3.514  -1.649  0.00  0.00    +0.046 C 
ENDBRANCH   3  10
ENDBRANCH   1   3
BRANCH   1  14
ATOM     14  C   UNL     1       1.274  -4.428   2.341  0.00  0.00    +0.062 C 
BRANCH  14  15
ATOM     15  C   UNL     1       2.780  -4.247   2.544  0.00  0.00    +0.006 C 
ATOM     16  C   UNL     1       3.050  -3.794   3.980  0.00  0.00    +0.005 C 
ATOM     17  C   UNL     1       4.556  -3.613   4.183  0.00  0.00    +0.000 C 
ATOM     18  C   UNL     1       5.079  -2.556   3.208  0.00  0.00    +0.000 C 
ATOM     19  C   UNL     1       4.808  -3.009   1.771  0.00  0.00    +0.000 C 
ATOM     20  C   UNL     1       3.303  -3.190   1.569  0.00  0.00    +0.005 C 
ENDBRANCH  14  15
BRANCH  14  21
ATOM     21  C   UNL     1       0.752  -5.485   3.316  0.00  0.00    -0.066 C 
BRANCH  21  22
ATOM     22  N   UNL     1      -0.667  -5.745   3.042  0.00  0.00    +0.379 N 
ATOM     23  H   UNL     1      -1.194  -4.892   3.156  0.00  0.00    -0.090 HD
ATOM     24  H   UNL     1      -0.771  -6.080   2.095  0.00  0.00    -0.090 HD
ATOM     25  H   UNL     1      -1.012  -6.442   3.685  0.00  0.00    -0.090 HD
ENDBRANCH  21  22
ENDBRANCH  14  21
ENDBRANCH   1  14
TORSDOF 6
