REMARK  Name = ZINC39943323
REMARK  6 active torsions:
REMARK  status: ('A' for Active; 'I' for Inactive)
REMARK    1  A    between atoms: C_1  and  C_2
REMARK    2  A    between atoms: C_4  and  C_18
REMARK    3  A    between atoms: C_6  and  C_14
REMARK    4  A    between atoms: C_7  and  N_13
REMARK    5  A    between atoms: C_14  and  O_16
REMARK    6  A    between atoms: O_16  and  C_17
REMARK                            x       y       z     vdW  Elec       q    Type
REMARK                         _______ _______ _______ _____ _____    ______ ____
ROOT
ATOM      1  C   UNL     1      -0.105   1.532   0.092  0.00  0.00    +0.067 C 
ATOM      2  C   UNL     1      -0.045   0.027   0.049  0.00  0.00    +0.066 C 
ATOM      3  C   UNL     1      -1.090  -0.765   0.027  0.00  0.00    +0.029 C 
ATOM      4  C   UNL     1      -2.570  -0.524  -0.099  0.00  0.00    +0.094 C 
ATOM      5  C   UNL     1      -3.075  -1.589  -1.054  0.00  0.00    +0.105 C 
ATOM      6  C   UNL     1      -2.286  -2.608  -1.464  0.00  0.00    +0.191 C 
ATOM      7  O   UNL     1      -1.000  -2.810  -1.133  0.00  0.00    -0.449 OA
ATOM      8  C   UNL     1      -0.517  -2.182   0.058  0.00  0.00    +0.343 C 
ATOM      9  N   UNL     1       0.926  -1.929   0.006  0.00  0.00    -0.138 NA
ATOM     10  N   UNL     1       1.099  -0.704   0.022  0.00  0.00    -0.155 NA
ENDROOT
BRANCH   4  11
ATOM     11  C   UNL     1      -2.828   0.850  -0.661  0.00  0.00    -0.035 A 
ATOM     12  C   UNL     1      -2.344   1.187  -1.911  0.00  0.00    +0.005 A 
ATOM     13  C   UNL     1      -2.582   2.447  -2.428  0.00  0.00    +0.015 A 
ATOM     14  C   UNL     1      -3.304   3.370  -1.693  0.00  0.00    +0.018 A 
ATOM     15  C   UNL     1      -3.788   3.032  -0.442  0.00  0.00    +0.015 A 
ATOM     16  C   UNL     1      -3.554   1.770   0.071  0.00  0.00    +0.005 A 
ATOM     17 BR   UNL     1      -3.628   5.094  -2.399  0.00  0.00    -0.050 Br
ENDBRANCH   4  11
BRANCH   6  18
ATOM     18  N   UNL     1      -2.856  -3.529  -2.302  0.00  0.00    -0.329 N 
ATOM     19  H   UNL     1      -3.757  -3.390  -2.634  0.00  0.00    +0.145 HD
ATOM     20  H   UNL     1      -2.360  -4.320  -2.563  0.00  0.00    +0.145 HD
ENDBRANCH   6  18
BRANCH   5  21
ATOM     21  C   UNL     1      -4.395  -1.515  -1.524  0.00  0.00    +0.341 C 
ATOM     22  O   UNL     1      -5.316  -1.875  -0.812  0.00  0.00    -0.245 OA
BRANCH  21  23
ATOM     23  O   UNL     1      -4.644  -1.045  -2.765  0.00  0.00    -0.465 OA
ATOM     24  C   UNL     1      -6.012  -0.997  -3.178  0.00  0.00    +0.280 C 
ENDBRANCH  21  23
ENDBRANCH   5  21
TORSDOF 4
