REMARK  Name = ZINC41025740
REMARK  3 active torsions:
REMARK  status: ('A' for Active; 'I' for Inactive)
REMARK    1  A    between atoms: C_6  and  C_7
REMARK    2  A    between atoms: C_7  and  N_8
REMARK    3  A    between atoms: N_8  and  C_19
REMARK                            x       y       z     vdW  Elec       q    Type
REMARK                         _______ _______ _______ _____ _____    ______ ____
ROOT
ATOM      1  N   UNL     1      -1.788  -0.914  -1.361  0.00  0.00    -0.304 N 
ATOM      2  C   UNL     1      -2.547   0.096  -1.929  0.00  0.00    +0.151 A 
ATOM      3  C   UNL     1      -3.926   0.155  -1.722  0.00  0.00    +0.126 A 
ATOM      4  C   UNL     1      -4.653   1.198  -2.319  0.00  0.00    +0.183 A 
ATOM      5  N   UNL     1      -5.941   1.027  -1.968  0.00  0.00    -0.216 NA
ATOM      6  H   UNL     1      -4.660  -1.399  -0.507  0.00  0.00    +0.167 HD
ATOM      7  C   UNL     1      -6.056  -0.029  -1.212  0.00  0.00    +0.199 A 
ATOM      8  N   UNL     1      -4.846  -0.603  -1.029  0.00  0.00    -0.340 N 
ATOM      9  N   UNL     1      -3.995   2.094  -3.062  0.00  0.00    -0.214 NA
ATOM     10  C   UNL     1      -2.694   1.998  -3.229  0.00  0.00    +0.225 A 
ATOM     11  N   UNL     1      -1.977   1.035  -2.680  0.00  0.00    -0.218 NA
ENDROOT
BRANCH   1  12
ATOM     12  C   UNL     1      -1.468  -2.115  -2.137  0.00  0.00    +0.098 C 
ATOM     13  C   UNL     1      -0.706  -1.722  -3.413  0.00  0.00    +0.046 C 
ATOM     14  C   UNL     1      -0.647  -2.925  -4.385  0.00  0.00    +0.168 C 
ATOM     15  S   UNL     1      -2.168  -3.865  -3.956  0.00  0.00    -0.029 S 
ATOM     16  O   UNL     1      -3.087  -3.775  -5.036  0.00  0.00    -0.174 OA
ATOM     17  O   UNL     1      -1.797  -5.144  -3.459  0.00  0.00    -0.174 OA
ATOM     18  C   UNL     1      -2.782  -2.832  -2.560  0.00  0.00    +0.188 C 
ENDBRANCH   1  12
BRANCH   1  19
ATOM     19  C   UNL     1      -1.304  -0.781   0.015  0.00  0.00    +0.142 C 
BRANCH  19  25
ATOM     20  C   UNL     1      -0.026   1.371   0.041  0.00  0.00    +0.006 A 
ATOM     21  C   UNL     1       1.162   2.077   0.046  0.00  0.00    +0.020 A 
ATOM     22  C   UNL     1       2.369   1.401   0.031  0.00  0.00    +0.041 A 
ATOM     23  C   UNL     1       2.385   0.018   0.011  0.00  0.00    +0.020 A 
ATOM     24  C   UNL     1       1.197  -0.688   0.006  0.00  0.00    +0.006 A 
ATOM     25  C   UNL     1      -0.009  -0.011   0.021  0.00  0.00    -0.030 A 
ATOM     26 CL   UNL     1       3.861   2.288   0.037  0.00  0.00    -0.084 Cl
ENDBRANCH  19  25
ENDBRANCH   1  19
TORSDOF 3
