REMARK  Name = ZINC06194615
REMARK  11 active torsions:
REMARK  status: ('A' for Active; 'I' for Inactive)
REMARK    1  A    between atoms: C_1  and  C_2
REMARK    2  A    between atoms: C_2  and  O_3
REMARK    3  A    between atoms: O_3  and  C_4
REMARK    4  A    between atoms: C_4  and  C_6
REMARK    5  A    between atoms: C_11  and  C_13
REMARK    6  A    between atoms: C_11  and  C_27
REMARK    7  A    between atoms: C_11  and  N_69
REMARK    8  A    between atoms: C_17  and  C_26
REMARK    9  A    between atoms: C_18  and  C_25
REMARK   10  A    between atoms: N_31  and  C_32
REMARK   11  A    between atoms: C_32  and  C_33
REMARK                            x       y       z     vdW  Elec       q    Type
REMARK                         _______ _______ _______ _____ _____    ______ ____
ROOT
ATOM      1  C   UNL     1      -5.243   3.431  -0.157  0.00  0.00    +0.039 C 
ENDROOT
BRANCH   1   2
ATOM      2  C   UNL     1      -4.002   2.587  -0.019  0.00  0.00    +0.011 A 
ATOM      3  C   UNL     1      -3.502   1.939  -1.100  0.00  0.00    +0.017 A 
ATOM      4  C   UNL     1      -2.298   1.124  -0.932  0.00  0.00    -0.001 A 
ATOM      5  C   UNL     1      -1.744   0.420  -2.007  0.00  0.00    +0.013 A 
ATOM      6  C   UNL     1      -0.620  -0.332  -1.817  0.00  0.00    -0.047 A 
ATOM      7  C   UNL     1      -0.021  -0.404  -0.567  0.00  0.00    -0.046 A 
ATOM      8  C   UNL     1      -0.548   0.281   0.506  0.00  0.00    +0.030 A 
ATOM      9  C   UNL     1      -1.696   1.049   0.338  0.00  0.00    +0.049 A 
ATOM     10  N   UNL     1      -2.249   1.740   1.395  0.00  0.00    -0.322 N 
ATOM     11  H   UNL     1      -1.818   1.689   2.296  0.00  0.00    +0.169 HD
ATOM     12  C   UNL     1      -3.358   2.483   1.232  0.00  0.00    +0.251 A 
ATOM     13  O   UNL     1      -3.819   3.080   2.189  0.00  0.00    -0.268 OA
ATOM     14  C   UNL     1       1.219  -1.240  -0.381  0.00  0.00    +0.044 C 
ATOM     15  C   UNL     1      -0.024  -1.090  -2.976  0.00  0.00    +0.044 C 
ENDBRANCH   1   2
BRANCH   1  21
ATOM     16  C   UNL     1      -8.857   1.804   1.447  0.00  0.00    +0.094 C 
ATOM     17  C   UNL     1      -8.504   3.269   1.718  0.00  0.00    -0.004 C 
ATOM     18  C   UNL     1      -7.495   3.748   0.672  0.00  0.00    -0.077 C 
ATOM     19  C   UNL     1      -6.594   1.511   0.433  0.00  0.00    -0.077 C 
ATOM     20  C   UNL     1      -7.577   0.965   1.472  0.00  0.00    -0.004 C 
ATOM     21  N   UNL     1      -6.277   2.916   0.765  0.00  0.00    +0.389 N 
ATOM     22  H   UNL     1      -5.917   2.958   1.726  0.00  0.00    -0.080 HD
BRANCH  16  23
ATOM     23  C   UNL     1      -9.806   1.310   2.508  0.00  0.00    +0.310 C 
ATOM     24  O   UNL     1     -10.164   2.052   3.392  0.00  0.00    -0.251 OA
BRANCH  23  25
ATOM     25  O   UNL     1     -10.254   0.044   2.472  0.00  0.00    -0.465 OA
BRANCH  25  27
ATOM     26  C   UNL     1     -11.563  -1.826   3.319  0.00  0.00    +0.048 C 
ATOM     27  C   UNL     1     -11.165  -0.363   3.526  0.00  0.00    +0.229 C 
ENDBRANCH  25  27
ENDBRANCH  23  25
ENDBRANCH  16  23
ENDBRANCH   1  21
BRANCH   1  28
ATOM     28  C   UNL     1      -5.730   3.378  -1.582  0.00  0.00    +0.143 A 
ATOM     29  N   UNL     1      -6.262   2.346  -2.190  0.00  0.00    -0.115 NA
ATOM     30  N   UNL     1      -6.550   2.699  -3.395  0.00  0.00    -0.023 NA
ATOM     31  N   UNL     1      -6.208   3.927  -3.575  0.00  0.00    -0.044 NA
ATOM     32  N   UNL     1      -5.699   4.381  -2.479  0.00  0.00    -0.226 N 
BRANCH  32  33
ATOM     33  C   UNL     1      -5.182   5.734  -2.255  0.00  0.00    +0.182 C 
BRANCH  33  34
ATOM     34  C   UNL     1      -3.725   5.785  -2.637  0.00  0.00    -0.026 A 
ATOM     35  C   UNL     1      -2.753   5.559  -1.680  0.00  0.00    +0.008 A 
ATOM     36  C   UNL     1      -1.416   5.601  -2.030  0.00  0.00    +0.038 A 
ATOM     37  C   UNL     1      -1.051   5.879  -3.336  0.00  0.00    +0.123 A 
ATOM     38  C   UNL     1      -2.026   6.111  -4.292  0.00  0.00    +0.038 A 
ATOM     39  C   UNL     1      -3.362   6.063  -3.941  0.00  0.00    +0.008 A 
ATOM     40  F   UNL     1       0.255   5.925  -3.678  0.00  0.00    -0.205 F 
ENDBRANCH  33  34
ENDBRANCH  32  33
ENDBRANCH   1  28
TORSDOF 8
