REMARK  Name = ZINC13124769
REMARK  4 active torsions:
REMARK  status: ('A' for Active; 'I' for Inactive)
REMARK    1  A    between atoms: C_1  and  O_2
REMARK    2  A    between atoms: O_2  and  C_3
REMARK    3  A    between atoms: C_7  and  C_9
REMARK    4  A    between atoms: C_12  and  C_21
REMARK                            x       y       z     vdW  Elec       q    Type
REMARK                         _______ _______ _______ _____ _____    ______ ____
ROOT
ATOM      1  C   UNL     1      -2.540  -4.171   0.015  0.00  0.00    +0.143 C 
ATOM      2  C   UNL     1      -3.279  -4.656   1.268  0.00  0.00    +0.059 C 
ATOM      3  C   UNL     1      -3.586  -6.153   1.141  0.00  0.00    +0.107 C 
ATOM      4  N   UNL     1      -4.480  -6.354  -0.016  0.00  0.00    -0.307 N 
ATOM      5  C   UNL     1      -4.163  -5.644  -1.167  0.00  0.00    +0.216 A 
ATOM      6  N   UNL     1      -3.261  -4.631  -1.170  0.00  0.00    -0.224 N 
ATOM      7  N   UNL     1      -3.192  -4.160  -2.482  0.00  0.00    -0.132 NA
ATOM      8  C   UNL     1      -4.027  -4.886  -3.191  0.00  0.00    +0.233 A 
ATOM      9  N   UNL     1      -4.619  -5.786  -2.383  0.00  0.00    -0.180 NA
ATOM     10  N   UNL     1      -4.266  -4.743  -4.558  0.00  0.00    -0.326 N 
ATOM     11  H   UNL     1      -5.246  -6.947   0.025  0.00  0.00    +0.149 HD
ATOM     12  H   UNL     1      -3.796  -4.061  -5.064  0.00  0.00    +0.145 HD
ATOM     13  H   UNL     1      -4.902  -5.324  -5.003  0.00  0.00    +0.145 HD
ENDROOT
BRANCH   3  14
ATOM     14  C   UNL     1      -2.303  -6.916   0.931  0.00  0.00    -0.009 A 
ATOM     15  C   UNL     1      -1.884  -7.225  -0.349  0.00  0.00    +0.008 A 
ATOM     16  C   UNL     1      -0.708  -7.925  -0.542  0.00  0.00    +0.020 A 
ATOM     17  C   UNL     1       0.051  -8.316   0.547  0.00  0.00    +0.042 A 
ATOM     18  C   UNL     1      -0.368  -8.007   1.829  0.00  0.00    +0.040 A 
ATOM     19  C   UNL     1      -1.543  -7.302   2.021  0.00  0.00    +0.047 A 
ATOM     20 CL   UNL     1      -2.066  -6.907   3.628  0.00  0.00    -0.083 Cl
ATOM     21 CL   UNL     1       1.528  -9.196   0.305  0.00  0.00    -0.083 Cl
ENDBRANCH   3  14
BRANCH   1  26
ATOM     22  C   UNL     1      -1.200  -0.637   0.010  0.00  0.00    +0.120 A 
ATOM     23  C   UNL     1      -2.375   0.101   0.019  0.00  0.00    +0.045 A 
ATOM     24  C   UNL     1      -3.596  -0.545   0.027  0.00  0.00    +0.004 A 
ATOM     25  C   UNL     1      -3.648  -1.927   0.026  0.00  0.00    +0.006 A 
ATOM     26  C   UNL     1      -2.479  -2.665   0.017  0.00  0.00    -0.019 A 
ATOM     27  C   UNL     1      -1.255  -2.023   0.003  0.00  0.00    +0.051 A 
BRANCH  22  29
ATOM     28  C   UNL     1      -0.017   1.425   0.010  0.00  0.00    +0.277 C 
ATOM     29  O   UNL     1       0.002  -0.004   0.002  0.00  0.00    -0.495 OA
ENDBRANCH  22  29
ENDBRANCH   1  26
TORSDOF 3
