REMARK  Name = ZINC13501239
REMARK  10 active torsions:
REMARK  status: ('A' for Active; 'I' for Inactive)
REMARK    1  A    between atoms: C_1  and  C_2
REMARK    2  A    between atoms: C_12  and  C_14
REMARK    3  A    between atoms: C_14  and  N_70
REMARK    4  A    between atoms: C_15  and  C_16
REMARK    5  A    between atoms: C_15  and  N_70
REMARK    6  A    between atoms: C_16  and  C_17
REMARK    7  A    between atoms: C_17  and  O_18
REMARK    8  A    between atoms: C_19  and  C_24
REMARK    9  A    between atoms: C_19  and  N_70
REMARK   10  A    between atoms: N_28  and  C_29
REMARK                            x       y       z     vdW  Elec       q    Type
REMARK                         _______ _______ _______ _____ _____    ______ ____
ROOT
ATOM      1  N   UNL     1      -3.072   3.877  -1.406  0.00  0.00    +0.391 N 
ATOM      2  H   UNL     1      -2.866   2.897  -1.631  0.00  0.00    -0.080 HD
ENDROOT
BRANCH   1   3
ATOM      3  C   UNL     1      -4.415   4.216  -1.924  0.00  0.00    -0.002 C 
ATOM      4  C   UNL     1      -4.741   5.701  -1.686  0.00  0.00    -0.004 C 
ATOM      5  C   UNL     1      -5.997   5.736  -0.789  0.00  0.00    -0.001 C 
ATOM      6  C   UNL     1      -5.986   4.368  -0.064  0.00  0.00    -0.001 C 
ATOM      7  C   UNL     1      -5.483   3.402  -1.165  0.00  0.00    -0.004 C 
BRANCH   3   8
ATOM      8  C   UNL     1      -4.477   3.904  -3.397  0.00  0.00    +0.141 A 
ATOM      9  N   UNL     1      -3.505   3.430  -4.138  0.00  0.00    -0.115 NA
ATOM     10  N   UNL     1      -3.950   3.297  -5.340  0.00  0.00    -0.023 NA
ATOM     11  N   UNL     1      -5.177   3.681  -5.386  0.00  0.00    -0.044 NA
ATOM     12  N   UNL     1      -5.539   4.062  -4.208  0.00  0.00    -0.228 N 
BRANCH  12  13
ATOM     13  C   UNL     1      -6.858   4.573  -3.825  0.00  0.00    +0.111 C 
ATOM     14  C   UNL     1      -7.919   3.508  -4.109  0.00  0.00    +0.027 C 
ATOM     15  C   UNL     1      -9.296   4.041  -3.709  0.00  0.00    +0.002 C 
ATOM     16  C   UNL     1      -9.609   5.302  -4.518  0.00  0.00    +0.000 C 
ATOM     17  C   UNL     1      -8.548   6.367  -4.233  0.00  0.00    +0.002 C 
ATOM     18  C   UNL     1      -7.171   5.834  -4.633  0.00  0.00    +0.027 C 
ENDBRANCH  12  13
ENDBRANCH   3   8
ENDBRANCH   1   3
BRANCH   1  19
ATOM     19  C   UNL     1      -3.039   4.049   0.062  0.00  0.00    -0.036 C 
BRANCH  19  31
ATOM     20  C   UNL     1       2.095   0.512   2.145  0.00  0.00    +0.046 C 
ATOM     21  C   UNL     1       1.899   2.001   2.013  0.00  0.00    -0.026 A 
ATOM     22  C   UNL     1       2.914   2.865   2.363  0.00  0.00    +0.005 A 
ATOM     23  C   UNL     1       2.747   4.238   2.246  0.00  0.00    +0.001 A 
ATOM     24  C   UNL     1       1.572   4.759   1.781  0.00  0.00    +0.010 A 
ATOM     25  C   UNL     1       0.529   3.900   1.419  0.00  0.00    -0.001 A 
ATOM     26  C   UNL     1       0.695   2.507   1.537  0.00  0.00    +0.052 A 
ATOM     27  N   UNL     1      -0.337   1.666   1.178  0.00  0.00    -0.322 N 
ATOM     28  H   UNL     1      -0.221   0.706   1.260  0.00  0.00    +0.169 HD
ATOM     29  C   UNL     1      -1.499   2.156   0.713  0.00  0.00    +0.251 A 
ATOM     30  O   UNL     1      -2.387   1.382   0.401  0.00  0.00    -0.268 OA
ATOM     31  C   UNL     1      -1.718   3.544   0.582  0.00  0.00    +0.001 A 
ATOM     32  C   UNL     1      -0.743   4.424   0.917  0.00  0.00    +0.017 A 
ENDBRANCH  19  31
ENDBRANCH   1  19
BRANCH   1  33
ATOM     33  C   UNL     1      -2.054   4.740  -2.039  0.00  0.00    -0.075 C 
BRANCH  33  34
ATOM     34  C   UNL     1      -0.735   3.967  -2.109  0.00  0.00    +0.009 C 
BRANCH  34  35
ATOM     35  C   UNL     1       0.345   4.856  -2.729  0.00  0.00    +0.154 C 
BRANCH  35  36
ATOM     36  O   UNL     1       1.576   4.133  -2.794  0.00  0.00    -0.395 OA
ATOM     37  H   UNL     1       2.308   4.637  -3.177  0.00  0.00    +0.209 HD
ENDBRANCH  35  36
ENDBRANCH  34  35
ENDBRANCH  33  34
ENDBRANCH   1  33
TORSDOF 9
