REMARK  Name = ZINC05874650
REMARK  7 active torsions:
REMARK  status: ('A' for Active; 'I' for Inactive)
REMARK    1  A    between atoms: C_1  and  C_2
REMARK    2  A    between atoms: C_5  and  C_14
REMARK    3  A    between atoms: C_12  and  C_13
REMARK    4  A    between atoms: C_14  and  O_15
REMARK    5  A    between atoms: O_15  and  C_16
REMARK    6  A    between atoms: C_16  and  C_18
REMARK    7  A    between atoms: C_18  and  N_19
REMARK                            x       y       z     vdW  Elec       q    Type
REMARK                         _______ _______ _______ _____ _____    ______ ____
ROOT
ATOM      1  O   UNL     1      -0.243   1.247   2.461  0.00  0.00    -0.459 OA
ENDROOT
BRANCH   1   2
ATOM      2  C   UNL     1      -0.718   1.572   1.248  0.00  0.00    +0.326 C 
ATOM      3  O   UNL     1      -1.711   2.254   1.150  0.00  0.00    -0.249 OA
BRANCH   2   4
ATOM      4  C   UNL     1      -0.013   1.086   0.008  0.00  0.00    +0.238 C 
BRANCH   4   5
ATOM      5  N   UNL     1      -0.721   1.571  -1.179  0.00  0.00    -0.213 N 
ATOM      6  C   UNL     1      -0.456   2.743  -1.795  0.00  0.00    +0.247 C 
ATOM      7  O   UNL     1       0.381   3.564  -1.486  0.00  0.00    -0.273 OA
ATOM      8  C   UNL     1      -1.422   2.813  -2.950  0.00  0.00    +0.113 C 
ATOM      9  C   UNL     1      -0.677   2.903  -4.288  0.00  0.00    +0.035 C 
ATOM     10  C   UNL     1      -1.577   3.818  -5.158  0.00  0.00    +0.003 C 
ATOM     11  C   UNL     1      -2.099   4.860  -4.136  0.00  0.00    +0.003 C 
ATOM     12  C   UNL     1      -2.327   4.043  -2.845  0.00  0.00    +0.035 C 
ATOM     13  N   UNL     1      -2.195   1.572  -2.857  0.00  0.00    -0.285 N 
ATOM     14  C   UNL     1      -1.709   0.905  -1.791  0.00  0.00    +0.310 C 
ATOM     15  O   UNL     1      -2.123  -0.178  -1.425  0.00  0.00    -0.252 OA
ATOM     16  H   UNL     1      -2.909   1.286  -3.447  0.00  0.00    +0.151 HD
ENDBRANCH   4   5
ENDBRANCH   2   4
ENDBRANCH   1   2
BRANCH   1  17
ATOM     17  C   UNL     1      -0.974   1.750   3.611  0.00  0.00    +0.268 C 
BRANCH  17  22
ATOM     18  C   UNL     1      -3.691   3.619   7.679  0.00  0.00    +0.044 C 
ATOM     19  C   UNL     1      -2.453   2.770   7.551  0.00  0.00    -0.047 A 
ATOM     20  C   UNL     1      -1.980   2.444   6.310  0.00  0.00    +0.015 A 
ATOM     21  C   UNL     1      -0.831   1.655   6.192  0.00  0.00    +0.024 A 
ATOM     22  C   UNL     1      -0.298   1.288   4.876  0.00  0.00    +0.007 A 
ATOM     23  C   UNL     1       0.816   0.515   4.829  0.00  0.00    +0.099 A 
ATOM     24  C   UNL     1       1.433   0.100   6.029  0.00  0.00    +0.338 A 
ATOM     25  O   UNL     1       2.436  -0.589   5.973  0.00  0.00    -0.245 OA
ATOM     26  O   UNL     1       0.940   0.440   7.230  0.00  0.00    -0.422 OA
ATOM     27  C   UNL     1      -0.169   1.202   7.346  0.00  0.00    +0.140 A 
ATOM     28  C   UNL     1      -0.667   1.545   8.596  0.00  0.00    +0.050 A 
ATOM     29  C   UNL     1      -1.802   2.325   8.692  0.00  0.00    -0.044 A 
ATOM     30  C   UNL     1      -2.340   2.696  10.050  0.00  0.00    +0.044 C 
ENDBRANCH  17  22
ENDBRANCH   1  17
TORSDOF 5
