REMARK  Name = ZINC48979455
REMARK  2 active torsions:
REMARK  status: ('A' for Active; 'I' for Inactive)
REMARK    1  A    between atoms: C_2  and  C_3
REMARK    2  A    between atoms: C_3  and  N_4
REMARK                            x       y       z     vdW  Elec       q    Type
REMARK                         _______ _______ _______ _____ _____    ______ ____
ROOT
ATOM      1  N   UNL     1       3.501  -2.356   0.451  0.00  0.00    -0.296 N 
ATOM      2  C   UNL     1       2.457  -2.447   1.299  0.00  0.00    +0.303 C 
ATOM      3  O   UNL     1       1.512  -1.690   1.184  0.00  0.00    -0.253 OA
ATOM      4  N   UNL     1       2.459  -3.377   2.274  0.00  0.00    -0.281 N 
ATOM      5  C   UNL     1       1.285  -3.570   3.138  0.00  0.00    +0.116 C 
ATOM      6  C   UNL     1       0.714  -4.972   2.900  0.00  0.00    +0.072 C 
ATOM      7  C   UNL     1       1.848  -5.970   2.890  0.00  0.00    +0.023 A 
ATOM      8  C   UNL     1       3.145  -5.641   2.709  0.00  0.00    -0.002 A 
ATOM      9  C   UNL     1       3.911  -6.868   2.760  0.00  0.00    +0.006 A 
ATOM     10  C   UNL     1       5.277  -7.141   2.636  0.00  0.00    +0.010 A 
ATOM     11  C   UNL     1       5.659  -8.456   2.740  0.00  0.00    +0.002 A 
ATOM     12  C   UNL     1       4.745  -9.474   2.957  0.00  0.00    +0.017 A 
ATOM     13  C   UNL     1       3.387  -9.232   3.084  0.00  0.00    +0.042 A 
ATOM     14  C   UNL     1       2.970  -7.906   2.983  0.00  0.00    +0.061 A 
ATOM     15  N   UNL     1       1.736  -7.326   3.057  0.00  0.00    -0.357 N 
ATOM     16  H   UNL     1       0.904  -7.803   3.205  0.00  0.00    +0.166 HD
ATOM     17 BR   UNL     1       2.156 -10.636   3.381  0.00  0.00    -0.048 Br
ATOM     18  C   UNL     1       3.637  -4.233   2.500  0.00  0.00    +0.146 C 
ATOM     19  H   UNL     1       4.286  -2.909   0.587  0.00  0.00    +0.151 HD
ENDROOT
BRANCH   1  20
ATOM     20  C   UNL     1       3.450  -1.422  -0.676  0.00  0.00    +0.132 C 
BRANCH  20  22
ATOM     21  C   UNL     1       4.694  -1.763  -2.749  0.00  0.00    +0.005 C 
ATOM     22  C   UNL     1       4.731  -1.514  -1.463  0.00  0.00    -0.016 C 
ENDBRANCH  20  22
ENDBRANCH   1  20
TORSDOF 2
