REMARK  Name = ZINC39688882
REMARK  6 active torsions:
REMARK  status: ('A' for Active; 'I' for Inactive)
REMARK    1  A    between atoms: C_1  and  N_2
REMARK    2  A    between atoms: C_6  and  C_7
REMARK    3  A    between atoms: C_7  and  N_8
REMARK    4  A    between atoms: C_9  and  C_11
REMARK    5  A    between atoms: C_22  and  C_24
REMARK    6  A    between atoms: C_28  and  C_30
REMARK                            x       y       z     vdW  Elec       q    Type
REMARK                         _______ _______ _______ _____ _____    ______ ____
ROOT
ATOM      1  C   UNL     1       2.762   0.052   4.824  0.00  0.00    +0.100 C 
ATOM      2  C   UNL     1       3.849  -1.044   4.755  0.00  0.00    +0.121 C 
ATOM      3  N   UNL     1       4.725  -0.776   5.921  0.00  0.00    -0.296 N 
ATOM      4  C   UNL     1       3.789  -0.388   7.003  0.00  0.00    +0.115 C 
ATOM      5  C   UNL     1       2.725   0.479   6.301  0.00  0.00    -0.004 C 
ATOM      6  C   UNL     1       1.347   0.206   6.896  0.00  0.00    -0.010 C 
ATOM      7  C   UNL     1       1.317   0.693   8.348  0.00  0.00    -0.082 C 
ATOM      8  N   UNL     1       1.615   2.130   8.390  0.00  0.00    +0.379 N 
ATOM      9  C   UNL     1       2.978   2.373   7.903  0.00  0.00    -0.082 C 
ATOM     10  C   UNL     1       3.078   1.958   6.432  0.00  0.00    -0.010 C 
ATOM     11  C   UNL     1       6.068  -0.866   5.982  0.00  0.00    +0.247 C 
ATOM     12  O   UNL     1       6.711  -1.074   4.972  0.00  0.00    -0.270 OA
ATOM     13  H   UNL     1       0.957   2.625   7.808  0.00  0.00    -0.086 HD
ATOM     14  H   UNL     1       1.534   2.460   9.340  0.00  0.00    -0.086 HD
ENDROOT
BRANCH  11  15
ATOM     15  C   UNL     1       6.760  -0.711   7.279  0.00  0.00    +0.038 A 
ATOM     16  C   UNL     1       6.062  -0.904   8.473  0.00  0.00    +0.016 A 
ATOM     17  C   UNL     1       6.713  -0.758   9.679  0.00  0.00    +0.039 A 
ATOM     18  C   UNL     1       8.057  -0.420   9.709  0.00  0.00    +0.135 A 
ATOM     19  C   UNL     1       8.755  -0.227   8.526  0.00  0.00    +0.091 A 
ATOM     20  C   UNL     1       8.115  -0.376   7.314  0.00  0.00    +0.028 A 
ATOM     21  F   UNL     1       8.690  -0.278  10.894  0.00  0.00    -0.205 F 
BRANCH  19  22
ATOM     22  C   UNL     1      10.215   0.140   8.566  0.00  0.00    +0.420 C 
ATOM     23  F   UNL     1      10.697   0.280   7.260  0.00  0.00    -0.166 F 
ATOM     24  F   UNL     1      10.374   1.348   9.253  0.00  0.00    -0.166 F 
ATOM     25  F   UNL     1      10.932  -0.867   9.221  0.00  0.00    -0.166 F 
ENDBRANCH  19  22
ENDBRANCH  11  15
BRANCH   1  27
ATOM     26  N   UNL     1       0.516   0.292   3.817  0.00  0.00    -0.308 N 
ATOM     27  C   UNL     1       1.427  -0.507   4.406  0.00  0.00    +0.219 C 
ATOM     28  O   UNL     1       1.171  -1.677   4.600  0.00  0.00    -0.275 OA
ATOM     29  H   UNL     1       0.720   1.228   3.663  0.00  0.00    +0.149 HD
BRANCH  26  30
ATOM     30  C   UNL     1      -0.783  -0.251   3.411  0.00  0.00    +0.176 C 
BRANCH  30  36
ATOM     31  C   UNL     1      -2.568   1.798   4.900  0.00  0.00    +0.150 C 
ATOM     32  N   UNL     1      -2.383   1.725   3.449  0.00  0.00    -0.338 N 
ATOM     33  C   UNL     1      -2.957   2.545   2.515  0.00  0.00    +0.104 A 
ATOM     34  C   UNL     1      -2.519   2.130   1.311  0.00  0.00    +0.101 A 
ATOM     35  N   UNL     1      -1.700   1.086   1.504  0.00  0.00    -0.348 N 
ATOM     36  C   UNL     1      -1.610   0.841   2.782  0.00  0.00    +0.104 A 
ATOM     37  H   UNL     1      -1.244   0.593   0.804  0.00  0.00    +0.166 HD
ENDBRANCH  30  36
ENDBRANCH  26  30
ENDBRANCH   1  27
TORSDOF 5
