REMARK  Name = ZINC19941178
REMARK  13 active torsions:
REMARK  status: ('A' for Active; 'I' for Inactive)
REMARK    1  A    between atoms: C_1  and  C_2
REMARK    2  A    between atoms: C_2  and  C_4
REMARK    3  A    between atoms: C_2  and  N_11
REMARK    4  A    between atoms: N_6  and  C_7
REMARK    5  A    between atoms: C_7  and  C_8
REMARK    6  A    between atoms: C_7  and  C_9
REMARK    7  A    between atoms: C_7  and  C_10
REMARK    8  A    between atoms: N_11  and  C_12
REMARK    9  A    between atoms: C_19  and  C_21
REMARK   10  A    between atoms: C_21  and  S_22
REMARK   11  A    between atoms: S_22  and  C_24
REMARK   12  A    between atoms: C_24  and  C_25
REMARK   13  A    between atoms: N_27  and  C_28
REMARK                            x       y       z     vdW  Elec       q    Type
REMARK                         _______ _______ _______ _____ _____    ______ ____
ROOT
ATOM      1  N   UNL     1       0.017   1.193   1.905  0.00  0.00    -0.259 N 
ATOM      2  C   UNL     1      -0.688   0.283   2.607  0.00  0.00    +0.233 C 
ATOM      3  O   UNL     1      -1.801  -0.032   2.245  0.00  0.00    -0.274 OA
ENDROOT
BRANCH   1   4
ATOM      4  C   UNL     1       1.342   1.474   2.257  0.00  0.00    +0.037 A 
ATOM      5  C   UNL     1       1.619   2.172   3.425  0.00  0.00    +0.025 A 
ATOM      6  C   UNL     1       2.928   2.443   3.772  0.00  0.00    +0.022 A 
ATOM      7  C   UNL     1       3.963   2.030   2.951  0.00  0.00    +0.041 A 
ATOM      8  C   UNL     1       3.689   1.339   1.783  0.00  0.00    +0.022 A 
ATOM      9  C   UNL     1       2.382   1.061   1.435  0.00  0.00    +0.025 A 
ATOM     10 CL   UNL     1       5.607   2.378   3.387  0.00  0.00    -0.084 Cl
ENDBRANCH   1   4
BRANCH   1  12
ATOM     11  C   UNL     1       0.151   1.548  -0.511  0.00  0.00    +0.038 C 
ATOM     12  C   UNL     1      -0.605   1.888   0.775  0.00  0.00    +0.164 C 
BRANCH  12  13
ATOM     13  C   UNL     1      -0.553   3.376   1.010  0.00  0.00    +0.234 C 
ATOM     14  O   UNL     1      -0.046   3.813   2.022  0.00  0.00    -0.274 OA
ATOM     15  N   UNL     1      -1.069   4.221   0.096  0.00  0.00    -0.309 N 
ATOM     16  H   UNL     1      -1.528   3.824  -0.822  0.00  0.00    +0.149 HD
BRANCH  15  17
ATOM     17  C   UNL     1      -1.018   5.667   0.324  0.00  0.00    +0.026 C 
ATOM     18  C   UNL     1       0.440   6.111   0.456  0.00  0.00    +0.031 C 
ATOM     19  C   UNL     1      -1.667   6.392  -0.857  0.00  0.00    +0.031 C 
ATOM     20  C   UNL     1      -1.774   6.007   1.609  0.00  0.00    +0.031 C 
ENDBRANCH  15  17
ENDBRANCH  12  13
ENDBRANCH   1  12
BRANCH   2  21
ATOM     21  C   UNL     1      -0.092  -0.342   3.842  0.00  0.00    +0.200 C 
BRANCH  21  22
ATOM     22  S   UNL     1      -1.203  -1.635   4.462  0.00  0.00    +0.040 S 
ATOM     23  O   UNL     1      -1.317  -2.666   3.490  0.00  0.00    -0.256 OA
BRANCH  22  24
ATOM     24  C   UNL     1      -0.353  -2.278   5.929  0.00  0.00    +0.200 C 
BRANCH  24  25
ATOM     25  C   UNL     1      -1.180  -3.375   6.549  0.00  0.00    +0.230 C 
ATOM     26  O   UNL     1      -2.239  -3.691   6.049  0.00  0.00    -0.274 OA
ATOM     27  N   UNL     1      -0.743  -4.004   7.658  0.00  0.00    -0.285 N 
ATOM     28  H   UNL     1       0.175  -3.662   8.158  0.00  0.00    +0.155 HD
BRANCH  27  29
ATOM     29  C   UNL     1      -1.458  -5.093   8.173  0.00  0.00    +0.037 A 
ATOM     30  C   UNL     1      -1.492  -5.316   9.543  0.00  0.00    +0.027 A 
ATOM     31  C   UNL     1      -2.200  -6.388  10.052  0.00  0.00    +0.051 A 
ATOM     32  C   UNL     1      -2.870  -7.248   9.198  0.00  0.00    +0.166 A 
ATOM     33  C   UNL     1      -2.833  -7.030   7.822  0.00  0.00    +0.168 A 
ATOM     34  C   UNL     1      -2.127  -5.953   7.313  0.00  0.00    +0.072 A 
ATOM     35  O   UNL     1      -3.563  -8.005   7.206  0.00  0.00    -0.453 OA
ATOM     36  C   UNL     1      -3.707  -9.053   8.183  0.00  0.00    +0.466 C 
ATOM     37  O   UNL     1      -3.624  -8.361   9.443  0.00  0.00    -0.453 OA
ENDBRANCH  27  29
ENDBRANCH  24  25
ENDBRANCH  22  24
ENDBRANCH  21  22
ENDBRANCH   2  21
TORSDOF 9
