REMARK  Name = ZINC13128233
REMARK  5 active torsions:
REMARK  status: ('A' for Active; 'I' for Inactive)
REMARK    1  A    between atoms: C_1  and  N_2
REMARK    2  A    between atoms: C_3  and  C_5
REMARK    3  A    between atoms: C_16  and  C_18
REMARK    4  A    between atoms: C_20  and  C_29
REMARK    5  A    between atoms: N_21  and  C_23
REMARK                            x       y       z     vdW  Elec       q    Type
REMARK                         _______ _______ _______ _____ _____    ______ ____
ROOT
ATOM      1  C   UNL     1      -1.450  -3.112  -2.348  0.00  0.00    +0.276 C 
ATOM      2  C   UNL     1      -2.523  -2.016  -2.280  0.00  0.00    +0.168 C 
ATOM      3  N   UNL     1      -3.717  -2.602  -1.645  0.00  0.00    -0.258 N 
ATOM      4  C   UNL     1      -4.085  -3.903  -2.023  0.00  0.00    +0.079 A 
ATOM      5  C   UNL     1      -5.338  -4.395  -1.688  0.00  0.00    +0.027 A 
ATOM      6  C   UNL     1      -5.698  -5.675  -2.065  0.00  0.00    +0.002 A 
ATOM      7  C   UNL     1      -4.812  -6.463  -2.777  0.00  0.00    +0.004 A 
ATOM      8  C   UNL     1      -3.565  -5.976  -3.118  0.00  0.00    +0.047 A 
ATOM      9  C   UNL     1      -3.196  -4.691  -2.747  0.00  0.00    +0.143 A 
ATOM     10  O   UNL     1      -1.968  -4.219  -3.090  0.00  0.00    -0.476 OA
ATOM     11  C   UNL     1      -4.427  -1.914  -0.729  0.00  0.00    +0.290 C 
ATOM     12  O   UNL     1      -5.429  -2.404  -0.245  0.00  0.00    -0.266 OA
ENDROOT
BRANCH   1  15
ATOM     13  C   UNL     1       1.682  -1.056  -3.136  0.00  0.00    +0.128 C 
ATOM     14  N   UNL     1       0.488  -1.579  -2.467  0.00  0.00    -0.315 N 
ATOM     15  C   UNL     1      -0.222  -2.574  -3.036  0.00  0.00    +0.255 C 
ATOM     16  O   UNL     1       0.128  -3.036  -4.101  0.00  0.00    -0.272 OA
ATOM     17  H   UNL     1       0.208  -1.210  -1.615  0.00  0.00    +0.148 HD
ENDBRANCH   1  15
BRANCH  11  18
ATOM     18  C   UNL     1      -3.988  -0.565  -0.313  0.00  0.00    +0.238 A 
ATOM     19  N   UNL     1      -4.524   0.165   0.679  0.00  0.00    -0.202 NA
ATOM     20  C   UNL     1      -3.856   1.300   0.734  0.00  0.00    +0.164 A 
ATOM     21  N   UNL     1      -2.903   1.254  -0.239  0.00  0.00    -0.212 N 
ATOM     22  N   UNL     1      -3.009   0.127  -0.854  0.00  0.00    -0.139 NA
BRANCH  21  23
ATOM     23  C   UNL     1      -1.972   2.261  -0.524  0.00  0.00    +0.068 A 
ATOM     24  C   UNL     1      -2.377   3.589  -0.571  0.00  0.00    +0.028 A 
ATOM     25  C   UNL     1      -1.455   4.580  -0.846  0.00  0.00    +0.002 A 
ATOM     26  C   UNL     1      -0.133   4.251  -1.082  0.00  0.00    +0.000 A 
ATOM     27  C   UNL     1       0.271   2.929  -1.042  0.00  0.00    +0.002 A 
ATOM     28  C   UNL     1      -0.645   1.933  -0.767  0.00  0.00    +0.028 A 
ENDBRANCH  21  23
BRANCH  20  29
ATOM     29  C   UNL     1      -4.096   2.416   1.676  0.00  0.00    +0.019 A 
ATOM     30  C   UNL     1      -3.054   3.274   2.026  0.00  0.00    +0.011 A 
ATOM     31  C   UNL     1      -3.285   4.315   2.901  0.00  0.00    +0.001 A 
ATOM     32  C   UNL     1      -4.546   4.503   3.438  0.00  0.00    +0.000 A 
ATOM     33  C   UNL     1      -5.583   3.652   3.100  0.00  0.00    +0.001 A 
ATOM     34  C   UNL     1      -5.365   2.610   2.222  0.00  0.00    +0.011 A 
ENDBRANCH  20  29
ENDBRANCH  11  18
TORSDOF 4
