REMARK  Name = ZINC21226020
REMARK  4 active torsions:
REMARK  status: ('A' for Active; 'I' for Inactive)
REMARK    1  A    between atoms: C_1  and  C_2
REMARK    2  A    between atoms: C_2  and  C_4
REMARK    3  A    between atoms: C_2  and  S_14
REMARK    4  A    between atoms: S_14  and  C_15
REMARK                            x       y       z     vdW  Elec       q    Type
REMARK                         _______ _______ _______ _____ _____    ______ ____
ROOT
ATOM      1  C   UNL     1       6.400   6.151  -1.460  0.00  0.00    +0.192 A 
ATOM      2  N   UNL     1       7.385   5.342  -1.086  0.00  0.00    -0.207 NA
ATOM      3  C   UNL     1       8.606   5.786  -0.843  0.00  0.00    +0.129 A 
ATOM      4  C   UNL     1       8.881   7.176  -0.984  0.00  0.00    +0.051 A 
ATOM      5  C   UNL     1      10.145   7.885  -0.769  0.00  0.00    -0.025 A 
ATOM      6  C   UNL     1      10.141   9.217  -0.972  0.00  0.00    -0.004 A 
ATOM      7  S   UNL     1       8.480   9.606  -1.455  0.00  0.00    -0.073 S 
ATOM      8  C   UNL     1       7.791   7.973  -1.383  0.00  0.00    +0.115 A 
ATOM      9  N   UNL     1       6.601   7.453  -1.612  0.00  0.00    -0.214 NA
ATOM     10  C   UNL     1      11.294  10.162  -0.821  0.00  0.00    +0.043 C 
ATOM     11  C   UNL     1      12.405   9.450  -0.036  0.00  0.00    +0.005 C 
ATOM     12  C   UNL     1      12.621   8.061  -0.644  0.00  0.00    +0.005 C 
ATOM     13  C   UNL     1      11.420   7.166  -0.335  0.00  0.00    +0.037 C 
ATOM     14  N   UNL     1       9.605   4.911  -0.456  0.00  0.00    -0.343 N 
ATOM     15  H   UNL     1      10.618   5.288  -0.256  0.00  0.00    +0.144 HD
ATOM     16  H   UNL     1       9.385   3.839  -0.350  0.00  0.00    +0.144 HD
ENDROOT
BRANCH   1  17
ATOM     17  S   UNL     1       4.799   5.481  -1.765  0.00  0.00    -0.073 S 
BRANCH  17  19
ATOM     18  C   UNL     1       5.471   3.563   0.060  0.00  0.00    +0.029 C 
ATOM     19  C   UNL     1       5.119   3.733  -1.419  0.00  0.00    +0.137 C 
BRANCH  19  20
ATOM     20  C   UNL     1       3.888   2.925  -1.739  0.00  0.00    +0.231 C 
ATOM     21  O   UNL     1       2.806   3.469  -1.805  0.00  0.00    -0.274 OA
ATOM     22  N   UNL     1       3.990   1.598  -1.951  0.00  0.00    -0.269 N 
ATOM     23  C   UNL     1       2.870   0.867  -2.348  0.00  0.00    +0.125 A 
ATOM     24  C   UNL     1       3.005  -0.478  -2.671  0.00  0.00    +0.045 A 
ATOM     25  C   UNL     1       1.887  -1.192  -3.064  0.00  0.00    +0.025 A 
ATOM     26  C   UNL     1       0.665  -0.531  -3.120  0.00  0.00    +0.059 A 
ATOM     27  C   UNL     1       0.605   0.808  -2.785  0.00  0.00    +0.132 A 
ATOM     28  N   UNL     1       1.690   1.462  -2.414  0.00  0.00    -0.239 NA
ATOM     29 CL   UNL     1      -0.769  -1.379  -3.607  0.00  0.00    -0.082 Cl
ATOM     30  H   UNL     1       4.956   1.091  -1.811  0.00  0.00    +0.156 HD
ENDBRANCH  19  20
ENDBRANCH  17  19
ENDBRANCH   1  17
TORSDOF 3
