REMARK  Name = ZINC40008573
REMARK  10 active torsions:
REMARK  status: ('A' for Active; 'I' for Inactive)
REMARK    1  A    between atoms: C_1  and  C_2
REMARK    2  A    between atoms: C_2  and  N_3
REMARK    3  A    between atoms: N_3  and  C_4
REMARK    4  A    between atoms: N_3  and  C_6
REMARK    5  A    between atoms: C_4  and  C_5
REMARK    6  A    between atoms: C_6  and  C_7
REMARK    7  A    between atoms: C_7  and  C_8
REMARK    8  A    between atoms: C_8  and  N_9
REMARK    9  A    between atoms: C_10  and  C_26
REMARK   10  A    between atoms: C_30  and  N_32
REMARK                            x       y       z     vdW  Elec       q    Type
REMARK                         _______ _______ _______ _____ _____    ______ ____
ROOT
ATOM      1  N   UNL     1       2.352  -4.535   3.681  0.00  0.00    -0.284 N 
ATOM      2  C   UNL     1       3.794  -4.652   3.954  0.00  0.00    +0.145 C 
ATOM      3  C   UNL     1       3.904  -5.178   5.348  0.00  0.00    +0.072 A 
ATOM      4  C   UNL     1       5.075  -5.507   6.167  0.00  0.00    +0.199 A 
ATOM      5  O   UNL     1       6.215  -5.219   5.848  0.00  0.00    -0.287 OA
ATOM      6  C   UNL     1       4.739  -6.225   7.423  0.00  0.00    +0.065 A 
ATOM      7  C   UNL     1       5.747  -6.781   8.209  0.00  0.00    +0.030 A 
ATOM      8  C   UNL     1       5.417  -7.448   9.368  0.00  0.00    +0.019 A 
ATOM      9  C   UNL     1       4.086  -7.564   9.749  0.00  0.00    +0.019 A 
ATOM     10  C   UNL     1       3.083  -7.017   8.982  0.00  0.00    +0.048 A 
ATOM     11  C   UNL     1       3.392  -6.335   7.804  0.00  0.00    +0.140 A 
ATOM     12  O   UNL     1       2.387  -5.799   7.074  0.00  0.00    -0.450 OA
ATOM     13  C   UNL     1       2.637  -5.342   5.831  0.00  0.00    +0.199 A 
ATOM     14  C   UNL     1       1.685  -4.935   4.783  0.00  0.00    +0.283 C 
ATOM     15  O   UNL     1       0.476  -4.958   4.894  0.00  0.00    -0.267 OA
ATOM     16 BR   UNL     1       6.776  -8.206  10.443  0.00  0.00    -0.050 Br
ENDROOT
BRANCH   2  17
ATOM     17  C   UNL     1       4.431  -5.612   2.983  0.00  0.00    -0.020 A 
ATOM     18  C   UNL     1       3.768  -6.769   2.619  0.00  0.00    +0.006 A 
ATOM     19  C   UNL     1       4.352  -7.649   1.728  0.00  0.00    +0.003 A 
ATOM     20  C   UNL     1       5.600  -7.373   1.201  0.00  0.00    +0.033 A 
ATOM     21  C   UNL     1       6.263  -6.216   1.564  0.00  0.00    +0.127 A 
ATOM     22  C   UNL     1       5.677  -5.333   2.452  0.00  0.00    +0.038 A 
BRANCH  21  23
ATOM     23  N   UNL     1       7.599  -5.920   1.000  0.00  0.00    +0.056 N 
ATOM     24  O   UNL     1       8.111  -6.691   0.221  0.00  0.00    -0.126 OA
ATOM     25  O   UNL     1       8.179  -4.908   1.318  0.00  0.00    -0.126 OA
ENDBRANCH  21  23
ENDBRANCH   2  17
BRANCH   1  26
ATOM     26  C   UNL     1       1.748  -4.062   2.433  0.00  0.00    +0.107 C 
BRANCH  26  27
ATOM     27  C   UNL     1       1.558  -2.546   2.502  0.00  0.00    +0.000 C 
BRANCH  27  28
ATOM     28  C   UNL     1       0.926  -2.051   1.199  0.00  0.00    -0.077 C 
BRANCH  28  29
ATOM     29  N   UNL     1       0.643  -0.614   1.306  0.00  0.00    +0.379 N 
ATOM     30  H   UNL     1       0.074  -0.444   2.122  0.00  0.00    -0.082 HD
BRANCH  29  32
ATOM     31  C   UNL     1       1.607   1.609   1.663  0.00  0.00    -0.017 C 
ATOM     32  C   UNL     1       1.905   0.127   1.426  0.00  0.00    -0.082 C 
ENDBRANCH  29  32
BRANCH  29  33
ATOM     33  C   UNL     1      -0.076  -0.166   0.106  0.00  0.00    -0.082 C 
ATOM     34  C   UNL     1      -1.460  -0.817   0.068  0.00  0.00    -0.017 C 
ENDBRANCH  29  33
ENDBRANCH  28  29
ENDBRANCH  27  28
ENDBRANCH  26  27
ENDBRANCH   1  26
TORSDOF 8
