REMARK  Name = ZINC17137676
REMARK  3 active torsions:
REMARK  status: ('A' for Active; 'I' for Inactive)
REMARK    1  A    between atoms: C_5  and  N_7
REMARK    2  A    between atoms: C_11  and  N_12
REMARK    3  A    between atoms: N_12  and  N_13
REMARK                            x       y       z     vdW  Elec       q    Type
REMARK                         _______ _______ _______ _____ _____    ______ ____
ROOT
ATOM      1  N   UNL     1       5.217  -1.635   5.484  0.00  0.00    -0.215 N 
ATOM      2  C   UNL     1       4.386  -1.236   4.499  0.00  0.00    +0.263 C 
ATOM      3  O   UNL     1       3.321  -0.707   4.756  0.00  0.00    -0.269 OA
ATOM      4  C   UNL     1       4.804  -1.458   3.103  0.00  0.00    +0.116 C 
ATOM      5  C   UNL     1       4.005  -1.077   2.042  0.00  0.00    +0.102 C 
ATOM      6  C   UNL     1       6.108  -2.111   2.889  0.00  0.00    +0.276 C 
ATOM      7  O   UNL     1       6.518  -2.333   1.765  0.00  0.00    -0.268 OA
ATOM      8  N   UNL     1       6.836  -2.452   3.972  0.00  0.00    -0.153 NA
ATOM      9  C   UNL     1       6.394  -2.218   5.215  0.00  0.00    +0.171 C 
ATOM     10  S   UNL     1       7.383  -2.691   6.530  0.00  0.00    -0.016 S 
ENDROOT
BRANCH   1  15
ATOM     11  C   UNL     1       3.756  -2.210   8.811  0.00  0.00    +0.002 A 
ATOM     12  C   UNL     1       4.102  -1.036   9.457  0.00  0.00    +0.002 A 
ATOM     13  C   UNL     1       4.817  -0.061   8.787  0.00  0.00    +0.022 A 
ATOM     14  C   UNL     1       5.193  -0.258   7.472  0.00  0.00    +0.063 A 
ATOM     15  C   UNL     1       4.842  -1.433   6.820  0.00  0.00    +0.062 A 
ATOM     16  C   UNL     1       4.124  -2.411   7.495  0.00  0.00    +0.025 A 
ATOM     17 CL   UNL     1       6.097   0.964   6.634  0.00  0.00    -0.082 Cl
ENDBRANCH   1  15
BRANCH   5  18
ATOM     18  N   UNL     1       2.895  -0.343   2.263  0.00  0.00    -0.284 N 
ATOM     19  H   UNL     1       2.674   0.029   3.275  0.00  0.00    +0.166 HD
BRANCH  18  20
ATOM     20  N   UNL     1       2.045  -0.062   1.232  0.00  0.00    -0.225 NA
ATOM     21  C   UNL     1       0.701  -0.597   1.495  0.00  0.00    +0.133 C 
ATOM     22  C   UNL     1      -0.201  -0.313   0.291  0.00  0.00    +0.177 C 
ATOM     23  O   UNL     1      -0.218   1.095   0.037  0.00  0.00    -0.377 OA
ATOM     24  C   UNL     1       1.074   1.649  -0.224  0.00  0.00    +0.177 C 
ATOM     25  C   UNL     1       1.988   1.385   0.975  0.00  0.00    +0.133 C 
ENDBRANCH  18  20
ENDBRANCH   5  18
TORSDOF 3
