REMARK  Name = ZINC25571764
REMARK  3 active torsions:
REMARK  status: ('A' for Active; 'I' for Inactive)
REMARK    1  A    between atoms: C_1  and  C_2
REMARK    2  A    between atoms: C_7  and  N_10
REMARK    3  A    between atoms: N_15  and  C_20
REMARK                            x       y       z     vdW  Elec       q    Type
REMARK                         _______ _______ _______ _____ _____    ______ ____
ROOT
ATOM      1  N   UNL     1      -2.864   3.109   0.046  0.00  0.00    -0.326 N 
ATOM      2  C   UNL     1      -3.844   3.785   0.745  0.00  0.00    +0.133 A 
ATOM      3  C   UNL     1      -5.171   3.313   0.767  0.00  0.00    +0.078 A 
ATOM      4  C   UNL     1      -5.841   2.208   0.199  0.00  0.00    +0.148 A 
ATOM      5  N   UNL     1      -7.094   2.260   0.551  0.00  0.00    -0.177 NA
ATOM      6  N   UNL     1      -7.312   3.385   1.356  0.00  0.00    -0.249 N 
ATOM      7  C   UNL     1      -6.128   4.045   1.497  0.00  0.00    +0.163 A 
ATOM      8  N   UNL     1      -5.742   5.149   2.135  0.00  0.00    -0.216 NA
ATOM      9  C   UNL     1      -4.491   5.551   2.085  0.00  0.00    +0.225 A 
ATOM     10  N   UNL     1      -3.558   4.894   1.418  0.00  0.00    -0.220 NA
ATOM     11  C   UNL     1      -8.592   3.783   1.946  0.00  0.00    +0.174 C 
ATOM     12  H   UNL     1      -3.115   2.189  -0.503  0.00  0.00    +0.148 HD
ENDROOT
BRANCH   1  18
ATOM     13  C   UNL     1      -0.037   1.099  -2.490  0.00  0.00    +0.007 C 
ATOM     14  C   UNL     1      -0.753   1.593  -1.232  0.00  0.00    -0.012 C 
ATOM     15  C   UNL     1      -0.013   1.086   0.008  0.00  0.00    +0.003 C 
ATOM     16  C   UNL     1      -0.729   1.579   1.267  0.00  0.00    +0.002 C 
ATOM     17  C   UNL     1      -0.750   3.109   1.275  0.00  0.00    +0.022 C 
ATOM     18  C   UNL     1      -1.490   3.616   0.036  0.00  0.00    +0.072 C 
ATOM     19  C   UNL     1      -0.773   3.123  -1.223  0.00  0.00    +0.025 C 
ENDBRANCH   1  18
TORSDOF 1
