REMARK  Name = ZINC05284476
REMARK  6 active torsions:
REMARK  status: ('A' for Active; 'I' for Inactive)
REMARK    1  A    between atoms: C_1  and  C_2
REMARK    2  A    between atoms: C_2  and  C_3
REMARK    3  A    between atoms: C_2  and  C_4
REMARK    4  A    between atoms: C_4  and  C_6
REMARK    5  A    between atoms: C_6  and  N_8
REMARK    6  A    between atoms: C_6  and  N_17
REMARK                            x       y       z     vdW  Elec       q    Type
REMARK                         _______ _______ _______ _____ _____    ______ ____
ROOT
ATOM      1  C   UNL     1      -2.461   2.074   0.023  0.00  0.00    +0.276 C 
ENDROOT
BRANCH   1   2
ATOM      2  N   UNL     1      -3.057   2.662   1.225  0.00  0.00    -0.318 N 
ATOM      3  C   UNL     1      -3.021   3.991   1.550  0.00  0.00    +0.089 A 
ATOM      4  C   UNL     1      -3.660   4.195   2.713  0.00  0.00    +0.027 A 
ATOM      5  C   UNL     1      -4.146   2.891   3.170  0.00  0.00    -0.000 A 
ATOM      6  C   UNL     1      -3.742   1.962   2.192  0.00  0.00    +0.051 A 
ATOM      7  C   UNL     1      -4.060   0.618   2.357  0.00  0.00    +0.026 A 
ATOM      8  C   UNL     1      -4.771   0.214   3.466  0.00  0.00    +0.002 A 
ATOM      9  C   UNL     1      -5.171   1.135   4.425  0.00  0.00    +0.001 A 
ATOM     10  C   UNL     1      -4.865   2.459   4.285  0.00  0.00    +0.010 A 
ENDBRANCH   1   2
BRANCH   1  11
ATOM     11  N   UNL     1      -1.018   2.328   0.019  0.00  0.00    -0.214 N 
ATOM     12  C   UNL     1      -0.017   1.387   0.010  0.00  0.00    +0.092 A 
ATOM     13  C   UNL     1       0.002  -0.004   0.002  0.00  0.00    +0.030 A 
ATOM     14  C   UNL     1       1.197  -0.667  -0.013  0.00  0.00    +0.002 A 
ATOM     15  C   UNL     1       2.395   0.035  -0.021  0.00  0.00    +0.002 A 
ATOM     16  C   UNL     1       2.404   1.400  -0.013  0.00  0.00    +0.032 A 
ATOM     17  C   UNL     1       1.192   2.104   0.002  0.00  0.00    +0.113 A 
ATOM     18  N   UNL     1       0.889   3.417   0.012  0.00  0.00    -0.129 NA
ATOM     19  N   UNL     1      -0.387   3.581   0.025  0.00  0.00    -0.062 NA
ENDBRANCH   1  11
BRANCH   1  20
ATOM     20  C   UNL     1      -3.084   2.693  -1.201  0.00  0.00    +0.181 C 
ATOM     21  O   UNL     1      -2.548   3.629  -1.744  0.00  0.00    -0.293 OA
BRANCH  20  23
ATOM     22  C   UNL     1      -5.104   3.237  -2.533  0.00  0.00    +0.015 C 
ATOM     23  C   UNL     1      -4.376   2.143  -1.749  0.00  0.00    +0.053 C 
ATOM     24  C   UNL     1      -4.077   0.965  -2.677  0.00  0.00    +0.015 C 
ENDBRANCH  20  23
ENDBRANCH   1  20
TORSDOF 4
