REMARK  Name = ZINC35310745
REMARK  6 active torsions:
REMARK  status: ('A' for Active; 'I' for Inactive)
REMARK    1  A    between atoms: C_3  and  C_6
REMARK    2  A    between atoms: C_6  and  N_7
REMARK    3  A    between atoms: C_15  and  N_17
REMARK    4  A    between atoms: N_17  and  C_18
REMARK    5  A    between atoms: C_18  and  N_20
REMARK    6  A    between atoms: N_20  and  C_21
REMARK                            x       y       z     vdW  Elec       q    Type
REMARK                         _______ _______ _______ _____ _____    ______ ____
ROOT
ATOM      1  N   UNL     1       5.143   1.909   0.888  0.00  0.00    +0.387 N 
ATOM      2  C   UNL     1       4.303   2.694   1.831  0.00  0.00    -0.066 C 
ATOM      3  C   UNL     1       4.522   4.163   1.403  0.00  0.00    -0.017 C 
ATOM      4  C   UNL     1       5.903   4.172   0.715  0.00  0.00    -0.017 C 
ATOM      5  C   UNL     1       6.393   2.708   0.791  0.00  0.00    -0.066 C 
ATOM      6  C   UNL     1       7.150   2.534   2.118  0.00  0.00    +0.007 C 
ATOM      7  C   UNL     1       6.310   3.133   3.250  0.00  0.00    +0.069 C 
ATOM      8  C   UNL     1       4.898   2.506   3.236  0.00  0.00    +0.007 C 
ATOM      9  H   UNL     1       5.336   0.991   1.260  0.00  0.00    -0.081 HD
ENDROOT
BRANCH   7  10
ATOM     10  N   UNL     1       6.209   4.583   3.066  0.00  0.00    -0.324 N 
ATOM     11  H   UNL     1       5.804   4.943   2.262  0.00  0.00    +0.148 HD
BRANCH  10  12
ATOM     12  C   UNL     1       6.678   5.416   4.016  0.00  0.00    +0.135 C 
ATOM     13  S   UNL     1       7.392   4.781   5.436  0.00  0.00    -0.019 S 
BRANCH  12  14
ATOM     14  N   UNL     1       6.585   6.750   3.847  0.00  0.00    -0.297 N 
ATOM     15  H   UNL     1       6.109   7.110   3.082  0.00  0.00    +0.154 HD
BRANCH  14  16
ATOM     16  C   UNL     1       7.175   7.616   4.775  0.00  0.00    +0.033 A 
ATOM     17  C   UNL     1       8.432   7.330   5.291  0.00  0.00    +0.025 A 
ATOM     18  C   UNL     1       9.012   8.187   6.207  0.00  0.00    +0.022 A 
ATOM     19  C   UNL     1       8.341   9.328   6.610  0.00  0.00    +0.041 A 
ATOM     20  C   UNL     1       7.088   9.615   6.097  0.00  0.00    +0.022 A 
ATOM     21  C   UNL     1       6.506   8.765   5.177  0.00  0.00    +0.025 A 
ATOM     22 CL   UNL     1       9.072  10.402   7.761  0.00  0.00    -0.084 Cl
ENDBRANCH  14  16
ENDBRANCH  12  14
ENDBRANCH  10  12
ENDBRANCH   7  10
BRANCH   1  23
ATOM     23  C   UNL     1       4.491   1.807  -0.424  0.00  0.00    -0.035 C 
BRANCH  23  26
ATOM     24  C   UNL     1       1.071   0.186   0.012  0.00  0.00    +0.008 A 
ATOM     25  C   UNL     1       2.010   1.200  -0.025  0.00  0.00    +0.009 A 
ATOM     26  C   UNL     1       3.297   0.893  -0.322  0.00  0.00    -0.027 A 
ATOM     27  S   UNL     1       3.210  -0.873  -0.563  0.00  0.00    -0.103 S 
ATOM     28  C   UNL     1       1.464  -1.084  -0.251  0.00  0.00    +0.045 A 
ENDBRANCH  23  26
ENDBRANCH   1  23
TORSDOF 6
