REMARK  Name = ZINC02368918
REMARK  4 active torsions:
REMARK  status: ('A' for Active; 'I' for Inactive)
REMARK    1  A    between atoms: C_8  and  N_25
REMARK    2  A    between atoms: C_9  and  C_12
REMARK    3  A    between atoms: N_16  and  C_20
REMARK    4  A    between atoms: C_28  and  C_31
REMARK                            x       y       z     vdW  Elec       q    Type
REMARK                         _______ _______ _______ _____ _____    ______ ____
ROOT
ATOM      1  C   UNL     1      -8.232   8.323   5.464  0.00  0.00    +0.005 A 
ATOM      2  C   UNL     1      -7.028   8.475   4.763  0.00  0.00    +0.018 A 
ATOM      3  C   UNL     1      -6.361   7.387   4.318  0.00  0.00    +0.096 A 
ATOM      4  N   UNL     1      -6.844   6.132   4.543  0.00  0.00    -0.268 N 
ATOM      5  C   UNL     1      -8.015   5.952   5.224  0.00  0.00    +0.142 A 
ATOM      6  C   UNL     1      -8.724   7.073   5.694  0.00  0.00    +0.047 A 
ATOM      7  N   UNL     1      -8.504   4.733   5.453  0.00  0.00    -0.214 NA
ATOM      8  C   UNL     1      -7.881   3.643   5.029  0.00  0.00    +0.136 A 
ATOM      9  C   UNL     1      -6.661   3.767   4.324  0.00  0.00    +0.081 A 
ATOM     10  C   UNL     1      -6.152   5.066   4.085  0.00  0.00    +0.267 A 
ATOM     11  O   UNL     1      -5.107   5.220   3.477  0.00  0.00    -0.267 OA
ENDROOT
BRANCH   9  12
ATOM     12  C   UNL     1      -5.971   2.622   3.863  0.00  0.00    +0.037 C 
ATOM     13  C   UNL     1      -6.592   1.740   3.026  0.00  0.00    +0.077 C 
ATOM     14  C   UNL     1      -6.079   0.568   2.403  0.00  0.00    +0.259 C 
ATOM     15  O   UNL     1      -4.926   0.216   2.581  0.00  0.00    -0.269 OA
ATOM     16  N   UNL     1      -6.888  -0.127   1.622  0.00  0.00    -0.252 N 
ATOM     17  C   UNL     1      -8.169   0.259   1.429  0.00  0.00    +0.121 C 
ATOM     18  S   UNL     1      -9.382  -0.483   0.476  0.00  0.00    -0.027 S 
ATOM     19  S   UNL     1      -8.274   1.741   2.421  0.00  0.00    -0.061 S 
BRANCH  16  20
ATOM     20  C   UNL     1      -6.391  -1.336   0.961  0.00  0.00    +0.083 C 
ATOM     21  C   UNL     1      -6.618  -1.252  -0.573  0.00  0.00    +0.023 C 
ATOM     22  C   UNL     1      -6.625  -2.742  -0.995  0.00  0.00    +0.002 C 
ATOM     23  C   UNL     1      -7.360  -3.461   0.155  0.00  0.00    +0.002 C 
ATOM     24  C   UNL     1      -7.211  -2.567   1.398  0.00  0.00    +0.023 C 
ENDBRANCH  16  20
ENDBRANCH   9  12
BRANCH   8  25
ATOM     25  N   UNL     1      -8.415   2.397   5.278  0.00  0.00    -0.314 N 
ATOM     26  C   UNL     1      -7.937   1.867   6.561  0.00  0.00    +0.107 C 
ATOM     27  C   UNL     1      -8.432   0.429   6.736  0.00  0.00    +0.031 C 
ATOM     28  C   UNL     1      -9.962   0.412   6.694  0.00  0.00    +0.078 C 
ATOM     29  C   UNL     1     -10.435   1.015   5.369  0.00  0.00    +0.031 C 
ATOM     30  C   UNL     1      -9.883   2.436   5.234  0.00  0.00    +0.107 C 
BRANCH  28  31
ATOM     31  C   UNL     1     -10.454  -1.008   6.806  0.00  0.00    +0.214 C 
ATOM     32  O   UNL     1     -11.117  -1.492   5.914  0.00  0.00    -0.276 OA
ATOM     33  N   UNL     1     -10.156  -1.740   7.897  0.00  0.00    -0.329 N 
ATOM     34  H   UNL     1      -9.625  -1.353   8.611  0.00  0.00    +0.145 HD
ATOM     35  H   UNL     1     -10.472  -2.654   7.969  0.00  0.00    +0.145 HD
ENDBRANCH  28  31
ENDBRANCH   8  25
TORSDOF 4
