REMARK  Name = ZINC01293767
REMARK  6 active torsions:
REMARK  status: ('A' for Active; 'I' for Inactive)
REMARK    1  A    between atoms: C_1  and  C_2
REMARK    2  A    between atoms: N_5  and  C_6
REMARK    3  A    between atoms: C_6  and  C_7
REMARK    4  A    between atoms: N_9  and  N_10
REMARK    5  A    between atoms: C_11  and  C_12
REMARK    6  A    between atoms: C_15  and  O_18
REMARK                            x       y       z     vdW  Elec       q    Type
REMARK                         _______ _______ _______ _____ _____    ______ ____
ROOT
ATOM      1  C   UNL     1      -0.014   1.209   0.009  0.00  0.00    +0.252 C 
ATOM      2  O   UNL     1       0.002  -0.004   0.002  0.00  0.00    -0.272 OA
ATOM      3  N   UNL     1      -1.191   1.867   0.018  0.00  0.00    -0.206 N 
ATOM      4  H   UNL     1      -1.204   2.837   0.023  0.00  0.00    +0.177 HD
ENDROOT
BRANCH   3   5
ATOM      5  N   UNL     1      -2.394   1.150   0.020  0.00  0.00    -0.188 NA
ATOM      6  C   UNL     1      -3.527   1.784   0.029  0.00  0.00    +0.138 C 
BRANCH   6   7
ATOM      7  C   UNL     1      -4.793   1.029   0.030  0.00  0.00    -0.005 A 
ATOM      8  C   UNL     1      -4.777  -0.368   0.017  0.00  0.00    +0.013 A 
ATOM      9  C   UNL     1      -5.963  -1.069   0.024  0.00  0.00    +0.046 A 
ATOM     10  C   UNL     1      -7.174  -0.389   0.034  0.00  0.00    +0.117 A 
ATOM     11  C   UNL     1      -7.196   1.000   0.042  0.00  0.00    +0.046 A 
ATOM     12  C   UNL     1      -6.014   1.709   0.040  0.00  0.00    +0.013 A 
BRANCH  10  13
ATOM     13  O   UNL     1      -8.341  -1.084   0.035  0.00  0.00    -0.507 OA
ATOM     14  H   UNL     1      -8.683  -1.280  -0.849  0.00  0.00    +0.292 HD
ENDBRANCH  10  13
ENDBRANCH   6   7
ENDBRANCH   3   5
BRANCH   1  15
ATOM     15  C   UNL     1       1.280   1.980   0.001  0.00  0.00    +0.220 C 
BRANCH  15  20
ATOM     16  C   UNL     1       2.502   0.673  -2.530  0.00  0.00    +0.084 C 
ATOM     17  C   UNL     1       2.952   0.464  -1.107  0.00  0.00    +0.084 A 
ATOM     18  C   UNL     1       4.049  -0.247   0.610  0.00  0.00    +0.101 A 
ATOM     19  C   UNL     1       3.107   0.597   1.073  0.00  0.00    +0.105 A 
ATOM     20  N   UNL     1       2.407   1.043  -0.015  0.00  0.00    -0.327 N 
ATOM     21  N   UNL     1       3.933  -0.306  -0.724  0.00  0.00    -0.350 N 
ATOM     22  H   UNL     1       4.523  -0.869  -1.347  0.00  0.00    +0.166 HD
ENDBRANCH  15  20
ENDBRANCH   1  15
TORSDOF 5
