REMARK  Name = ZINC07088535
REMARK  9 active torsions:
REMARK  status: ('A' for Active; 'I' for Inactive)
REMARK    1  A    between atoms: C_1  and  C_2
REMARK    2  A    between atoms: C_2  and  C_3
REMARK    3  A    between atoms: C_2  and  C_4
REMARK    4  A    between atoms: C_2  and  C_5
REMARK    5  A    between atoms: C_8  and  C_11
REMARK    6  A    between atoms: C_14  and  S_21
REMARK    7  A    between atoms: N_15  and  C_16
REMARK    8  A    between atoms: S_21  and  C_22
REMARK    9  A    between atoms: C_22  and  C_23
REMARK                            x       y       z     vdW  Elec       q    Type
REMARK                         _______ _______ _______ _____ _____    ______ ____
ROOT
ATOM      1  C   UNL     1       1.030   0.356   4.647  0.00  0.00    +0.165 A 
ATOM      2  N   UNL     1       1.912   0.213   3.686  0.00  0.00    -0.128 NA
ATOM      3  N   UNL     1       1.362   0.447   2.548  0.00  0.00    -0.122 NA
ATOM      4  C   UNL     1       0.097   0.763   2.714  0.00  0.00    +0.193 A 
ATOM      5  N   UNL     1      -0.159   0.713   4.054  0.00  0.00    -0.299 N 
ENDROOT
BRANCH   1   9
ATOM      6  C   UNL     1       1.717  -0.180   8.805  0.00  0.00    -0.042 A 
ATOM      7  C   UNL     1       2.427  -0.933   7.886  0.00  0.00    +0.005 A 
ATOM      8  C   UNL     1       2.209  -0.764   6.535  0.00  0.00    +0.012 A 
ATOM      9  C   UNL     1       1.269   0.170   6.094  0.00  0.00    +0.019 A 
ATOM     10  C   UNL     1       0.561   0.930   7.026  0.00  0.00    +0.012 A 
ATOM     11  C   UNL     1       0.785   0.747   8.375  0.00  0.00    +0.005 A 
BRANCH   6  13
ATOM     12  C   UNL     1       3.425  -0.062  10.598  0.00  0.00    +0.015 C 
ATOM     13  C   UNL     1       1.961  -0.371  10.279  0.00  0.00    -0.013 C 
ATOM     14  C   UNL     1       1.056   0.575  11.072  0.00  0.00    +0.015 C 
ATOM     15  C   UNL     1       1.649  -1.818  10.665  0.00  0.00    +0.015 C 
ENDBRANCH   6  13
ENDBRANCH   1   9
BRANCH   5  16
ATOM     16  C   UNL     1      -1.435   0.983   4.722  0.00  0.00    +0.091 C 
ATOM     17  C   UNL     1      -2.551   0.120   4.098  0.00  0.00    +0.025 C 
ATOM     18  C   UNL     1      -3.794   1.046   4.103  0.00  0.00    +0.002 C 
ATOM     19  C   UNL     1      -3.191   2.431   3.760  0.00  0.00    +0.002 C 
ATOM     20  C   UNL     1      -1.842   2.452   4.508  0.00  0.00    +0.025 C 
ENDBRANCH   5  16
BRANCH   4  21
ATOM     21  S   UNL     1      -1.054   1.168   1.444  0.00  0.00    -0.078 S 
BRANCH  21  22
ATOM     22  C   UNL     1       0.015   1.019  -0.009  0.00  0.00    +0.153 C 
BRANCH  22  23
ATOM     23  C   UNL     1      -0.779   1.330  -1.251  0.00  0.00    +0.146 A 
ATOM     24  N   UNL     1      -1.406   0.359  -1.893  0.00  0.00    -0.199 NA
ATOM     25  C   UNL     1      -2.112   0.630  -2.988  0.00  0.00    +0.217 A 
ATOM     26  N   UNL     1      -2.179   1.877  -3.442  0.00  0.00    -0.181 NA
ATOM     27  C   UNL     1      -1.543   2.850  -2.797  0.00  0.00    +0.217 A 
ATOM     28  N   UNL     1      -0.843   2.571  -1.699  0.00  0.00    -0.199 NA
ATOM     29  N   UNL     1      -1.609   4.146  -3.264  0.00  0.00    -0.327 N 
ATOM     30  N   UNL     1      -2.770  -0.383  -3.655  0.00  0.00    -0.327 N 
ATOM     31  H   UNL     1      -1.145   4.856  -2.793  0.00  0.00    +0.145 HD
ATOM     32  H   UNL     1      -2.119   4.349  -4.064  0.00  0.00    +0.145 HD
ATOM     33  H   UNL     1      -3.282  -0.185  -4.455  0.00  0.00    +0.145 HD
ATOM     34  H   UNL     1      -2.721  -1.293  -3.323  0.00  0.00    +0.145 HD
ENDBRANCH  22  23
ENDBRANCH  21  22
ENDBRANCH   4  21
TORSDOF 6
