REMARK  Name = ZINC17665404
REMARK  6 active torsions:
REMARK  status: ('A' for Active; 'I' for Inactive)
REMARK    1  A    between atoms: C_1  and  C_2
REMARK    2  A    between atoms: C_3  and  C_7
REMARK    3  A    between atoms: C_10  and  S_13
REMARK    4  A    between atoms: N_11  and  N_12
REMARK    5  A    between atoms: S_13  and  C_14
REMARK    6  A    between atoms: C_14  and  C_15
REMARK                            x       y       z     vdW  Elec       q    Type
REMARK                         _______ _______ _______ _____ _____    ______ ____
ROOT
ATOM      1  C   UNL     1      -5.266   4.298   1.727  0.00  0.00    +0.185 A 
ATOM      2  N   UNL     1      -5.011   4.159   0.447  0.00  0.00    -0.127 NA
ATOM      3  N   UNL     1      -3.894   3.544   0.286  0.00  0.00    -0.121 NA
ATOM      4  C   UNL     1      -3.372   3.244   1.452  0.00  0.00    +0.209 A 
ATOM      5  N   UNL     1      -4.225   3.716   2.411  0.00  0.00    -0.224 N 
ENDROOT
BRANCH   1   8
ATOM      6  C   UNL     1      -7.632   5.633   0.161  0.00  0.00    +0.087 C 
ATOM      7  C   UNL     1      -7.484   5.540   1.658  0.00  0.00    +0.112 A 
ATOM      8  C   UNL     1      -6.450   4.956   2.321  0.00  0.00    +0.061 A 
ATOM      9  C   UNL     1      -6.750   5.120   3.749  0.00  0.00    +0.053 A 
ATOM     10  C   UNL     1      -7.922   5.774   3.809  0.00  0.00    +0.196 A 
ATOM     11  O   UNL     1      -8.352   6.016   2.562  0.00  0.00    -0.467 OA
ENDBRANCH   1   8
BRANCH   5  12
ATOM     12  N   UNL     1      -4.074   3.628   3.766  0.00  0.00    -0.295 N 
ATOM     13  H   UNL     1      -3.575   4.428   4.127  0.00  0.00    +0.163 HD
ATOM     14  H   UNL     1      -4.967   3.523   4.223  0.00  0.00    +0.163 HD
ENDBRANCH   5  12
BRANCH   4  15
ATOM     15  S   UNL     1      -1.852   2.397   1.730  0.00  0.00    -0.080 S 
BRANCH  15  16
ATOM     16  C   UNL     1      -1.333   2.113   0.020  0.00  0.00    +0.112 C 
BRANCH  16  17
ATOM     17  C   UNL     1      -0.017   1.379   0.010  0.00  0.00    -0.032 A 
ATOM     18  C   UNL     1       0.002  -0.004   0.002  0.00  0.00    +0.054 A 
ATOM     19  C   UNL     1       1.214  -0.674  -0.013  0.00  0.00    +0.164 A 
ATOM     20  C   UNL     1       2.403   0.040  -0.020  0.00  0.00    +0.180 A 
ATOM     21  C   UNL     1       2.381   1.425  -0.013  0.00  0.00    +0.086 A 
ATOM     22  C   UNL     1       1.168   2.092   0.002  0.00  0.00    +0.028 A 
ATOM     23 CL   UNL     1       3.869   2.320  -0.022  0.00  0.00    -0.080 Cl
ATOM     24  O   UNL     1       3.592  -0.631  -0.035  0.00  0.00    -0.487 OA
ATOM     25  C   UNL     1       3.892  -1.346  -1.235  0.00  0.00    +0.232 C 
ATOM     26  C   UNL     1       3.244  -2.721  -1.219  0.00  0.00    +0.082 C 
ATOM     27  C   UNL     1       1.725  -2.646  -1.221  0.00  0.00    +0.232 C 
ATOM     28  O   UNL     1       1.246  -2.039  -0.019  0.00  0.00    -0.488 OA
ENDBRANCH  16  17
ENDBRANCH  15  16
ENDBRANCH   4  15
TORSDOF 5
