REMARK  Name = ZINC14649715
REMARK  12 active torsions:
REMARK  status: ('A' for Active; 'I' for Inactive)
REMARK    1  A    between atoms: C_1  and  C_2
REMARK    2  A    between atoms: C_2  and  C_3
REMARK    3  A    between atoms: C_3  and  C_4
REMARK    4  A    between atoms: C_4  and  O_5
REMARK    5  A    between atoms: O_5  and  C_6
REMARK    6  A    between atoms: C_11  and  C_12
REMARK    7  A    between atoms: N_14  and  N_15
REMARK    8  A    between atoms: C_16  and  C_18
REMARK    9  A    between atoms: C_18  and  O_19
REMARK   10  A    between atoms: O_19  and  C_20
REMARK   11  A    between atoms: C_22  and  C_28
REMARK   12  A    between atoms: C_24  and  C_26
REMARK                            x       y       z     vdW  Elec       q    Type
REMARK                         _______ _______ _______ _____ _____    ______ ____
ROOT
ATOM      1  C   UNL     1       2.417   3.950  -0.001  0.00  0.00    +0.264 C 
ATOM      2  O   UNL     1       3.482   3.364  -0.014  0.00  0.00    -0.269 OA
ATOM      3  N   UNL     1       2.389   5.297   0.006  0.00  0.00    -0.230 N 
ATOM      4  H   UNL     1       1.539   5.765   0.017  0.00  0.00    +0.173 HD
ENDROOT
BRANCH   1  10
ATOM      5  C   UNL     1       1.180   1.785   0.000  0.00  0.00    +0.133 A 
ATOM      6  C   UNL     1      -0.013   1.076   0.008  0.00  0.00    +0.047 A 
ATOM      7  C   UNL     1      -1.218   1.749   0.017  0.00  0.00    +0.019 A 
ATOM      8  C   UNL     1      -1.247   3.135   0.030  0.00  0.00    +0.019 A 
ATOM      9  C   UNL     1      -0.071   3.855   0.022  0.00  0.00    +0.032 A 
ATOM     10  C   UNL     1       1.155   3.186   0.008  0.00  0.00    +0.081 A 
ATOM     11 BR   UNL     1      -2.906   4.041   0.050  0.00  0.00    -0.050 Br
BRANCH   5  12
ATOM     12  O   UNL     1       2.365   1.124  -0.015  0.00  0.00    -0.491 OA
BRANCH  12  13
ATOM     13  C   UNL     1       2.312  -0.304  -0.022  0.00  0.00    +0.229 C 
BRANCH  13  14
ATOM     14  C   UNL     1       3.734  -0.867  -0.038  0.00  0.00    +0.041 C 
BRANCH  14  16
ATOM     15  C   UNL     1       5.100  -2.959  -0.062  0.00  0.00    +0.004 C 
ATOM     16  C   UNL     1       3.677  -2.396  -0.046  0.00  0.00    -0.000 C 
ENDBRANCH  14  16
ENDBRANCH  13  14
ENDBRANCH  12  13
ENDBRANCH   5  12
ENDBRANCH   1  10
BRANCH   3  17
ATOM     17  N   UNL     1       3.587   6.023  -0.002  0.00  0.00    -0.231 N 
ATOM     18  C   UNL     1       3.559   7.370   0.005  0.00  0.00    +0.267 C 
ATOM     19  O   UNL     1       2.496   7.955   0.019  0.00  0.00    -0.271 OA
ATOM     20  H   UNL     1       4.437   5.556  -0.012  0.00  0.00    +0.173 HD
BRANCH  18  21
ATOM     21  C   UNL     1       4.848   8.151  -0.003  0.00  0.00    +0.326 C 
BRANCH  21  22
ATOM     22  O   UNL     1       4.558   9.550   0.007  0.00  0.00    -0.483 OA
BRANCH  22  23
ATOM     23  C   UNL     1       5.618  10.401   0.001  0.00  0.00    +0.122 A 
ATOM     24  C   UNL     1       6.911   9.898  -0.009  0.00  0.00    +0.050 A 
ATOM     25  C   UNL     1       7.987  10.764  -0.020  0.00  0.00    -0.028 A 
ATOM     26  C   UNL     1       7.777  12.132  -0.011  0.00  0.00    +0.047 A 
ATOM     27  C   UNL     1       6.487  12.635   0.004  0.00  0.00    -0.028 A 
ATOM     28  C   UNL     1       5.409  11.772   0.009  0.00  0.00    +0.050 A 
ATOM     29  C   UNL     1       6.261  14.124   0.014  0.00  0.00    +0.045 C 
ATOM     30 CL   UNL     1       9.131  13.218  -0.018  0.00  0.00    -0.083 Cl
ATOM     31  C   UNL     1       9.392  10.219  -0.036  0.00  0.00    +0.045 C 
ENDBRANCH  22  23
ENDBRANCH  21  22
ENDBRANCH  18  21
ENDBRANCH   3  17
TORSDOF 9
