REMARK  Name = ZINC01461983
REMARK  2 active torsions:
REMARK  status: ('A' for Active; 'I' for Inactive)
REMARK    1  A    between atoms: C_14  and  C_17
REMARK    2  A    between atoms: C_19  and  N_24
REMARK                            x       y       z     vdW  Elec       q    Type
REMARK                         _______ _______ _______ _____ _____    ______ ____
ROOT
ATOM      1  C   UNL     1      -3.405   0.201  -3.231  0.00  0.00    +0.000 A 
ATOM      2  C   UNL     1      -4.276  -0.053  -2.187  0.00  0.00    +0.002 A 
ATOM      3  C   UNL     1      -3.908   0.240  -0.890  0.00  0.00    +0.023 A 
ATOM      4  C   UNL     1      -2.661   0.793  -0.622  0.00  0.00    +0.031 A 
ATOM      5  C   UNL     1      -1.791   1.060  -1.685  0.00  0.00    -0.019 A 
ATOM      6  C   UNL     1      -2.165   0.758  -2.976  0.00  0.00    +0.006 A 
ATOM      7  C   UNL     1      -0.482   1.668  -1.359  0.00  0.00    +0.049 C 
ATOM      8  C   UNL     1       0.706   1.488  -2.231  0.00  0.00    -0.023 C 
ATOM      9  C   UNL     1       1.796   1.505  -1.473  0.00  0.00    -0.030 C 
ATOM     10  C   UNL     1       1.407   1.668  -0.002  0.00  0.00    +0.033 C 
ATOM     11  C   UNL     1      -0.013   1.086   0.008  0.00  0.00    +0.029 C 
ATOM     12  C   UNL     1      -0.974   1.621   1.054  0.00  0.00    +0.106 C 
ATOM     13  N   UNL     1      -2.296   1.049   0.705  0.00  0.00    -0.336 N 
ATOM     14  H   UNL     1      -2.917   0.836   1.419  0.00  0.00    +0.147 HD
ENDROOT
BRANCH  12  15
ATOM     15  C   UNL     1      -1.059   3.123   0.963  0.00  0.00    -0.007 A 
ATOM     16  C   UNL     1      -2.120   3.717   0.306  0.00  0.00    +0.039 A 
ATOM     17  C   UNL     1      -2.201   5.095   0.227  0.00  0.00    +0.127 A 
ATOM     18  C   UNL     1      -1.215   5.879   0.796  0.00  0.00    +0.034 A 
ATOM     19  C   UNL     1      -0.150   5.286   1.448  0.00  0.00    +0.022 A 
ATOM     20  C   UNL     1      -0.072   3.908   1.532  0.00  0.00    +0.046 A 
ATOM     21 CL   UNL     1       1.265   3.162   2.352  0.00  0.00    -0.083 Cl
BRANCH  17  22
ATOM     22  N   UNL     1      -3.340   5.730  -0.472  0.00  0.00    +0.056 N 
ATOM     23  O   UNL     1      -3.409   6.944  -0.546  0.00  0.00    -0.126 OA
ATOM     24  O   UNL     1      -4.209   5.039  -0.974  0.00  0.00    -0.126 OA
ENDBRANCH  17  22
ENDBRANCH  12  15
TORSDOF 2
