REMARK  Name = ZINC39272029
REMARK  6 active torsions:
REMARK  status: ('A' for Active; 'I' for Inactive)
REMARK    1  A    between atoms: C_1  and  C_2
REMARK    2  A    between atoms: C_2  and  C_3
REMARK    3  A    between atoms: C_2  and  C_4
REMARK    4  A    between atoms: N_9  and  C_10
REMARK    5  A    between atoms: C_10  and  C_12
REMARK    6  A    between atoms: C_15  and  C_18
REMARK                            x       y       z     vdW  Elec       q    Type
REMARK                         _______ _______ _______ _____ _____    ______ ____
ROOT
ATOM      1  C   UNL     1      -4.293  -1.954  -5.260  0.00  0.00    +0.207 C 
ATOM      2  C   UNL     1      -3.267  -2.330  -6.311  0.00  0.00    +0.053 C 
ATOM      3  C   UNL     1      -3.243  -1.359  -7.220  0.00  0.00    +0.153 C 
ATOM      4  O   UNL     1      -4.115  -0.363  -6.921  0.00  0.00    -0.405 OA
ATOM      5  N   UNL     1      -5.080  -0.887  -5.931  0.00  0.00    -0.139 NA
ATOM      6  H   UNL     1      -5.895  -1.270  -6.386  0.00  0.00    +0.168 HD
ENDROOT
BRANCH   3   7
ATOM      7  C   UNL     1      -2.370  -1.364  -8.416  0.00  0.00    +0.019 A 
ATOM      8  C   UNL     1      -1.505  -2.433  -8.650  0.00  0.00    +0.012 A 
ATOM      9  C   UNL     1      -0.696  -2.423  -9.764  0.00  0.00    +0.004 A 
ATOM     10  C   UNL     1      -0.733  -1.360 -10.659  0.00  0.00    -0.044 A 
ATOM     11  C   UNL     1      -1.589  -0.303 -10.436  0.00  0.00    -0.044 A 
ATOM     12  C   UNL     1      -2.409  -0.305  -9.317  0.00  0.00    +0.015 A 
ATOM     13  C   UNL     1      -1.689   0.871 -11.374  0.00  0.00    +0.035 C 
ATOM     14  C   UNL     1      -0.467   0.935 -12.287  0.00  0.00    +0.005 C 
ATOM     15  C   UNL     1      -0.271  -0.442 -12.932  0.00  0.00    +0.005 C 
ATOM     16  C   UNL     1       0.187  -1.419 -11.851  0.00  0.00    +0.035 C 
ENDBRANCH   3   7
BRANCH   1  17
ATOM     17  C   UNL     1      -3.619  -1.423  -4.021  0.00  0.00    +0.263 C 
ATOM     18  O   UNL     1      -3.515  -0.224  -3.854  0.00  0.00    -0.271 OA
BRANCH  17  23
ATOM     19  C   UNL     1      -1.433  -0.534   0.013  0.00  0.00    +0.195 C 
ATOM     20  N   UNL     1      -1.465  -2.015  -0.013  0.00  0.00    -0.170 NA
ATOM     21  N   UNL     1      -1.994  -2.512  -0.985  0.00  0.00    -0.129 NA
ATOM     22  C   UNL     1      -2.544  -1.802  -2.021  0.00  0.00    +0.204 C 
ATOM     23  N   UNL     1      -3.137  -2.269  -3.109  0.00  0.00    -0.152 NA
ATOM     24  S   UNL     1      -2.290  -0.191  -1.581  0.00  0.00    -0.058 S 
BRANCH  19  26
ATOM     25  C   UNL     1      -0.019   1.526   0.010  0.00  0.00    +0.010 C 
ATOM     26  C   UNL     1       0.002  -0.004   0.002  0.00  0.00    +0.020 C 
ATOM     27  C   UNL     1       0.742  -0.511   1.242  0.00  0.00    +0.010 C 
ENDBRANCH  19  26
ENDBRANCH  17  23
ENDBRANCH   1  17
TORSDOF 4
