REMARK  Name = ZINC44388575
REMARK  4 active torsions:
REMARK  status: ('A' for Active; 'I' for Inactive)
REMARK    1  A    between atoms: C_1  and  C_2
REMARK    2  A    between atoms: N_8  and  C_13
REMARK    3  A    between atoms: C_15  and  C_17
REMARK    4  A    between atoms: C_17  and  C_22
REMARK                            x       y       z     vdW  Elec       q    Type
REMARK                         _______ _______ _______ _____ _____    ______ ____
ROOT
ATOM      1  C   UNL     1      -0.057   1.694  -0.051  0.00  0.00    +0.017 C 
ATOM      2  C   UNL     1      -0.000   0.165  -0.084  0.00  0.00    +0.077 C 
ATOM      3  C   UNL     1      -1.428  -0.390  -0.086  0.00  0.00    +0.054 C 
ATOM      4  C   UNL     1      -1.980  -0.286   1.313  0.00  0.00    +0.035 A 
ATOM      5  C   UNL     1      -3.296  -0.138   1.740  0.00  0.00    +0.152 A 
ATOM      6  N   UNL     1      -3.297  -0.103   3.056  0.00  0.00    -0.154 NA
ATOM      7  N   UNL     1      -1.972  -0.228   3.505  0.00  0.00    -0.251 N 
ATOM      8  C   UNL     1      -1.179  -0.332   2.422  0.00  0.00    +0.128 A 
ATOM      9  N   UNL     1       0.207  -0.455   2.325  0.00  0.00    -0.270 N 
ATOM     10  C   UNL     1       0.772  -0.325   1.108  0.00  0.00    +0.221 C 
ATOM     11  O   UNL     1       1.943  -0.613   0.971  0.00  0.00    -0.275 OA
ATOM     12  C   UNL     1      -1.532  -0.242   4.902  0.00  0.00    +0.174 C 
ATOM     13  N   UNL     1      -4.423  -0.041   0.913  0.00  0.00    -0.268 N 
ATOM     14  C   UNL     1      -5.648   0.101   1.458  0.00  0.00    +0.229 C 
ATOM     15  O   UNL     1      -5.786   0.051   2.662  0.00  0.00    -0.274 OA
ATOM     16  H   UNL     1       0.749  -0.628   3.111  0.00  0.00    +0.156 HD
ATOM     17  H   UNL     1      -4.322  -0.076  -0.051  0.00  0.00    +0.156 HD
ENDROOT
BRANCH  14  18
ATOM     18  C   UNL     1      -6.846   0.322   0.571  0.00  0.00    +0.072 C 
ATOM     19  C   UNL     1      -6.627   1.563  -0.311  0.00  0.00    +0.021 C 
ATOM     20  C   UNL     1      -7.750   2.560   0.043  0.00  0.00    +0.001 C 
ATOM     21  C   UNL     1      -8.181   2.153   1.474  0.00  0.00    +0.001 C 
ATOM     22  C   UNL     1      -8.095   0.607   1.430  0.00  0.00    +0.021 C 
BRANCH  18  23
ATOM     23  C   UNL     1      -7.080  -0.891  -0.292  0.00  0.00    -0.032 A 
ATOM     24  C   UNL     1      -6.325  -2.033  -0.098  0.00  0.00    +0.006 A 
ATOM     25  C   UNL     1      -6.539  -3.146  -0.889  0.00  0.00    +0.020 A 
ATOM     26  C   UNL     1      -7.508  -3.117  -1.876  0.00  0.00    +0.041 A 
ATOM     27  C   UNL     1      -8.263  -1.974  -2.070  0.00  0.00    +0.020 A 
ATOM     28  C   UNL     1      -8.052  -0.864  -1.275  0.00  0.00    +0.006 A 
ATOM     29 CL   UNL     1      -7.776  -4.514  -2.871  0.00  0.00    -0.084 Cl
ENDBRANCH  18  23
ENDBRANCH  14  18
TORSDOF 2
