REMARK  Name = ZINC60042784
REMARK  8 active torsions:
REMARK  status: ('A' for Active; 'I' for Inactive)
REMARK    1  A    between atoms: C_1  and  C_2
REMARK    2  A    between atoms: C_5  and  C_34
REMARK    3  A    between atoms: C_6  and  C_8
REMARK    4  A    between atoms: N_17  and  C_19
REMARK    5  A    between atoms: C_19  and  C_20
REMARK    6  A    between atoms: C_20  and  C_22
REMARK    7  A    between atoms: C_20  and  O_33
REMARK    8  A    between atoms: C_22  and  N_23
REMARK                            x       y       z     vdW  Elec       q    Type
REMARK                         _______ _______ _______ _____ _____    ______ ____
ROOT
ATOM      1  C   UNL     1      -0.068  -2.641   2.569  0.00  0.00    +0.100 A 
ATOM      2  C   UNL     1      -0.153  -1.819   3.785  0.00  0.00    +0.015 A 
ATOM      3  C   UNL     1      -0.193  -0.426   3.728  0.00  0.00    +0.011 A 
ATOM      4  C   UNL     1      -0.273   0.300   4.896  0.00  0.00    +0.001 A 
ATOM      5  C   UNL     1      -0.314  -0.340   6.128  0.00  0.00    +0.001 A 
ATOM      6  C   UNL     1      -0.277  -1.714   6.208  0.00  0.00    +0.014 A 
ATOM      7  C   UNL     1      -0.196  -2.469   5.038  0.00  0.00    +0.050 A 
ATOM      8  C   UNL     1      -0.153  -3.937   5.062  0.00  0.00    +0.275 A 
ATOM      9  O   UNL     1      -0.188  -4.539   6.120  0.00  0.00    -0.266 OA
ATOM     10  N   UNL     1      -0.075  -4.607   3.894  0.00  0.00    -0.226 N 
ATOM     11  N   UNL     1      -0.039  -3.946   2.667  0.00  0.00    -0.167 NA
ENDROOT
BRANCH   1  17
ATOM     12  C   UNL     1      -2.167  -1.738  -1.869  0.00  0.00    +0.044 C 
ATOM     13  C   UNL     1      -1.028  -1.558  -0.899  0.00  0.00    -0.050 A 
ATOM     14  C   UNL     1       0.064  -0.786  -1.253  0.00  0.00    +0.003 A 
ATOM     15  C   UNL     1       1.113  -0.616  -0.368  0.00  0.00    +0.004 A 
ATOM     16  C   UNL     1       1.076  -1.215   0.875  0.00  0.00    -0.041 A 
ATOM     17  C   UNL     1      -0.022  -1.994   1.237  0.00  0.00    +0.006 A 
ATOM     18  C   UNL     1      -1.079  -2.158   0.342  0.00  0.00    +0.013 A 
ATOM     19  C   UNL     1       2.220  -1.029   1.838  0.00  0.00    +0.044 C 
ENDBRANCH   1  17
BRANCH  10  20
ATOM     20  C   UNL     1      -0.032  -6.071   3.916  0.00  0.00    +0.176 C 
BRANCH  20  21
ATOM     21  C   UNL     1      -1.457  -6.625   3.852  0.00  0.00    +0.120 C 
BRANCH  21  22
ATOM     22  O   UNL     1      -2.202  -6.154   4.977  0.00  0.00    -0.392 OA
ATOM     23  H   UNL     1      -1.832  -6.416   5.831  0.00  0.00    +0.210 HD
ENDBRANCH  21  22
BRANCH  21  24
ATOM     24  C   UNL     1      -1.412  -8.154   3.874  0.00  0.00    -0.045 C 
BRANCH  24  25
ATOM     25  N   UNL     1      -2.769  -8.686   3.693  0.00  0.00    +0.384 N 
ATOM     26  C   UNL     1      -2.744 -10.151   3.822  0.00  0.00    -0.074 C 
ATOM     27  C   UNL     1      -4.183 -10.655   3.938  0.00  0.00    +0.017 C 
ATOM     28  C   UNL     1      -5.016 -10.080   2.821  0.00  0.00    -0.048 A 
ATOM     29  C   UNL     1      -6.240 -10.666   2.535  0.00  0.00    +0.004 A 
ATOM     30  C   UNL     1      -7.032 -10.165   1.522  0.00  0.00    +0.000 A 
ATOM     31  C   UNL     1      -6.603  -9.074   0.789  0.00  0.00    +0.000 A 
ATOM     32  C   UNL     1      -5.384  -8.491   1.072  0.00  0.00    +0.002 A 
ATOM     33  C   UNL     1      -4.586  -8.995   2.089  0.00  0.00    -0.061 A 
ATOM     34  C   UNL     1      -3.260  -8.333   2.358  0.00  0.00    -0.043 C 
ATOM     35  H   UNL     1      -3.382  -8.295   4.392  0.00  0.00    -0.081 HD
ENDBRANCH  24  25
ENDBRANCH  21  24
ENDBRANCH  20  21
ENDBRANCH  10  20
TORSDOF 6
