REMARK  Name = ZINC04127890
REMARK  4 active torsions:
REMARK  status: ('A' for Active; 'I' for Inactive)
REMARK    1  A    between atoms: C_3  and  N_27
REMARK    2  A    between atoms: C_6  and  C_7
REMARK    3  A    between atoms: C_13  and  C_17
REMARK    4  A    between atoms: C_22  and  N_26
REMARK                            x       y       z     vdW  Elec       q    Type
REMARK                         _______ _______ _______ _____ _____    ______ ____
ROOT
ATOM      1  C   UNL     1      -1.266  -0.762   0.011  0.00  0.00    +0.139 A 
ATOM      2  N   UNL     1      -1.368  -2.127   0.010  0.00  0.00    -0.338 N 
ATOM      3  H   UNL     1      -0.632  -2.759   0.003  0.00  0.00    +0.167 HD
ATOM      4  C   UNL     1      -2.714  -2.438   0.020  0.00  0.00    +0.067 A 
ATOM      5  C   UNL     1      -3.423  -3.632   0.024  0.00  0.00    +0.028 A 
ATOM      6  C   UNL     1      -4.788  -3.620   0.035  0.00  0.00    +0.013 A 
ATOM      7  C   UNL     1      -5.487  -2.406   0.041  0.00  0.00    +0.009 A 
ATOM      8  C   UNL     1      -4.796  -1.201   0.037  0.00  0.00    +0.040 A 
ATOM      9  C   UNL     1      -3.399  -1.209   0.027  0.00  0.00    +0.090 A 
ATOM     10  N   UNL     1      -2.464  -0.227   0.026  0.00  0.00    -0.228 NA
ENDROOT
BRANCH   7  11
ATOM     11  C   UNL     1      -6.966  -2.408   0.052  0.00  0.00    +0.110 A 
ATOM     12  N   UNL     1      -7.791  -1.385   0.054  0.00  0.00    -0.239 NA
ATOM     13  C   UNL     1      -9.131  -1.534   0.064  0.00  0.00    +0.079 A 
ATOM     14  C   UNL     1     -10.123  -0.523   0.067  0.00  0.00    +0.031 A 
ATOM     15  C   UNL     1     -11.444  -0.840   0.078  0.00  0.00    +0.025 A 
ATOM     16  C   UNL     1     -11.877  -2.166   0.086  0.00  0.00    +0.026 A 
ATOM     17  C   UNL     1     -10.935  -3.186   0.084  0.00  0.00    +0.040 A 
ATOM     18  C   UNL     1      -9.599  -2.869   0.072  0.00  0.00    +0.041 A 
ATOM     19  S   UNL     1      -8.086  -3.800   0.059  0.00  0.00    -0.067 S 
BRANCH  16  20
ATOM     20  N   UNL     1     -13.243  -2.464   0.098  0.00  0.00    -0.358 N 
ATOM     21  H   UNL     1     -13.896  -1.746   0.100  0.00  0.00    +0.142 HD
ATOM     22  H   UNL     1     -13.537  -3.388   0.104  0.00  0.00    +0.142 HD
ENDBRANCH  16  20
ENDBRANCH   7  11
BRANCH   1  28
ATOM     23  C   UNL     1      -0.017   1.392   0.010  0.00  0.00    +0.013 A 
ATOM     24  C   UNL     1       1.167   2.096   0.002  0.00  0.00    +0.023 A 
ATOM     25  C   UNL     1       2.381   1.417  -0.013  0.00  0.00    +0.025 A 
ATOM     26  C   UNL     1       2.403   0.026  -0.022  0.00  0.00    +0.023 A 
ATOM     27  C   UNL     1       1.222  -0.683  -0.014  0.00  0.00    +0.013 A 
ATOM     28  C   UNL     1       0.002  -0.004   0.002  0.00  0.00    +0.017 A 
BRANCH  25  29
ATOM     29  N   UNL     1       3.578   2.131  -0.022  0.00  0.00    -0.358 N 
ATOM     30  H   UNL     1       3.563   3.101  -0.016  0.00  0.00    +0.142 HD
ATOM     31  H   UNL     1       4.425   1.659  -0.033  0.00  0.00    +0.142 HD
ENDBRANCH  25  29
ENDBRANCH   1  28
TORSDOF 4
