REMARK  Name = ZINC08790558
REMARK  12 active torsions:
REMARK  status: ('A' for Active; 'I' for Inactive)
REMARK    1  A    between atoms: C_1  and  C_2
REMARK    2  A    between atoms: C_2  and  C_3
REMARK    3  A    between atoms: C_2  and  C_4
REMARK    4  A    between atoms: C_4  and  N_5
REMARK    5  A    between atoms: C_6  and  O_33
REMARK    6  A    between atoms: C_7  and  C_17
REMARK    7  A    between atoms: N_10  and  C_13
REMARK    8  A    between atoms: C_13  and  C_14
REMARK    9  A    between atoms: C_14  and  C_15
REMARK   10  A    between atoms: C_14  and  C_16
REMARK   11  A    between atoms: C_23  and  O_29
REMARK   12  A    between atoms: O_29  and  C_30
REMARK                            x       y       z     vdW  Elec       q    Type
REMARK                         _______ _______ _______ _____ _____    ______ ____
ROOT
ATOM      1  N   UNL     1       0.002  -0.004   0.002  0.00  0.00    -0.264 N 
ATOM      2  C   UNL     1       1.194  -0.683  -0.013  0.00  0.00    +0.204 A 
ATOM      3  C   UNL     1       2.364   0.016  -0.020  0.00  0.00    +0.068 A 
ATOM      4  C   UNL     1       2.321   1.422  -0.012  0.00  0.00    +0.262 A 
ATOM      5  O   UNL     1       3.354   2.068  -0.019  0.00  0.00    -0.267 OA
ATOM      6  N   UNL     1       1.128   2.050   0.002  0.00  0.00    -0.260 N 
ATOM      7  C   UNL     1      -0.016   1.341   0.009  0.00  0.00    +0.335 A 
ATOM      8  O   UNL     1      -1.082   1.926   0.018  0.00  0.00    -0.246 OA
ENDROOT
BRANCH   3   9
ATOM      9  C   UNL     1       3.687  -0.707  -0.036  0.00  0.00    +0.018 C 
ATOM     10  C   UNL     1       4.413  -0.408  -1.327  0.00  0.00    +0.011 A 
ATOM     11  C   UNL     1       5.733  -0.119  -1.380  0.00  0.00    -0.022 A 
ATOM     12  C   UNL     1       6.066   0.107  -2.768  0.00  0.00    +0.006 A 
ATOM     13  C   UNL     1       7.261   0.436  -3.417  0.00  0.00    +0.056 A 
ATOM     14  C   UNL     1       7.206   0.577  -4.795  0.00  0.00    +0.121 A 
ATOM     15  C   UNL     1       6.023   0.399  -5.503  0.00  0.00    +0.047 A 
ATOM     16  C   UNL     1       4.832   0.074  -4.878  0.00  0.00    +0.030 A 
ATOM     17  C   UNL     1       4.860  -0.073  -3.494  0.00  0.00    +0.047 A 
ATOM     18  N   UNL     1       3.883  -0.383  -2.588  0.00  0.00    -0.359 N 
ATOM     19  H   UNL     1       2.954  -0.559  -2.807  0.00  0.00    +0.166 HD
ATOM     20  C   UNL     1       6.622  -0.068  -0.163  0.00  0.00    +0.018 C 
ATOM     21  C   UNL     1       5.888  -0.764   0.991  0.00  0.00    -0.076 C 
ATOM     22  N   UNL     1       4.512  -0.237   1.098  0.00  0.00    +0.388 N 
ATOM     23  H   UNL     1       4.093  -0.562   1.978  0.00  0.00    -0.084 HD
ATOM     24  H   UNL     1       4.542   0.789   1.092  0.00  0.00    -0.084 HD
BRANCH  14  25
ATOM     25  O   UNL     1       8.340   0.897  -5.473  0.00  0.00    -0.495 OA
ATOM     26  C   UNL     1       8.232   1.030  -6.892  0.00  0.00    +0.277 C 
ENDBRANCH  14  25
ENDBRANCH   3   9
BRANCH   2  27
ATOM     27  O   UNL     1       1.208  -2.033  -0.021  0.00  0.00    -0.493 OA
ATOM     28  H   UNL     1       0.329  -2.435  -0.015  0.00  0.00    +0.294 HD
ENDBRANCH   2  27
BRANCH   1  29
ATOM     29  C   UNL     1      -1.259  -0.749   0.009  0.00  0.00    +0.132 C 
BRANCH  29  31
ATOM     30  C   UNL     1      -2.961  -1.884  -1.425  0.00  0.00    +0.009 C 
ATOM     31  C   UNL     1      -1.712  -1.000  -1.430  0.00  0.00    +0.003 C 
ATOM     32  C   UNL     1      -2.034   0.335  -2.104  0.00  0.00    +0.009 C 
ENDBRANCH  29  31
ENDBRANCH   1  29
BRANCH   6  33
ATOM     33  C   UNL     1       1.077   3.514   0.011  0.00  0.00    +0.133 C 
BRANCH  33  34
ATOM     34  C   UNL     1       1.073   4.016   1.456  0.00  0.00    +0.003 C 
ATOM     35  C   UNL     1       1.145   5.544   1.465  0.00  0.00    +0.009 C 
ATOM     36  C   UNL     1      -0.213   3.562   2.150  0.00  0.00    +0.009 C 
ENDBRANCH  33  34
ENDBRANCH   6  33
TORSDOF 7
