REMARK  Name = ZINC13312222
REMARK  5 active torsions:
REMARK  status: ('A' for Active; 'I' for Inactive)
REMARK    1  A    between atoms: C_3  and  S_9
REMARK    2  A    between atoms: C_6  and  C_7
REMARK    3  A    between atoms: S_9  and  N_12
REMARK    4  A    between atoms: C_15  and  C_18
REMARK    5  A    between atoms: N_20  and  C_21
REMARK                            x       y       z     vdW  Elec       q    Type
REMARK                         _______ _______ _______ _____ _____    ______ ____
ROOT
ATOM      1  N   UNL     1       1.147   4.348   1.601  0.00  0.00    -0.177 NA
ATOM      2  C   UNL     1      -0.114   4.551   2.329  0.00  0.00    +0.110 C 
ATOM      3  C   UNL     1      -0.076   3.711   3.614  0.00  0.00    +0.030 C 
ATOM      4  C   UNL     1       1.177   4.071   4.415  0.00  0.00    +0.078 C 
ATOM      5  C   UNL     1       2.424   3.744   3.590  0.00  0.00    +0.030 C 
ATOM      6  C   UNL     1       2.415   4.579   2.306  0.00  0.00    +0.110 C 
ENDROOT
BRANCH   4   7
ATOM      7  C   UNL     1       1.200   3.276   5.696  0.00  0.00    +0.220 C 
ATOM      8  O   UNL     1       2.122   2.522   5.925  0.00  0.00    -0.275 OA
ATOM      9  N   UNL     1       0.196   3.403   6.585  0.00  0.00    -0.285 N 
ATOM     10  H   UNL     1      -0.507   4.054   6.434  0.00  0.00    +0.155 HD
BRANCH   9  11
ATOM     11  C   UNL     1       0.167   2.594   7.729  0.00  0.00    +0.037 A 
ATOM     12  C   UNL     1       1.353   2.233   8.354  0.00  0.00    +0.027 A 
ATOM     13  C   UNL     1       1.326   1.435   9.482  0.00  0.00    +0.051 A 
ATOM     14  C   UNL     1       0.116   0.993   9.992  0.00  0.00    +0.166 A 
ATOM     15  C   UNL     1      -1.075   1.353   9.367  0.00  0.00    +0.168 A 
ATOM     16  C   UNL     1      -1.048   2.158   8.240  0.00  0.00    +0.072 A 
ATOM     17  O   UNL     1      -2.115   0.797  10.055  0.00  0.00    -0.453 OA
ATOM     18  C   UNL     1      -1.575   0.433  11.339  0.00  0.00    +0.466 C 
ATOM     19  O   UNL     1      -0.178   0.211  11.073  0.00  0.00    -0.453 OA
ENDBRANCH   9  11
ENDBRANCH   4   7
BRANCH   1  20
ATOM     20  S   UNL     1       1.137   3.875   0.014  0.00  0.00    +0.061 S 
ATOM     21  O   UNL     1       2.372   4.303  -0.545  0.00  0.00    -0.153 OA
ATOM     22  O   UNL     1      -0.119   4.270  -0.521  0.00  0.00    -0.153 OA
BRANCH  20  25
ATOM     23  C   UNL     1      -0.019   0.029  -0.015  0.00  0.00    +0.017 A 
ATOM     24  C   UNL     1      -0.030   1.409  -0.000  0.00  0.00    +0.029 A 
ATOM     25  C   UNL     1       1.161   2.113  -0.005  0.00  0.00    +0.106 A 
ATOM     26  C   UNL     1       2.370   1.440  -0.024  0.00  0.00    +0.029 A 
ATOM     27  C   UNL     1       2.395   0.061  -0.038  0.00  0.00    +0.017 A 
ATOM     28  C   UNL     1       1.197  -0.656  -0.034  0.00  0.00    +0.063 A 
BRANCH  28  29
ATOM     29  C   UNL     1       1.216  -2.133  -0.049  0.00  0.00    +0.387 C 
ATOM     30  O   UNL     1       0.173  -2.754  -0.044  0.00  0.00    -0.241 OA
ATOM     31  O   UNL     1       2.392  -2.791  -0.067  0.00  0.00    -0.241 OA
ENDBRANCH  28  29
ENDBRANCH  20  25
ENDBRANCH   1  20
TORSDOF 5
