REMARK  Name = ZINC43940990
REMARK  6 active torsions:
REMARK  status: ('A' for Active; 'I' for Inactive)
REMARK    1  A    between atoms: C_1  and  N_2
REMARK    2  A    between atoms: C_8  and  S_9
REMARK    3  A    between atoms: S_9  and  C_10
REMARK    4  A    between atoms: C_10  and  C_11
REMARK    5  A    between atoms: C_14  and  C_26
REMARK    6  A    between atoms: C_17  and  C_19
REMARK                            x       y       z     vdW  Elec       q    Type
REMARK                         _______ _______ _______ _____ _____    ______ ____
ROOT
ATOM      1  C   UNL     1       0.072  -1.470   5.223  0.00  0.00    +0.246 C 
ATOM      2  O   UNL     1       0.060  -0.311   5.584  0.00  0.00    -0.273 OA
ATOM      3  N   UNL     1       0.094  -2.460   6.138  0.00  0.00    -0.181 N 
ATOM      4  C   UNL     1       0.100  -2.277   7.598  0.00  0.00    +0.173 C 
ATOM      5  C   UNL     1       0.126  -3.719   8.143  0.00  0.00    +0.090 C 
ATOM      6  C   UNL     1       0.133  -4.578   6.898  0.00  0.00    +0.069 C 
ATOM      7  N   UNL     1       0.109  -3.824   5.854  0.00  0.00    -0.181 NA
ENDROOT
BRANCH   6   8
ATOM      8  C   UNL     1       0.156  -6.053   6.883  0.00  0.00    -0.002 A 
ATOM      9  C   UNL     1       0.169  -6.767   8.083  0.00  0.00    +0.011 A 
ATOM     10  C   UNL     1       0.191  -8.145   8.062  0.00  0.00    +0.020 A 
ATOM     11  C   UNL     1       0.200  -8.822   6.853  0.00  0.00    +0.041 A 
ATOM     12  C   UNL     1       0.188  -8.120   5.660  0.00  0.00    +0.020 A 
ATOM     13  C   UNL     1       0.160  -6.741   5.667  0.00  0.00    +0.011 A 
ATOM     14 CL   UNL     1       0.228 -10.558   6.835  0.00  0.00    -0.084 Cl
ENDBRANCH   6   8
BRANCH   4  15
ATOM     15  C   UNL     1      -1.147  -1.559   8.047  0.00  0.00    +0.128 A 
ATOM     16  C   UNL     1      -1.211  -0.623   9.011  0.00  0.00    +0.046 A 
ATOM     17  C   UNL     1      -2.564  -0.223   9.103  0.00  0.00    +0.041 A 
ATOM     18  C   UNL     1      -3.245  -0.938   8.190  0.00  0.00    +0.195 A 
ATOM     19  O   UNL     1      -2.381  -1.742   7.550  0.00  0.00    -0.466 OA
ENDBRANCH   4  15
BRANCH   1  20
ATOM     20  C   UNL     1       0.062  -1.801   3.753  0.00  0.00    +0.175 C 
BRANCH  20  21
ATOM     21  S   UNL     1       0.033  -0.266   2.788  0.00  0.00    -0.077 S 
BRANCH  21  29
ATOM     22  C   UNL     1      -0.018   1.461   0.010  0.00  0.00    +0.156 C 
ATOM     23  N   UNL     1       0.002  -0.004   0.002  0.00  0.00    -0.274 N 
ATOM     24  C   UNL     1       0.008  -0.787  -1.095  0.00  0.00    +0.345 A 
ATOM     25  O   UNL     1      -0.001  -0.405  -2.252  0.00  0.00    -0.245 OA
ATOM     26  N   UNL     1       0.027  -2.070  -0.680  0.00  0.00    -0.226 N 
ATOM     27  H   UNL     1       0.036  -2.857  -1.246  0.00  0.00    +0.194 HD
ATOM     28  N   UNL     1       0.033  -2.057   0.722  0.00  0.00    -0.145 NA
ATOM     29  C   UNL     1       0.024  -0.816   1.114  0.00  0.00    +0.192 A 
ENDBRANCH  21  29
ENDBRANCH  20  21
ENDBRANCH   1  20
TORSDOF 5
