REMARK  Name = ZINC22224575
REMARK  5 active torsions:
REMARK  status: ('A' for Active; 'I' for Inactive)
REMARK    1  A    between atoms: C_1  and  C_2
REMARK    2  A    between atoms: C_15  and  C_17
REMARK    3  A    between atoms: C_17  and  N_18
REMARK    4  A    between atoms: C_21  and  C_25
REMARK    5  A    between atoms: C_21  and  C_26
REMARK                            x       y       z     vdW  Elec       q    Type
REMARK                         _______ _______ _______ _____ _____    ______ ____
ROOT
ATOM      1  C   UNL     1       0.679   5.313  -2.252  0.00  0.00    +0.214 C 
ENDROOT
BRANCH   1  15
ATOM      2  C   UNL     1       0.696   5.838   2.349  0.00  0.00    +0.029 C 
ATOM      3  C   UNL     1      -0.469   5.886   1.359  0.00  0.00    +0.087 C 
ATOM      4  C   UNL     1      -1.673   5.154   1.954  0.00  0.00    +0.118 C 
ATOM      5  C   UNL     1      -2.675   4.842   0.875  0.00  0.00    +0.219 C 
ATOM      6  O   UNL     1      -3.691   5.499   0.787  0.00  0.00    -0.275 OA
ATOM      7  N   UNL     1      -2.450   3.834   0.005  0.00  0.00    -0.284 N 
ATOM      8  C   UNL     1      -1.239   3.133   0.032  0.00  0.00    +0.055 A 
ATOM      9  C   UNL     1      -1.221   1.748   0.017  0.00  0.00    +0.025 A 
ATOM     10  C   UNL     1      -0.013   1.076   0.008  0.00  0.00    +0.002 A 
ATOM     11  C   UNL     1       1.177   1.781   0.000  0.00  0.00    +0.002 A 
ATOM     12  C   UNL     1       1.168   3.164   0.017  0.00  0.00    +0.025 A 
ATOM     13  C   UNL     1      -0.038   3.844   0.042  0.00  0.00    +0.058 A 
ATOM     14  N   UNL     1      -0.068   5.244   0.105  0.00  0.00    -0.265 N 
ATOM     15  C   UNL     1       0.268   5.987  -0.968  0.00  0.00    +0.238 C 
ATOM     16  O   UNL     1       0.238   7.198  -0.902  0.00  0.00    -0.273 OA
ATOM     17  H   UNL     1      -3.220   3.560  -0.731  0.00  0.00    +0.155 HD
ENDBRANCH   1  15
BRANCH   1  18
ATOM     18  N   UNL     1       0.992   6.330  -3.259  0.00  0.00    -0.215 N 
ATOM     19  C   UNL     1       0.092   6.844  -4.120  0.00  0.00    +0.251 C 
ATOM     20  O   UNL     1      -1.085   6.563  -4.204  0.00  0.00    -0.272 OA
ATOM     21  C   UNL     1       0.856   7.848  -4.960  0.00  0.00    +0.138 C 
ATOM     22  N   UNL     1       2.228   7.770  -4.430  0.00  0.00    -0.281 N 
ATOM     23  C   UNL     1       2.207   6.858  -3.442  0.00  0.00    +0.310 C 
ATOM     24  O   UNL     1       3.184   6.549  -2.787  0.00  0.00    -0.252 OA
ATOM     25  C   UNL     1       0.826   7.447  -6.437  0.00  0.00    +0.047 C 
ATOM     26  H   UNL     1       3.020   8.400  -4.861  0.00  0.00    +0.152 HD
BRANCH  21  27
ATOM     27  C   UNL     1       0.294   9.234  -4.778  0.00  0.00    +0.022 A 
ATOM     28  C   UNL     1       1.069  10.223  -4.202  0.00  0.00    +0.047 A 
ATOM     29  C   UNL     1       0.555  11.498  -4.037  0.00  0.00    +0.124 A 
ATOM     30  C   UNL     1      -0.739  11.780  -4.442  0.00  0.00    +0.041 A 
ATOM     31  C   UNL     1      -1.515  10.790  -5.014  0.00  0.00    +0.041 A 
ATOM     32  C   UNL     1      -0.999   9.516  -5.182  0.00  0.00    +0.129 A 
ATOM     33  F   UNL     1      -1.758   8.549  -5.742  0.00  0.00    -0.205 F 
ATOM     34  F   UNL     1       1.313  12.465  -3.476  0.00  0.00    -0.205 F 
ENDBRANCH  21  27
ENDBRANCH   1  18
TORSDOF 3
