REMARK  Name = ZINC01825358
REMARK  10 active torsions:
REMARK  status: ('A' for Active; 'I' for Inactive)
REMARK    1  A    between atoms: C_1  and  C_2
REMARK    2  A    between atoms: C_2  and  O_3
REMARK    3  A    between atoms: O_3  and  C_4
REMARK    4  A    between atoms: C_6  and  C_11
REMARK    5  A    between atoms: C_9  and  O_10
REMARK    6  A    between atoms: N_15  and  C_19
REMARK    7  A    between atoms: C_19  and  C_21
REMARK    8  A    between atoms: C_19  and  C_24
REMARK    9  A    between atoms: C_21  and  C_22
REMARK   10  A    between atoms: C_21  and  C_23
REMARK                            x       y       z     vdW  Elec       q    Type
REMARK                         _______ _______ _______ _____ _____    ______ ____
ROOT
ATOM      1  C   UNL     1       3.253   0.695  -0.360  0.00  0.00    +0.028 C 
ATOM      2  C   UNL     1       4.288   1.552  -0.553  0.00  0.00    +0.077 C 
ATOM      3  C   UNL     1       4.339   3.018  -0.388  0.00  0.00    +0.259 C 
ATOM      4  O   UNL     1       3.365   3.655  -0.029  0.00  0.00    -0.269 OA
ATOM      5  N   UNL     1       5.496   3.604  -0.644  0.00  0.00    -0.241 N 
ATOM      6  C   UNL     1       6.570   2.895  -1.048  0.00  0.00    +0.121 C 
ATOM      7  S   UNL     1       8.138   3.466  -1.431  0.00  0.00    -0.027 S 
ATOM      8  S   UNL     1       5.962   1.217  -1.083  0.00  0.00    -0.061 S 
ENDROOT
BRANCH   1  11
ATOM      9  C   UNL     1      -0.398   1.218   0.314  0.00  0.00    +0.162 A 
ATOM     10  C   UNL     1       0.770   0.759  -0.260  0.00  0.00    +0.057 A 
ATOM     11  C   UNL     1       2.007   1.174   0.250  0.00  0.00    -0.020 A 
ATOM     12  C   UNL     1       2.050   2.047   1.344  0.00  0.00    +0.012 A 
ATOM     13  C   UNL     1       0.879   2.495   1.914  0.00  0.00    +0.050 A 
ATOM     14  C   UNL     1      -0.346   2.083   1.407  0.00  0.00    +0.158 A 
BRANCH  14  15
ATOM     15  O   UNL     1      -1.498   2.529   1.973  0.00  0.00    -0.503 OA
ATOM     16  H   UNL     1      -1.835   3.348   1.586  0.00  0.00    +0.292 HD
ENDBRANCH  14  15
BRANCH   9  17
ATOM     17  O   UNL     1      -1.601   0.822  -0.182  0.00  0.00    -0.489 OA
BRANCH  17  19
ATOM     18  C   UNL     1      -3.015  -0.400  -1.714  0.00  0.00    +0.048 C 
ATOM     19  C   UNL     1      -1.580  -0.069  -1.299  0.00  0.00    +0.226 C 
ENDBRANCH  17  19
ENDBRANCH   9  17
ENDBRANCH   1  11
BRANCH   5  20
ATOM     20  C   UNL     1       5.613   5.056  -0.493  0.00  0.00    +0.198 C 
BRANCH  20  21
ATOM     21  C   UNL     1       4.581   5.747  -1.388  0.00  0.00    +0.015 C 
ATOM     22  C   UNL     1       4.787   7.261  -1.330  0.00  0.00    +0.009 C 
ATOM     23  C   UNL     1       4.751   5.263  -2.829  0.00  0.00    +0.009 C 
ENDBRANCH  20  21
BRANCH  20  24
ATOM     24  C   UNL     1       5.364   5.434   0.944  0.00  0.00    +0.377 C 
ATOM     25  O   UNL     1       5.114   4.577   1.759  0.00  0.00    -0.244 OA
ATOM     26  O   UNL     1       5.418   6.721   1.319  0.00  0.00    -0.244 OA
ENDBRANCH  20  24
ENDBRANCH   5  20
TORSDOF 7
