REMARK  Name = ZINC00784495
REMARK  3 active torsions:
REMARK  status: ('A' for Active; 'I' for Inactive)
REMARK    1  A    between atoms: C_8  and  C_12
REMARK    2  A    between atoms: N_17  and  C_18
REMARK    3  A    between atoms: C_21  and  N_24
REMARK                            x       y       z     vdW  Elec       q    Type
REMARK                         _______ _______ _______ _____ _____    ______ ____
ROOT
ATOM      1  C   UNL     1       2.642  -4.211   0.265  0.00  0.00    +0.087 A 
ATOM      2  C   UNL     1       3.895  -4.758   0.229  0.00  0.00    +0.077 A 
ATOM      3  S   UNL     1       3.498  -6.486  -0.003  0.00  0.00    -0.060 S 
ATOM      4  C   UNL     1       1.719  -6.308  -0.028  0.00  0.00    +0.163 A 
ATOM      5  N   UNL     1       1.581  -5.005   0.140  0.00  0.00    -0.224 NA
ATOM      6  N   UNL     1       0.744  -7.280  -0.180  0.00  0.00    -0.294 N 
ATOM      7  H   UNL     1      -0.189  -7.024  -0.258  0.00  0.00    +0.154 HD
ENDROOT
BRANCH   1  15
ATOM      8  C   UNL     1      -0.104   1.250   1.171  0.00  0.00    +0.001 A 
ATOM      9  C   UNL     1       1.047   2.012   1.028  0.00  0.00    +0.004 A 
ATOM     10  C   UNL     1       2.250   1.417   0.708  0.00  0.00    +0.047 A 
ATOM     11  C   UNL     1       2.312   0.043   0.527  0.00  0.00    +0.139 A 
ATOM     12  C   UNL     1       1.145  -0.729   0.675  0.00  0.00    +0.018 A 
ATOM     13  C   UNL     1      -0.066  -0.105   0.998  0.00  0.00    +0.011 A 
ATOM     14  C   UNL     1       1.217  -2.181   0.491  0.00  0.00    +0.028 A 
ATOM     15  C   UNL     1       2.467  -2.752   0.447  0.00  0.00    +0.086 A 
ATOM     16  C   UNL     1       3.626  -1.853   0.588  0.00  0.00    +0.347 A 
ATOM     17  O   UNL     1       4.683  -2.259   1.033  0.00  0.00    -0.244 OA
ATOM     18  O   UNL     1       3.482  -0.562   0.208  0.00  0.00    -0.422 OA
ENDBRANCH   1  15
BRANCH   6  19
ATOM     19  C   UNL     1       1.103  -8.633  -0.220  0.00  0.00    +0.033 A 
ATOM     20  C   UNL     1       2.111  -9.109   0.610  0.00  0.00    +0.025 A 
ATOM     21  C   UNL     1       2.465 -10.442   0.570  0.00  0.00    +0.024 A 
ATOM     22  C   UNL     1       1.815 -11.308  -0.300  0.00  0.00    +0.025 A 
ATOM     23  C   UNL     1       0.808 -10.832  -1.129  0.00  0.00    +0.024 A 
ATOM     24  C   UNL     1       0.449  -9.500  -1.085  0.00  0.00    +0.025 A 
BRANCH  22  25
ATOM     25  N   UNL     1       2.175 -12.660  -0.340  0.00  0.00    -0.358 N 
ATOM     26  H   UNL     1       2.878 -12.992   0.239  0.00  0.00    +0.142 HD
ATOM     27  H   UNL     1       1.721 -13.265  -0.947  0.00  0.00    +0.142 HD
ENDBRANCH  22  25
ENDBRANCH   6  19
TORSDOF 3
