REMARK  Name = ZINC36728820
REMARK  11 active torsions:
REMARK  status: ('A' for Active; 'I' for Inactive)
REMARK    1  A    between atoms: C_1  and  C_2
REMARK    2  A    between atoms: C_4  and  C_33
REMARK    3  A    between atoms: C_5  and  N_9
REMARK    4  A    between atoms: C_6  and  C_8
REMARK    5  A    between atoms: C_10  and  C_12
REMARK    6  A    between atoms: C_12  and  N_13
REMARK    7  A    between atoms: C_14  and  C_16
REMARK    8  A    between atoms: C_16  and  N_17
REMARK    9  A    between atoms: C_22  and  C_29
REMARK   10  A    between atoms: C_25  and  C_27
REMARK   11  A    between atoms: C_25  and  C_28
REMARK                            x       y       z     vdW  Elec       q    Type
REMARK                         _______ _______ _______ _____ _____    ______ ____
ROOT
ATOM      1  N   UNL     1       0.900  -7.247   2.014  0.00  0.00    -0.305 N 
ATOM      2  C   UNL     1       1.024  -8.567   2.255  0.00  0.00    +0.231 C 
ATOM      3  O   UNL     1       0.771  -9.370   1.381  0.00  0.00    -0.274 OA
ATOM      4  H   UNL     1       1.103  -6.605   2.712  0.00  0.00    +0.149 HD
ENDROOT
BRANCH   1   5
ATOM      5  C   UNL     1       0.458  -6.781   0.697  0.00  0.00    +0.200 C 
BRANCH   5   7
ATOM      6  N   UNL     1       0.018  -4.621  -0.425  0.00  0.00    -0.284 N 
ATOM      7  C   UNL     1       0.402  -5.276   0.689  0.00  0.00    +0.234 C 
ATOM      8  O   UNL     1       0.702  -4.652   1.686  0.00  0.00    -0.274 OA
ATOM      9  H   UNL     1      -0.299  -5.119  -1.195  0.00  0.00    +0.155 HD
BRANCH   6  14
ATOM     10  C   UNL     1       0.257   1.044  -0.612  0.00  0.00    +0.044 C 
ATOM     11  C   UNL     1       0.194  -0.461  -0.562  0.00  0.00    -0.050 A 
ATOM     12  C   UNL     1       0.870  -1.212  -1.506  0.00  0.00    +0.008 A 
ATOM     13  C   UNL     1       0.814  -2.591  -1.464  0.00  0.00    -0.029 A 
ATOM     14  C   UNL     1       0.077  -3.224  -0.471  0.00  0.00    +0.039 A 
ATOM     15  C   UNL     1      -0.600  -2.467   0.476  0.00  0.00    -0.029 A 
ATOM     16  C   UNL     1      -0.536  -1.088   0.431  0.00  0.00    +0.008 A 
ATOM     17  C   UNL     1      -1.401  -3.150   1.555  0.00  0.00    +0.045 C 
ATOM     18  C   UNL     1       1.551  -3.408  -2.493  0.00  0.00    +0.045 C 
ENDBRANCH   6  14
ENDBRANCH   5   7
ENDBRANCH   1   5
BRANCH   2  19
ATOM     19  C   UNL     1       1.480  -9.046   3.609  0.00  0.00    +0.213 C 
BRANCH  19  20
ATOM     20  N   UNL     1       1.534 -10.510   3.616  0.00  0.00    -0.215 N 
ATOM     21  C   UNL     1       0.499 -11.306   3.958  0.00  0.00    +0.247 C 
ATOM     22  O   UNL     1      -0.610 -10.959   4.304  0.00  0.00    -0.273 OA
ATOM     23  C   UNL     1       1.014 -12.720   3.818  0.00  0.00    +0.113 C 
ATOM     24  C   UNL     1       0.966 -13.439   5.162  0.00  0.00    +0.038 C 
ATOM     25  C   UNL     1       1.519 -14.858   5.004  0.00  0.00    -0.011 C 
ATOM     26  C   UNL     1       0.685 -15.617   3.970  0.00  0.00    +0.009 C 
ATOM     27  C   UNL     1       0.762 -14.897   2.622  0.00  0.00    -0.032 C 
ATOM     28  C   UNL     1       0.206 -13.478   2.770  0.00  0.00    +0.041 C 
ATOM     29  C   UNL     1      -0.063 -15.662   1.586  0.00  0.00    +0.011 C 
ATOM     30  C   UNL     1       2.220 -14.828   2.163  0.00  0.00    +0.011 C 
ATOM     31  C   UNL     1       1.450 -15.585   6.348  0.00  0.00    +0.007 C 
ATOM     32  N   UNL     1       2.403 -12.551   3.374  0.00  0.00    -0.285 N 
ATOM     33  C   UNL     1       2.615 -11.225   3.279  0.00  0.00    +0.310 C 
ATOM     34  O   UNL     1       3.669 -10.731   2.930  0.00  0.00    -0.252 OA
ATOM     35  H   UNL     1       3.042 -13.256   3.183  0.00  0.00    +0.151 HD
ENDBRANCH  19  20
ENDBRANCH   2  19
TORSDOF 5
