REMARK  Name = ZINC64703964
REMARK  12 active torsions:
REMARK  status: ('A' for Active; 'I' for Inactive)
REMARK    1  A    between atoms: C_1  and  C_2
REMARK    2  A    between atoms: C_5  and  C_8
REMARK    3  A    between atoms: C_9  and  N_27
REMARK    4  A    between atoms: N_16  and  C_17
REMARK    5  A    between atoms: N_16  and  C_18
REMARK    6  A    between atoms: C_18  and  C_19
REMARK    7  A    between atoms: N_21  and  C_22
REMARK    8  A    between atoms: C_22  and  C_23
REMARK    9  A    between atoms: C_23  and  N_24
REMARK   10  A    between atoms: N_24  and  C_25
REMARK   11  A    between atoms: N_24  and  C_26
REMARK   12  A    between atoms: N_27  and  C_28
REMARK                            x       y       z     vdW  Elec       q    Type
REMARK                         _______ _______ _______ _____ _____    ______ ____
ROOT
ATOM      1  C   UNL     1       0.061  -4.253  -0.021  0.00  0.00    +0.114 A 
ATOM      2  C   UNL     1       0.703  -5.053   0.876  0.00  0.00    +0.150 A 
ATOM      3  N   UNL     1       0.468  -6.369   0.509  0.00  0.00    -0.190 N 
ATOM      4  C   UNL     1      -0.320  -6.296  -0.613  0.00  0.00    +0.199 A 
ATOM      5  N   UNL     1      -0.563  -5.058  -0.922  0.00  0.00    -0.218 NA
ATOM      6  S   UNL     1      -0.573  -8.009  -1.016  0.00  0.00    -0.013 S 
ATOM      7  C   UNL     1       0.377  -8.711   0.324  0.00  0.00    +0.184 A 
ATOM      8  N   UNL     1       0.798  -7.647   0.950  0.00  0.00    -0.140 NA
ATOM      9  N   UNL     1       0.607 -10.044   0.622  0.00  0.00    -0.302 N 
ATOM     10  C   UNL     1       1.426 -10.405   1.782  0.00  0.00    +0.132 C 
ENDROOT
BRANCH   1  15
ATOM     11  C   UNL     1      -0.018   1.503   0.010  0.00  0.00    +0.044 C 
ATOM     12  C   UNL     1       0.002  -0.004   0.002  0.00  0.00    -0.050 A 
ATOM     13  C   UNL     1       0.006  -0.686  -1.202  0.00  0.00    +0.004 A 
ATOM     14  C   UNL     1       0.025  -2.066  -1.216  0.00  0.00    +0.010 A 
ATOM     15  C   UNL     1       0.041  -2.773  -0.013  0.00  0.00    +0.004 A 
ATOM     16  C   UNL     1       0.037  -2.079   1.197  0.00  0.00    +0.010 A 
ATOM     17  C   UNL     1       0.023  -0.699   1.198  0.00  0.00    +0.004 A 
ENDBRANCH   1  15
BRANCH   2  18
ATOM     18  N   UNL     1       1.462  -4.624   1.969  0.00  0.00    -0.324 N 
ATOM     19  H   UNL     1       1.569  -3.676   2.143  0.00  0.00    +0.148 HD
BRANCH  18  20
ATOM     20  C   UNL     1       2.097  -5.606   2.851  0.00  0.00    +0.072 C 
ATOM     21  C   UNL     1       3.447  -6.022   2.263  0.00  0.00    +0.022 C 
ATOM     22  C   UNL     1       4.110  -7.048   3.184  0.00  0.00    +0.002 C 
ATOM     23  C   UNL     1       4.324  -6.429   4.567  0.00  0.00    +0.000 C 
ATOM     24  C   UNL     1       2.974  -6.013   5.154  0.00  0.00    +0.002 C 
ATOM     25  C   UNL     1       2.312  -4.987   4.233  0.00  0.00    +0.022 C 
ENDBRANCH  18  20
ENDBRANCH   2  18
BRANCH   9  26
ATOM     26  C   UNL     1       0.032 -11.094  -0.224  0.00  0.00    +0.202 C 
BRANCH  26  27
ATOM     27  C   UNL     1       0.998 -11.435  -1.329  0.00  0.00    +0.230 C 
ATOM     28  O   UNL     1       2.063 -10.858  -1.403  0.00  0.00    -0.274 OA
ATOM     29  N   UNL     1       0.680 -12.381  -2.234  0.00  0.00    -0.316 N 
ATOM     30  H   UNL     1      -0.172 -12.842  -2.175  0.00  0.00    +0.149 HD
BRANCH  29  31
ATOM     31  C   UNL     1       1.619 -12.713  -3.309  0.00  0.00    +0.085 C 
BRANCH  31  32
ATOM     32  C   UNL     1       1.018 -13.808  -4.191  0.00  0.00    -0.061 C 
BRANCH  32  33
ATOM     33  N   UNL     1       1.960 -14.141  -5.268  0.00  0.00    +0.377 N 
ATOM     34  C   UNL     1       3.176 -14.730  -4.691  0.00  0.00    -0.097 C 
ATOM     35  C   UNL     1       1.336 -15.105  -6.184  0.00  0.00    -0.097 C 
ATOM     36  H   UNL     1       2.200 -13.303  -5.776  0.00  0.00    -0.083 HD
ENDBRANCH  32  33
ENDBRANCH  31  32
ENDBRANCH  29  31
ENDBRANCH  26  27
ENDBRANCH   9  26
TORSDOF 8
