REMARK  Name = ZINC54349733
REMARK  6 active torsions:
REMARK  status: ('A' for Active; 'I' for Inactive)
REMARK    1  A    between atoms: C_1  and  C_2
REMARK    2  A    between atoms: C_5  and  O_9
REMARK    3  A    between atoms: O_9  and  C_10
REMARK    4  A    between atoms: C_10  and  C_12
REMARK    5  A    between atoms: C_10  and  C_14
REMARK    6  A    between atoms: C_12  and  N_13
REMARK                            x       y       z     vdW  Elec       q    Type
REMARK                         _______ _______ _______ _____ _____    ______ ____
ROOT
ATOM      1  C   UNL     1      -0.052  -4.772  -1.295  0.00  0.00    +0.193 C 
ENDROOT
BRANCH   1   2
ATOM      2  C   UNL     1       0.576  -6.140  -1.222  0.00  0.00    +0.029 A 
ATOM      3  C   UNL     1       1.347  -6.775  -2.138  0.00  0.00    +0.030 A 
ATOM      4  C   UNL     1       1.820  -8.043  -1.854  0.00  0.00    +0.025 A 
ATOM      5  C   UNL     1       1.497  -8.614  -0.667  0.00  0.00    +0.060 A 
ATOM      6  S   UNL     1       0.503  -7.342   0.096  0.00  0.00    -0.097 S 
ATOM      7 BR   UNL     1       2.899  -8.967  -3.101  0.00  0.00    -0.050 Br
ENDBRANCH   1   2
BRANCH   1   8
ATOM      8  O   UNL     1       0.057  -4.130  -0.023  0.00  0.00    -0.484 OA
BRANCH   8  13
ATOM      9  C   UNL     1       0.547   1.482  -0.028  0.00  0.00    +0.044 C 
ATOM     10  C   UNL     1       0.416  -0.019  -0.026  0.00  0.00    -0.049 A 
ATOM     11  C   UNL     1       0.384  -0.711  -1.223  0.00  0.00    +0.007 A 
ATOM     12  C   UNL     1       0.264  -2.087  -1.224  0.00  0.00    +0.047 A 
ATOM     13  C   UNL     1       0.175  -2.776  -0.024  0.00  0.00    +0.140 A 
ATOM     14  C   UNL     1       0.208  -2.080   1.177  0.00  0.00    +0.083 A 
ATOM     15  C   UNL     1       0.334  -0.703   1.173  0.00  0.00    +0.027 A 
ATOM     16 CL   UNL     1       0.097  -2.938   2.682  0.00  0.00    -0.080 Cl
ENDBRANCH   8  13
ENDBRANCH   1   8
BRANCH   1  17
ATOM     17  C   UNL     1      -1.529  -4.909  -1.672  0.00  0.00    -0.036 C 
BRANCH  17  18
ATOM     18  N   UNL     1      -2.112  -3.573  -1.860  0.00  0.00    +0.381 N 
ATOM     19  H   UNL     1      -2.031  -3.047  -1.003  0.00  0.00    -0.090 HD
ATOM     20  H   UNL     1      -1.619  -3.092  -2.598  0.00  0.00    -0.090 HD
ATOM     21  H   UNL     1      -3.085  -3.663  -2.109  0.00  0.00    -0.090 HD
ENDBRANCH  17  18
ENDBRANCH   1  17
TORSDOF 5
