REMARK  Name = ZINC09329913
REMARK  4 active torsions:
REMARK  status: ('A' for Active; 'I' for Inactive)
REMARK    1  A    between atoms: C_1  and  N_39
REMARK    2  A    between atoms: C_14  and  C_16
REMARK    3  A    between atoms: C_17  and  O_25
REMARK    4  A    between atoms: C_19  and  O_24
REMARK                            x       y       z     vdW  Elec       q    Type
REMARK                         _______ _______ _______ _____ _____    ______ ____
ROOT
ATOM      1  C   UNL     1      -0.018   1.465   0.010  0.00  0.00    -0.095 C 
ATOM      2  C   UNL     1       0.588  -0.516  -1.245  0.00  0.00    -0.073 C 
ATOM      3  C   UNL     1       0.246  -2.005  -1.397  0.00  0.00    +0.019 C 
ATOM      4  C   UNL     1       0.574  -2.693  -0.096  0.00  0.00    -0.022 A 
ATOM      5  C   UNL     1       0.729  -4.104   0.181  0.00  0.00    +0.003 A 
ATOM      6  C   UNL     1       0.629  -5.247  -0.618  0.00  0.00    +0.010 A 
ATOM      7  C   UNL     1       0.846  -6.455  -0.004  0.00  0.00    +0.001 A 
ATOM      8  C   UNL     1       1.152  -6.552   1.343  0.00  0.00    +0.002 A 
ATOM      9  C   UNL     1       1.257  -5.439   2.158  0.00  0.00    +0.026 A 
ATOM     10  C   UNL     1       1.041  -4.198   1.563  0.00  0.00    +0.047 A 
ATOM     11  N   UNL     1       1.065  -2.927   2.062  0.00  0.00    -0.359 N 
ATOM     12  H   UNL     1       1.252  -2.693   2.985  0.00  0.00    +0.166 HD
ATOM     13  C   UNL     1       0.784  -2.032   1.066  0.00  0.00    +0.011 A 
ATOM     14  C   UNL     1       0.708  -0.528   1.183  0.00  0.00    +0.021 C 
ATOM     15  N   UNL     1      -0.028  -0.013   0.003  0.00  0.00    +0.387 N 
ATOM     16  H   UNL     1      -1.000  -0.339   0.049  0.00  0.00    -0.081 HD
ENDROOT
BRANCH  14  17
ATOM     17  C   UNL     1      -0.049  -0.156   2.431  0.00  0.00    +0.071 A 
ATOM     18  C   UNL     1       0.579   0.523   3.461  0.00  0.00    +0.224 A 
ATOM     19  N   UNL     1      -0.111   0.849   4.559  0.00  0.00    -0.160 NA
ATOM     20  C   UNL     1      -1.378   0.528   4.688  0.00  0.00    +0.311 A 
ATOM     21  N   UNL     1      -2.041  -0.143   3.710  0.00  0.00    -0.201 N 
ATOM     22  C   UNL     1      -1.400  -0.495   2.576  0.00  0.00    +0.271 A 
ATOM     23  O   UNL     1      -1.988  -1.098   1.692  0.00  0.00    -0.266 OA
ATOM     24  I   UNL     1      -4.019  -0.621   3.958  0.00  0.00    +0.071 I 
BRANCH  20  25
ATOM     25  O   UNL     1      -2.035   0.871   5.815  0.00  0.00    -0.479 OA
ATOM     26  H   UNL     1      -1.531   1.348   6.489  0.00  0.00    +0.295 HD
ENDBRANCH  20  25
BRANCH  18  27
ATOM     27  O   UNL     1       1.885   0.860   3.354  0.00  0.00    -0.492 OA
ATOM     28  H   UNL     1       2.234   1.332   4.123  0.00  0.00    +0.294 HD
ENDBRANCH  18  27
ENDBRANCH  14  17
TORSDOF 3
