REMARK  Name = ZINC65137082
REMARK  6 active torsions:
REMARK  status: ('A' for Active; 'I' for Inactive)
REMARK    1  A    between atoms: C_1  and  C_2
REMARK    2  A    between atoms: C_5  and  S_8
REMARK    3  A    between atoms: S_8  and  N_11
REMARK    4  A    between atoms: C_14  and  C_17
REMARK    5  A    between atoms: C_20  and  C_23
REMARK    6  A    between atoms: C_27  and  C_29
REMARK                            x       y       z     vdW  Elec       q    Type
REMARK                         _______ _______ _______ _____ _____    ______ ____
ROOT
ATOM      1  C   UNL     1       4.508  -8.153  -0.078  0.00  0.00    +0.246 C 
ATOM      2  N   UNL     1       5.230  -8.390   1.178  0.00  0.00    -0.342 N 
ATOM      3  C   UNL     1       4.707  -9.418   1.771  0.00  0.00    +0.134 C 
ATOM      4  N   UNL     1       3.666  -9.941   1.044  0.00  0.00    -0.247 N 
ATOM      5  O   UNL     1       3.500  -9.173  -0.140  0.00  0.00    -0.248 OA
ATOM      6  H   UNL     1       3.132 -10.710   1.297  0.00  0.00    +0.196 HD
ATOM      7  H   UNL     1       5.976  -7.865   1.509  0.00  0.00    +0.164 HD
ENDROOT
BRANCH   1  11
ATOM      8  N   UNL     1       1.651  -4.999  -0.034  0.00  0.00    -0.177 NA
ATOM      9  C   UNL     1       2.364  -5.199  -1.304  0.00  0.00    +0.110 C 
ATOM     10  C   UNL     1       2.984  -6.599  -1.306  0.00  0.00    +0.025 C 
ATOM     11  C   UNL     1       3.858  -6.767  -0.061  0.00  0.00    +0.043 C 
ATOM     12  C   UNL     1       2.995  -6.624   1.194  0.00  0.00    +0.025 C 
ATOM     13  C   UNL     1       2.376  -5.218   1.225  0.00  0.00    +0.110 C 
BRANCH   8  14
ATOM     14  S   UNL     1       0.063  -4.530  -0.023  0.00  0.00    +0.061 S 
ATOM     15  O   UNL     1      -0.476  -4.950   1.223  0.00  0.00    -0.153 OA
ATOM     16  O   UNL     1      -0.490  -4.937  -1.267  0.00  0.00    -0.153 OA
BRANCH  14  21
ATOM     17  C   UNL     1      -0.018   1.503   0.010  0.00  0.00    +0.044 C 
ATOM     18  C   UNL     1       0.002  -0.004   0.002  0.00  0.00    -0.050 A 
ATOM     19  C   UNL     1       0.006  -0.689  -1.199  0.00  0.00    +0.005 A 
ATOM     20  C   UNL     1       0.025  -2.071  -1.206  0.00  0.00    +0.029 A 
ATOM     21  C   UNL     1       0.040  -2.768  -0.013  0.00  0.00    +0.105 A 
ATOM     22  C   UNL     1       0.037  -2.084   1.188  0.00  0.00    +0.029 A 
ATOM     23  C   UNL     1       0.023  -0.702   1.195  0.00  0.00    +0.005 A 
ENDBRANCH  14  21
ENDBRANCH   8  14
ENDBRANCH   1  11
BRANCH   3  24
ATOM     24  C   UNL     1       5.174  -9.960   3.068  0.00  0.00    +0.017 A 
ATOM     25  C   UNL     1       5.738  -9.109   4.019  0.00  0.00    +0.011 A 
ATOM     26  C   UNL     1       6.174  -9.612   5.228  0.00  0.00    +0.001 A 
ATOM     27  C   UNL     1       6.054 -10.959   5.506  0.00  0.00    +0.010 A 
ATOM     28  C   UNL     1       5.491 -11.821   4.564  0.00  0.00    +0.000 A 
ATOM     29  C   UNL     1       5.044 -11.319   3.343  0.00  0.00    +0.021 A 
BRANCH  28  30
ATOM     30  C   UNL     1       5.363 -13.265   4.862  0.00  0.00    +0.066 A 
ATOM     31  C   UNL     1       5.746 -13.890   6.015  0.00  0.00    +0.049 A 
ATOM     32  C   UNL     1       5.450 -15.247   5.884  0.00  0.00    +0.135 A 
ATOM     33  N   UNL     1       4.911 -15.445   4.707  0.00  0.00    -0.182 NA
ATOM     34  N   UNL     1       4.836 -14.216   4.040  0.00  0.00    -0.277 N 
ATOM     35  H   UNL     1       4.476 -14.069   3.152  0.00  0.00    +0.189 HD
ENDBRANCH  28  30
ENDBRANCH   3  24
TORSDOF 5
