REMARK  Name = ZINC09382655
REMARK  9 active torsions:
REMARK  status: ('A' for Active; 'I' for Inactive)
REMARK    1  A    between atoms: C_1  and  C_2
REMARK    2  A    between atoms: C_5  and  S_8
REMARK    3  A    between atoms: S_8  and  N_11
REMARK    4  A    between atoms: N_11  and  C_12
REMARK    5  A    between atoms: C_12  and  C_14
REMARK    6  A    between atoms: C_12  and  C_15
REMARK    7  A    between atoms: C_15  and  C_17
REMARK    8  A    between atoms: C_15  and  N_60
REMARK    9  A    between atoms: N_24  and  C_27
REMARK                            x       y       z     vdW  Elec       q    Type
REMARK                         _______ _______ _______ _____ _____    ______ ____
ROOT
ATOM      1  C   UNL     1       1.669   7.546  -1.035  0.00  0.00    -0.012 C 
ENDROOT
BRANCH   1   7
ATOM      2  C   UNL     1       2.594   5.854   0.429  0.00  0.00    -0.059 C 
ATOM      3  C   UNL     1       2.943   4.367   0.532  0.00  0.00    +0.086 C 
ATOM      4  N   UNL     1       1.720   3.567   0.383  0.00  0.00    -0.333 N 
ATOM      5  C   UNL     1       1.077   3.829  -0.912  0.00  0.00    +0.086 C 
ATOM      6  C   UNL     1       0.728   5.315  -1.015  0.00  0.00    -0.059 C 
ATOM      7  N   UNL     1       1.969   6.107  -0.886  0.00  0.00    +0.388 N 
ATOM      8  H   UNL     1       2.623   5.824  -1.626  0.00  0.00    -0.081 HD
BRANCH   4   9
ATOM      9  C   UNL     1       1.989   2.205   0.544  0.00  0.00    +0.030 A 
ATOM     10  C   UNL     1       0.962   1.276   0.440  0.00  0.00    +0.026 A 
ATOM     11  C   UNL     1       1.230  -0.070   0.598  0.00  0.00    +0.040 A 
ATOM     12  C   UNL     1       2.522  -0.493   0.860  0.00  0.00    +0.124 A 
ATOM     13  C   UNL     1       3.548   0.432   0.964  0.00  0.00    +0.040 A 
ATOM     14  C   UNL     1       3.284   1.778   0.806  0.00  0.00    +0.026 A 
ATOM     15  F   UNL     1       2.783  -1.809   1.015  0.00  0.00    -0.205 F 
ENDBRANCH   4   9
ENDBRANCH   1   7
BRANCH   1  16
ATOM     16  C   UNL     1       0.834   8.033   0.122  0.00  0.00    -0.022 A 
ATOM     17  C   UNL     1       1.013   9.126   0.903  0.00  0.00    +0.009 A 
ATOM     18  C   UNL     1       0.109   9.381   1.917  0.00  0.00    +0.008 A 
ATOM     19  C   UNL     1      -0.925   8.524   2.107  0.00  0.00    +0.045 A 
ATOM     20  S   UNL     1      -0.642   7.315   0.824  0.00  0.00    -0.103 S 
ENDBRANCH   1  16
BRANCH   1  21
ATOM     21  C   UNL     1       0.904   7.765  -2.342  0.00  0.00    +0.065 C 
ATOM     22  C   UNL     1       1.751   7.271  -3.517  0.00  0.00    +0.024 C 
BRANCH  21  23
ATOM     23  N   UNL     1       0.622   9.193  -2.510  0.00  0.00    -0.188 NA
ATOM     24  H   UNL     1       1.263   9.853  -2.205  0.00  0.00    +0.148 HD
BRANCH  23  25
ATOM     25  S   UNL     1      -0.792   9.679  -3.221  0.00  0.00    +0.059 S 
ATOM     26  O   UNL     1      -0.783  11.100  -3.214  0.00  0.00    -0.153 OA
ATOM     27  O   UNL     1      -0.925   8.924  -4.418  0.00  0.00    -0.153 OA
BRANCH  25  32
ATOM     28  C   UNL     1      -5.297   7.966   0.408  0.00  0.00    +0.044 C 
ATOM     29  C   UNL     1      -4.172   8.394  -0.498  0.00  0.00    -0.050 A 
ATOM     30  C   UNL     1      -3.587   9.636  -0.335  0.00  0.00    +0.005 A 
ATOM     31  C   UNL     1      -2.555  10.028  -1.167  0.00  0.00    +0.029 A 
ATOM     32  C   UNL     1      -2.108   9.179  -2.161  0.00  0.00    +0.105 A 
ATOM     33  C   UNL     1      -2.696   7.939  -2.328  0.00  0.00    +0.029 A 
ATOM     34  C   UNL     1      -3.725   7.545  -1.493  0.00  0.00    +0.005 A 
ENDBRANCH  25  32
ENDBRANCH  23  25
ENDBRANCH  21  23
ENDBRANCH   1  21
TORSDOF 7
