REMARK  Name = ZINC47198746
REMARK  7 active torsions:
REMARK  status: ('A' for Active; 'I' for Inactive)
REMARK    1  A    between atoms: C_1  and  C_2
REMARK    2  A    between atoms: C_2  and  N_3
REMARK    3  A    between atoms: C_4  and  C_6
REMARK    4  A    between atoms: C_10  and  C_12
REMARK    5  A    between atoms: C_12  and  N_13
REMARK    6  A    between atoms: C_14  and  C_16
REMARK    7  A    between atoms: C_23  and  C_26
REMARK                            x       y       z     vdW  Elec       q    Type
REMARK                         _______ _______ _______ _____ _____    ______ ____
ROOT
ATOM      1  N   UNL     1      -4.881  -6.161  -1.351  0.00  0.00    -0.307 N 
ATOM      2  C   UNL     1      -5.112  -7.466  -1.597  0.00  0.00    +0.251 C 
ATOM      3  O   UNL     1      -5.242  -8.246  -0.671  0.00  0.00    -0.270 OA
ATOM      4  H   UNL     1      -4.778  -5.540  -2.089  0.00  0.00    +0.149 HD
ENDROOT
BRANCH   2   5
ATOM      5  C   UNL     1      -5.208  -7.947  -2.978  0.00  0.00    +0.074 A 
ATOM      6  C   UNL     1      -5.443  -9.228  -3.441  0.00  0.00    +0.024 A 
ATOM      7  C   UNL     1      -5.483  -9.399  -4.817  0.00  0.00    -0.036 A 
ATOM      8  C   UNL     1      -5.287  -8.285  -5.579  0.00  0.00    -0.006 A 
ATOM      9  S   UNL     1      -5.060  -7.030  -4.500  0.00  0.00    -0.088 S 
ATOM     10  C   UNL     1      -5.282  -8.211  -7.077  0.00  0.00    +0.043 C 
ATOM     11  C   UNL     1      -5.156  -9.637  -7.633  0.00  0.00    +0.009 C 
ATOM     12  C   UNL     1      -6.169 -10.535  -6.918  0.00  0.00    -0.009 C 
ATOM     13  C   UNL     1      -5.734 -10.756  -5.469  0.00  0.00    +0.039 C 
ATOM     14  C   UNL     1      -6.247 -11.884  -7.635  0.00  0.00    +0.008 C 
ENDBRANCH   2   5
BRANCH   1  15
ATOM     15  C   UNL     1      -4.785  -5.681   0.029  0.00  0.00    +0.139 C 
BRANCH  15  20
ATOM     16  C   UNL     1      -2.988  -2.351   0.018  0.00  0.00    +0.037 A 
ATOM     17  C   UNL     1      -4.063  -1.461   0.027  0.00  0.00    +0.013 A 
ATOM     18  C   UNL     1      -5.355  -1.945   0.036  0.00  0.00    +0.001 A 
ATOM     19  C   UNL     1      -5.586  -3.310   0.037  0.00  0.00    +0.005 A 
ATOM     20  C   UNL     1      -4.524  -4.197   0.028  0.00  0.00    -0.030 A 
ATOM     21  C   UNL     1      -3.228  -3.726   0.013  0.00  0.00    +0.018 A 
BRANCH  16  23
ATOM     22  N   UNL     1      -1.372  -0.511   0.012  0.00  0.00    -0.312 N 
ATOM     23  C   UNL     1      -1.601  -1.839   0.007  0.00  0.00    +0.244 C 
ATOM     24  O   UNL     1      -0.666  -2.617  -0.006  0.00  0.00    -0.270 OA
ATOM     25  H   UNL     1      -2.118   0.109   0.023  0.00  0.00    +0.149 HD
BRANCH  22  27
ATOM     26  C   UNL     1      -0.019   1.526   0.010  0.00  0.00    +0.024 C 
ATOM     27  C   UNL     1       0.002  -0.004   0.002  0.00  0.00    +0.101 C 
ENDBRANCH  22  27
ENDBRANCH  16  23
ENDBRANCH  15  20
ENDBRANCH   1  15
TORSDOF 5
