REMARK  Name = ZINC63514112
REMARK  10 active torsions:
REMARK  status: ('A' for Active; 'I' for Inactive)
REMARK    1  A    between atoms: C_1  and  C_2
REMARK    2  A    between atoms: C_7  and  C_27
REMARK    3  A    between atoms: C_9  and  C_12
REMARK    4  A    between atoms: C_12  and  C_13
REMARK    5  A    between atoms: C_13  and  N_14
REMARK    6  A    between atoms: N_14  and  S_15
REMARK    7  A    between atoms: S_15  and  C_18
REMARK    8  A    between atoms: C_19  and  C_26
REMARK    9  A    between atoms: C_21  and  C_25
REMARK   10  A    between atoms: C_23  and  C_24
REMARK                            x       y       z     vdW  Elec       q    Type
REMARK                         _______ _______ _______ _____ _____    ______ ____
ROOT
ATOM      1  C   UNL     1      -0.667  -0.724   3.401  0.00  0.00    +0.110 C 
ENDROOT
BRANCH   1   2
ATOM      2  N   UNL     1      -0.158  -0.753   4.775  0.00  0.00    -0.190 NA
ATOM      3  H   UNL     1       0.798  -0.789   4.937  0.00  0.00    +0.148 HD
BRANCH   2   4
ATOM      4  S   UNL     1      -1.214  -0.725   6.050  0.00  0.00    +0.059 S 
ATOM      5  O   UNL     1      -0.425  -0.742   7.231  0.00  0.00    -0.153 OA
ATOM      6  O   UNL     1      -2.154   0.305   5.776  0.00  0.00    -0.153 OA
BRANCH   4   7
ATOM      7  C   UNL     1      -2.108  -2.244   6.019  0.00  0.00    +0.111 A 
ATOM      8  C   UNL     1      -1.724  -3.288   6.840  0.00  0.00    -0.024 A 
ATOM      9  C   UNL     1      -2.425  -4.479   6.816  0.00  0.00    +0.008 A 
ATOM     10  C   UNL     1      -3.511  -4.626   5.972  0.00  0.00    -0.050 A 
ATOM     11  C   UNL     1      -3.895  -3.581   5.153  0.00  0.00    +0.008 A 
ATOM     12  C   UNL     1      -3.196  -2.388   5.180  0.00  0.00    -0.024 A 
ATOM     13  C   UNL     1      -3.619  -1.247   4.290  0.00  0.00    +0.046 C 
ATOM     14  C   UNL     1      -4.274  -5.924   5.945  0.00  0.00    +0.044 C 
ATOM     15  C   UNL     1      -0.541  -3.129   7.759  0.00  0.00    +0.046 C 
ENDBRANCH   4   7
ENDBRANCH   2   4
ENDBRANCH   1   2
BRANCH   1  16
ATOM     16  C   UNL     1      -0.773  -2.154   2.866  0.00  0.00    +0.050 C 
BRANCH  16  24
ATOM     17  C   UNL     1      -2.060   2.741   0.401  0.00  0.00    +0.044 C 
ATOM     18  C   UNL     1      -1.962   1.277   0.060  0.00  0.00    -0.050 A 
ATOM     19  C   UNL     1      -2.257   0.859  -1.245  0.00  0.00    +0.005 A 
ATOM     20  C   UNL     1      -2.193  -0.434  -1.629  0.00  0.00    +0.026 A 
ATOM     21  C   UNL     1      -1.815  -1.442  -0.699  0.00  0.00    +0.043 A 
ATOM     22  N   UNL     1      -1.682  -2.740  -0.825  0.00  0.00    -0.378 N 
ATOM     23  C   UNL     1      -1.266  -3.295   0.468  0.00  0.00    +0.103 C 
ATOM     24  C   UNL     1      -1.165  -2.118   1.412  0.00  0.00    -0.037 C 
ATOM     25  C   UNL     1      -1.499  -1.026   0.686  0.00  0.00    -0.001 A 
ATOM     26  C   UNL     1      -1.587   0.401   1.020  0.00  0.00    +0.013 A 
ATOM     27  C   UNL     1      -2.311  -4.291   0.975  0.00  0.00    +0.035 C 
ATOM     28  H   UNL     1      -1.834  -3.248  -1.637  0.00  0.00    +0.160 HD
ENDBRANCH  16  24
ENDBRANCH   1  16
TORSDOF 5
