REMARK  Name = ZINC13598033
REMARK  4 active torsions:
REMARK  status: ('A' for Active; 'I' for Inactive)
REMARK    1  A    between atoms: C_5  and  C_7
REMARK    2  A    between atoms: C_10  and  C_12
REMARK    3  A    between atoms: N_13  and  N_14
REMARK    4  A    between atoms: C_15  and  C_17
REMARK                            x       y       z     vdW  Elec       q    Type
REMARK                         _______ _______ _______ _____ _____    ______ ____
ROOT
ATOM      1  C   UNL     1      -1.238   2.189   0.182  0.00  0.00    +0.176 C 
ATOM      2  N   UNL     1      -2.393   1.645  -0.075  0.00  0.00    -0.185 NA
ENDROOT
BRANCH   1   6
ATOM      3  C   UNL     1       1.053  -0.395   1.255  0.00  0.00    +0.137 A 
ATOM      4  C   UNL     1       1.918   0.658   1.211  0.00  0.00    +0.050 A 
ATOM      5  C   UNL     1       1.181   1.779   0.804  0.00  0.00    +0.051 A 
ATOM      6  C   UNL     1      -0.116   1.355   0.616  0.00  0.00    +0.148 A 
ATOM      7  O   UNL     1      -0.171   0.037   0.895  0.00  0.00    -0.454 OA
BRANCH   3  12
ATOM      8  C   UNL     1       2.812  -3.708   1.405  0.00  0.00    +0.001 A 
ATOM      9  C   UNL     1       2.051  -4.375   2.349  0.00  0.00    +0.001 A 
ATOM     10  C   UNL     1       0.966  -3.751   2.939  0.00  0.00    +0.021 A 
ATOM     11  C   UNL     1       0.635  -2.457   2.588  0.00  0.00    +0.052 A 
ATOM     12  C   UNL     1       1.400  -1.778   1.636  0.00  0.00    +0.036 A 
ATOM     13  C   UNL     1       2.491  -2.417   1.041  0.00  0.00    +0.013 A 
ATOM     14 CL   UNL     1      -0.727  -1.677   3.329  0.00  0.00    -0.083 Cl
ENDBRANCH   3  12
ENDBRANCH   1   6
BRANCH   2  15
ATOM     15  N   UNL     1      -2.523   0.250  -0.082  0.00  0.00    -0.204 N 
ATOM     16  C   UNL     1      -3.732  -0.312  -0.281  0.00  0.00    +0.276 C 
ATOM     17  O   UNL     1      -4.706   0.389  -0.454  0.00  0.00    -0.270 OA
ATOM     18  H   UNL     1      -1.744  -0.311   0.057  0.00  0.00    +0.177 HD
BRANCH  16  19
ATOM     19  C   UNL     1      -3.873  -1.813  -0.288  0.00  0.00    +0.297 C 
ATOM     20  C   UNL     1      -3.127  -2.397  -1.496  0.00  0.00    +0.283 C 
ATOM     21  O   UNL     1      -3.292  -3.819  -1.479  0.00  0.00    -0.484 OA
ATOM     22  C   UNL     1      -4.552  -4.286  -1.259  0.00  0.00    +0.162 A 
ATOM     23  C   UNL     1      -4.856  -5.601  -1.578  0.00  0.00    +0.049 A 
ATOM     24  C   UNL     1      -6.128  -6.091  -1.355  0.00  0.00    +0.004 A 
ATOM     25  C   UNL     1      -7.102  -5.272  -0.813  0.00  0.00    +0.004 A 
ATOM     26  C   UNL     1      -6.806  -3.961  -0.494  0.00  0.00    +0.049 A 
ATOM     27  C   UNL     1      -5.531  -3.462  -0.717  0.00  0.00    +0.163 A 
ATOM     28  O   UNL     1      -5.255  -2.167  -0.400  0.00  0.00    -0.472 OA
ENDBRANCH  16  19
ENDBRANCH   2  15
TORSDOF 4
