REMARK  Name = ZINC20437314
REMARK  7 active torsions:
REMARK  status: ('A' for Active; 'I' for Inactive)
REMARK    1  A    between atoms: C_3  and  C_8
REMARK    2  A    between atoms: C_8  and  O_9
REMARK    3  A    between atoms: O_9  and  C_10
REMARK    4  A    between atoms: C_13  and  C_16
REMARK    5  A    between atoms: C_19  and  C_30
REMARK    6  A    between atoms: C_25  and  N_29
REMARK    7  A    between atoms: C_26  and  C_27
REMARK                            x       y       z     vdW  Elec       q    Type
REMARK                         _______ _______ _______ _____ _____    ______ ____
ROOT
ATOM      1  C   UNL     1       8.997   5.350   1.991  0.00  0.00    +0.102 C 
ATOM      2  C   UNL     1       9.882   4.514   2.880  0.00  0.00    +0.054 A 
ATOM      3  C   UNL     1      10.559   3.327   2.590  0.00  0.00    +0.100 A 
ATOM      4  N   UNL     1      11.209   2.954   3.676  0.00  0.00    -0.171 NA
ATOM      5  N   UNL     1      10.961   3.897   4.685  0.00  0.00    -0.246 N 
ATOM      6  H   UNL     1      11.313   3.871   5.588  0.00  0.00    +0.192 HD
ATOM      7  C   UNL     1      10.146   4.845   4.178  0.00  0.00    +0.223 A 
ATOM      8  O   UNL     1       9.636   5.954   4.769  0.00  0.00    -0.423 OA
ATOM      9  C   UNL     1       9.073   6.885   3.972  0.00  0.00    +0.200 C 
ATOM     10  C   UNL     1       8.754   6.672   2.675  0.00  0.00    +0.098 C 
ENDROOT
BRANCH   3  11
ATOM     11  C   UNL     1      10.549   2.611   1.289  0.00  0.00    +0.003 A 
ATOM     12  C   UNL     1      10.435   1.223   1.256  0.00  0.00    +0.011 A 
ATOM     13  C   UNL     1      10.426   0.562   0.045  0.00  0.00    +0.020 A 
ATOM     14  C   UNL     1      10.530   1.277  -1.137  0.00  0.00    +0.041 A 
ATOM     15  C   UNL     1      10.643   2.656  -1.109  0.00  0.00    +0.020 A 
ATOM     16  C   UNL     1      10.648   3.326   0.097  0.00  0.00    +0.011 A 
ATOM     17 CL   UNL     1      10.518   0.440  -2.658  0.00  0.00    -0.084 Cl
ENDBRANCH   3  11
BRANCH   1  21
ATOM     18  C   UNL     1       5.276   3.343   1.366  0.00  0.00    +0.121 A 
ATOM     19  C   UNL     1       6.050   3.727   0.280  0.00  0.00    +0.046 A 
ATOM     20  C   UNL     1       7.252   4.375   0.485  0.00  0.00    +0.008 A 
ATOM     21  C   UNL     1       7.685   4.642   1.770  0.00  0.00    -0.034 A 
ATOM     22  C   UNL     1       6.916   4.261   2.854  0.00  0.00    +0.008 A 
ATOM     23  C   UNL     1       5.710   3.617   2.655  0.00  0.00    +0.046 A 
BRANCH  18  24
ATOM     24  O   UNL     1       4.093   2.705   1.167  0.00  0.00    -0.487 OA
BRANCH  24  25
ATOM     25  C   UNL     1       3.709   2.456  -0.187  0.00  0.00    +0.264 C 
BRANCH  25  28
ATOM     26  C   UNL     1      -0.012   1.826  -0.278  0.00  0.00    +0.002 A 
ATOM     27  C   UNL     1       1.208   2.477  -0.256  0.00  0.00    +0.007 A 
ATOM     28  C   UNL     1       2.380   1.746  -0.211  0.00  0.00    -0.009 A 
ATOM     29  C   UNL     1       2.334   0.365  -0.187  0.00  0.00    +0.027 A 
ATOM     30  C   UNL     1       1.114  -0.286  -0.208  0.00  0.00    +0.041 A 
ATOM     31  C   UNL     1      -0.060   0.445  -0.254  0.00  0.00    +0.020 A 
ATOM     32 CL   UNL     1       1.055  -2.021  -0.179  0.00  0.00    -0.084 Cl
ENDBRANCH  25  28
ENDBRANCH  24  25
ENDBRANCH  18  24
ENDBRANCH   1  21
BRANCH   9  33
ATOM     33  N   UNL     1       8.809   8.121   4.508  0.00  0.00    -0.328 N 
ATOM     34  H   UNL     1       9.026   8.304   5.435  0.00  0.00    +0.145 HD
ATOM     35  H   UNL     1       8.404   8.811   3.959  0.00  0.00    +0.145 HD
ENDBRANCH   9  33
BRANCH  10  36
ATOM     36  C   UNL     1       8.164   7.739   1.924  0.00  0.00    +0.101 C 
ATOM     37  N   UNL     1       7.696   8.585   1.328  0.00  0.00    -0.191 NA
ENDBRANCH  10  36
TORSDOF 7
