REMARK  Name = ZINC39918990
REMARK  9 active torsions:
REMARK  status: ('A' for Active; 'I' for Inactive)
REMARK    1  A    between atoms: C_1  and  C_2
REMARK    2  A    between atoms: C_2  and  N_3
REMARK    3  A    between atoms: C_4  and  C_30
REMARK    4  A    between atoms: N_17  and  C_20
REMARK    5  A    between atoms: C_20  and  C_21
REMARK    6  A    between atoms: C_21  and  C_22
REMARK    7  A    between atoms: C_21  and  C_23
REMARK    8  A    between atoms: C_24  and  C_28
REMARK    9  A    between atoms: C_25  and  N_27
REMARK                            x       y       z     vdW  Elec       q    Type
REMARK                         _______ _______ _______ _____ _____    ______ ____
ROOT
ATOM      1  N   UNL     1      -1.456  -0.327   0.040  0.00  0.00    -0.312 N 
ATOM      2  C   UNL     1      -1.955  -0.840   1.195  0.00  0.00    +0.022 A 
ATOM      3  C   UNL     1      -3.136  -1.494   1.211  0.00  0.00    +0.068 A 
ATOM      4  C   UNL     1      -3.867  -1.650   0.015  0.00  0.00    +0.142 A 
ATOM      5  C   UNL     1      -3.354  -1.125  -1.153  0.00  0.00    +0.084 A 
ATOM      6  C   UNL     1      -2.128  -0.449  -1.120  0.00  0.00    +0.260 A 
ATOM      7  O   UNL     1      -1.665   0.026  -2.146  0.00  0.00    -0.267 OA
ATOM      8  C   UNL     1      -4.100  -1.273  -2.448  0.00  0.00    +0.147 C 
ATOM      9  C   UNL     1      -3.418  -2.258  -3.346  0.00  0.00    -0.001 A 
ATOM     10  C   UNL     1      -3.153  -3.602  -3.191  0.00  0.00    +0.007 A 
ATOM     11  C   UNL     1      -2.487  -4.237  -4.233  0.00  0.00    +0.000 A 
ATOM     12  C   UNL     1      -2.112  -3.551  -5.370  0.00  0.00    +0.002 A 
ATOM     13  C   UNL     1      -2.375  -2.200  -5.534  0.00  0.00    +0.024 A 
ATOM     14  C   UNL     1      -3.043  -1.550  -4.494  0.00  0.00    +0.041 A 
ATOM     15  N   UNL     1      -3.429  -0.226  -4.390  0.00  0.00    -0.270 N 
ATOM     16  C   UNL     1      -4.056   0.029  -3.223  0.00  0.00    +0.240 C 
ATOM     17  O   UNL     1      -4.501   1.098  -2.861  0.00  0.00    -0.274 OA
ATOM     18  C   UNL     1      -5.526  -1.671  -2.196  0.00  0.00    +0.110 C 
ATOM     19  C   UNL     1      -5.912  -2.157  -0.992  0.00  0.00    +0.199 C 
ATOM     20  O   UNL     1      -5.046  -2.305   0.025  0.00  0.00    -0.441 OA
ATOM     21  C   UNL     1      -1.178  -0.678   2.476  0.00  0.00    +0.064 C 
ENDROOT
BRANCH  19  22
ATOM     22  N   UNL     1      -7.226  -2.508  -0.805  0.00  0.00    -0.328 N 
ATOM     23  H   UNL     1      -7.863  -2.406  -1.530  0.00  0.00    +0.145 HD
ATOM     24  H   UNL     1      -7.518  -2.857   0.051  0.00  0.00    +0.145 HD
ENDBRANCH  19  22
BRANCH   1  26
ATOM     25  C   UNL     1       0.957  -0.616  -0.232  0.00  0.00    +0.027 C 
ATOM     26  C   UNL     1      -0.171   0.376   0.059  0.00  0.00    +0.122 C 
ENDBRANCH   1  26
BRANCH  18  27
ATOM     27  C   UNL     1      -6.491  -1.535  -3.245  0.00  0.00    +0.102 C 
ATOM     28  N   UNL     1      -7.258  -1.428  -4.077  0.00  0.00    -0.191 NA
ENDBRANCH  18  27
BRANCH  15  29
ATOM     29  C   UNL     1      -3.186   0.782  -5.425  0.00  0.00    +0.116 C 
BRANCH  29  30
ATOM     30  C   UNL     1      -4.368   0.811  -6.396  0.00  0.00    +0.001 C 
ATOM     31  C   UNL     1      -5.622   1.284  -5.658  0.00  0.00    +0.009 C 
ATOM     32  C   UNL     1      -4.060   1.773  -7.545  0.00  0.00    +0.009 C 
ENDBRANCH  29  30
ENDBRANCH  15  29
TORSDOF 5
