REMARK  Name = ZINC43219040
REMARK  7 active torsions:
REMARK  status: ('A' for Active; 'I' for Inactive)
REMARK    1  A    between atoms: C_1  and  C_2
REMARK    2  A    between atoms: C_2  and  C_3
REMARK    3  A    between atoms: C_2  and  C_4
REMARK    4  A    between atoms: C_2  and  N_5
REMARK    5  A    between atoms: C_10  and  C_27
REMARK    6  A    between atoms: C_13  and  C_18
REMARK    7  A    between atoms: C_13  and  C_24
REMARK                            x       y       z     vdW  Elec       q    Type
REMARK                         _______ _______ _______ _____ _____    ______ ____
ROOT
ATOM      1  N   UNL     1       0.470  -0.840  -1.391  0.00  0.00    -0.236 N 
ATOM      2  C   UNL     1       0.026  -1.636  -2.418  0.00  0.00    +0.225 C 
ATOM      3  O   UNL     1      -1.112  -1.983  -2.648  0.00  0.00    -0.275 OA
ATOM      4  C   UNL     1       1.218  -1.967  -3.164  0.00  0.00    +0.077 C 
ATOM      5  C   UNL     1       1.618  -2.467  -4.487  0.00  0.00    -0.026 C 
ATOM      6  N   UNL     1       3.065  -2.087  -4.604  0.00  0.00    +0.398 N 
ATOM      7  C   UNL     1       3.417  -1.272  -3.396  0.00  0.00    +0.074 C 
ATOM      8  C   UNL     1       2.059  -0.635  -3.030  0.00  0.00    +0.090 C 
ATOM      9  C   UNL     1       1.751  -0.403  -1.577  0.00  0.00    +0.226 C 
ATOM     10  O   UNL     1       2.490   0.072  -0.741  0.00  0.00    -0.275 OA
ATOM     11  H   UNL     1       3.636  -2.918  -4.635  0.00  0.00    -0.083 HD
ATOM     12  H   UNL     1       3.208  -1.540  -5.440  0.00  0.00    -0.083 HD
ENDROOT
BRANCH   5  13
ATOM     13  C   UNL     1       0.806  -1.802  -5.569  0.00  0.00    -0.057 A 
ATOM     14  C   UNL     1       1.143  -0.533  -6.003  0.00  0.00    +0.006 A 
ATOM     15  C   UNL     1       0.401   0.080  -6.994  0.00  0.00    +0.049 A 
ATOM     16  C   UNL     1      -0.685  -0.576  -7.555  0.00  0.00    +0.162 A 
ATOM     17  C   UNL     1      -1.022  -1.852  -7.121  0.00  0.00    +0.162 A 
ATOM     18  C   UNL     1      -0.270  -2.463  -6.129  0.00  0.00    +0.051 A 
ATOM     19  O   UNL     1      -2.078  -2.516  -7.664  0.00  0.00    -0.485 OA
ATOM     20  C   UNL     1      -3.027  -1.730  -8.393  0.00  0.00    +0.270 C 
ATOM     21  C   UNL     1      -2.255  -0.790  -9.328  0.00  0.00    +0.270 C 
ATOM     22  O   UNL     1      -1.409   0.043  -8.527  0.00  0.00    -0.485 OA
ENDBRANCH   5  13
BRANCH   7  23
ATOM     23  C   UNL     1       3.936  -2.153  -2.290  0.00  0.00    -0.047 A 
ATOM     24  C   UNL     1       3.799  -3.526  -2.378  0.00  0.00    +0.003 A 
ATOM     25  C   UNL     1       4.276  -4.335  -1.363  0.00  0.00    +0.000 A 
ATOM     26  C   UNL     1       4.890  -3.771  -0.261  0.00  0.00    +0.000 A 
ATOM     27  C   UNL     1       5.028  -2.398  -0.173  0.00  0.00    +0.000 A 
ATOM     28  C   UNL     1       4.555  -1.590  -1.190  0.00  0.00    +0.003 A 
ENDBRANCH   7  23
BRANCH   1  30
ATOM     29  C   UNL     1      -0.513   1.027  -0.155  0.00  0.00    +0.031 C 
ATOM     30  C   UNL     1      -0.344  -0.492  -0.224  0.00  0.00    +0.036 C 
ATOM     31  C   UNL     1       0.348  -0.987   1.047  0.00  0.00    +0.031 C 
ATOM     32  C   UNL     1      -1.719  -1.153  -0.347  0.00  0.00    +0.031 C 
ENDBRANCH   1  30
BRANCH   7  33
ATOM     33  C   UNL     1       4.421  -0.204  -3.747  0.00  0.00    +0.350 C 
ATOM     34  O   UNL     1       4.848  -0.119  -4.885  0.00  0.00    -0.248 OA
ATOM     35  O   UNL     1       4.806   0.575  -2.892  0.00  0.00    -0.248 OA
ENDBRANCH   7  33
TORSDOF 4
