REMARK  Name = ZINC39671897
REMARK  5 active torsions:
REMARK  status: ('A' for Active; 'I' for Inactive)
REMARK    1  A    between atoms: C_6  and  C_10
REMARK    2  A    between atoms: C_10  and  N_11
REMARK    3  A    between atoms: C_12  and  C_14
REMARK    4  A    between atoms: C_25  and  C_27
REMARK    5  A    between atoms: C_33  and  C_35
REMARK                            x       y       z     vdW  Elec       q    Type
REMARK                         _______ _______ _______ _____ _____    ______ ____
ROOT
ATOM      1  C   UNL     1       4.615  -5.543   2.959  0.00  0.00    +0.100 C 
ATOM      2  C   UNL     1       3.234  -5.727   3.626  0.00  0.00    +0.121 C 
ATOM      3  N   UNL     1       2.905  -7.157   3.417  0.00  0.00    -0.299 N 
ATOM      4  C   UNL     1       4.193  -7.864   3.615  0.00  0.00    +0.115 C 
ATOM      5  C   UNL     1       5.243  -6.947   2.957  0.00  0.00    -0.004 C 
ATOM      6  C   UNL     1       5.517  -7.401   1.527  0.00  0.00    -0.010 C 
ATOM      7  C   UNL     1       6.193  -8.775   1.553  0.00  0.00    -0.082 C 
ATOM      8  N   UNL     1       7.448  -8.691   2.310  0.00  0.00    +0.379 N 
ATOM      9  C   UNL     1       7.168  -8.343   3.708  0.00  0.00    -0.082 C 
ATOM     10  C   UNL     1       6.533  -6.951   3.773  0.00  0.00    -0.010 C 
ATOM     11  C   UNL     1       1.706  -7.694   3.116  0.00  0.00    +0.236 C 
ATOM     12  O   UNL     1       1.596  -8.893   2.976  0.00  0.00    -0.274 OA
ATOM     13  H   UNL     1       7.921  -9.581   2.274  0.00  0.00    -0.086 HD
ATOM     14  H   UNL     1       8.038  -7.982   1.900  0.00  0.00    -0.086 HD
ENDROOT
BRANCH  11  15
ATOM     15  C   UNL     1       0.501  -6.803   2.953  0.00  0.00    +0.162 C 
ATOM     16  C   UNL     1      -0.070  -6.434   4.338  0.00  0.00    +0.033 C 
ATOM     17  C   UNL     1      -1.603  -6.465   4.102  0.00  0.00    +0.021 C 
ATOM     18  C   UNL     1      -1.738  -7.633   3.094  0.00  0.00    +0.109 C 
ATOM     19  N   UNL     1      -0.553  -7.518   2.219  0.00  0.00    -0.283 N 
ATOM     20  C   UNL     1      -0.454  -7.988   0.960  0.00  0.00    +0.320 C 
ATOM     21  O   UNL     1       0.574  -7.834   0.335  0.00  0.00    -0.266 OA
BRANCH  20  22
ATOM     22  C   UNL     1      -1.619  -8.705   0.329  0.00  0.00    +0.470 C 
ATOM     23  F   UNL     1      -1.279  -9.096  -0.970  0.00  0.00    -0.162 F 
ATOM     24  F   UNL     1      -1.937  -9.836   1.088  0.00  0.00    -0.162 F 
ATOM     25  F   UNL     1      -2.725  -7.848   0.284  0.00  0.00    -0.162 F 
ENDBRANCH  20  22
ENDBRANCH  11  15
BRANCH   1  27
ATOM     26  N   UNL     1       5.424  -4.290   0.986  0.00  0.00    -0.309 N 
ATOM     27  C   UNL     1       4.454  -5.038   1.549  0.00  0.00    +0.219 C 
ATOM     28  O   UNL     1       3.452  -5.305   0.920  0.00  0.00    -0.275 OA
ATOM     29  H   UNL     1       6.225  -4.077   1.489  0.00  0.00    +0.149 HD
BRANCH  26  30
ATOM     30  C   UNL     1       5.267  -3.799  -0.386  0.00  0.00    +0.161 C 
BRANCH  30  36
ATOM     31  C   UNL     1       9.749  -0.005  -1.592  0.00  0.00    +0.005 A 
ATOM     32  C   UNL     1      10.318  -1.142  -2.189  0.00  0.00    +0.018 A 
ATOM     33  C   UNL     1       9.656  -2.319  -2.179  0.00  0.00    +0.092 A 
ATOM     34  N   UNL     1       8.428  -2.420  -1.591  0.00  0.00    -0.306 N 
ATOM     35  C   UNL     1       7.558  -3.465  -1.441  0.00  0.00    +0.117 A 
ATOM     36  C   UNL     1       6.482  -2.995  -0.773  0.00  0.00    +0.077 A 
ATOM     37  N   UNL     1       6.673  -1.700  -0.514  0.00  0.00    -0.231 NA
ATOM     38  C   UNL     1       7.848  -1.328  -1.001  0.00  0.00    +0.138 A 
ATOM     39  C   UNL     1       8.527  -0.092  -1.003  0.00  0.00    +0.047 A 
ENDBRANCH  30  36
ENDBRANCH  26  30
ENDBRANCH   1  27
TORSDOF 5
