REMARK  Name = ZINC63479608
REMARK  4 active torsions:
REMARK  status: ('A' for Active; 'I' for Inactive)
REMARK    1  A    between atoms: C_1  and  C_2
REMARK    2  A    between atoms: C_2  and  N_3
REMARK    3  A    between atoms: C_16  and  C_18
REMARK    4  A    between atoms: N_24  and  C_27
REMARK                            x       y       z     vdW  Elec       q    Type
REMARK                         _______ _______ _______ _____ _____    ______ ____
ROOT
ATOM      1  N   UNL     1       1.409  -1.394  -1.483  0.00  0.00    +0.386 N 
ATOM      2  C   UNL     1       0.603  -0.482  -2.299  0.00  0.00    -0.073 C 
ATOM      3  C   UNL     1       0.919  -0.680  -3.793  0.00  0.00    +0.015 C 
ATOM      4  C   UNL     1       0.799  -2.162  -4.052  0.00  0.00    -0.041 C 
ATOM      5  C   UNL     1       0.165  -2.860  -4.982  0.00  0.00    -0.001 A 
ATOM      6  C   UNL     1      -0.550  -2.450  -6.202  0.00  0.00    +0.010 A 
ATOM      7  C   UNL     1      -1.119  -3.448  -6.928  0.00  0.00    +0.001 A 
ATOM      8  C   UNL     1      -1.050  -4.797  -6.568  0.00  0.00    +0.002 A 
ATOM      9  C   UNL     1      -0.405  -5.265  -5.470  0.00  0.00    +0.026 A 
ATOM     10  C   UNL     1       0.243  -4.311  -4.632  0.00  0.00    +0.043 A 
ATOM     11  N   UNL     1       0.948  -4.482  -3.552  0.00  0.00    -0.379 N 
ATOM     12  C   UNL     1       1.464  -3.182  -3.132  0.00  0.00    +0.097 C 
ATOM     13  C   UNL     1       1.048  -2.802  -1.710  0.00  0.00    -0.000 C 
ATOM     14  H   UNL     1       1.104  -5.327  -3.103  0.00  0.00    +0.160 HD
ATOM     15  H   UNL     1       2.383  -1.264  -1.712  0.00  0.00    -0.081 HD
ENDROOT
BRANCH  13  16
ATOM     16  C   UNL     1      -0.440  -2.977  -1.552  0.00  0.00    +0.071 A 
ATOM     17  H   UNL     1      -3.273  -2.074  -2.836  0.00  0.00    +0.173 HD
ATOM     18  C   UNL     1      -1.304  -2.347  -2.398  0.00  0.00    +0.259 A 
ATOM     19  N   UNL     1      -2.655  -2.521  -2.237  0.00  0.00    -0.274 N 
ATOM     20  C   UNL     1      -3.128  -3.306  -1.252  0.00  0.00    +0.337 A 
ATOM     21  O   UNL     1      -4.329  -3.449  -1.124  0.00  0.00    -0.246 OA
ATOM     22  N   UNL     1      -2.292  -3.937  -0.407  0.00  0.00    -0.229 N 
ATOM     23  C   UNL     1      -0.958  -3.797  -0.534  0.00  0.00    +0.266 A 
ATOM     24  O   UNL     1      -0.205  -4.375   0.231  0.00  0.00    -0.267 OA
ATOM     25  O   UNL     1      -0.833  -1.557  -3.387  0.00  0.00    -0.267 OA
BRANCH  22  26
ATOM     26  C   UNL     1      -2.813  -4.750   0.609  0.00  0.00    +0.054 A 
ATOM     27  C   UNL     1      -3.105  -4.206   1.853  0.00  0.00    +0.028 A 
ATOM     28  C   UNL     1      -3.618  -5.008   2.853  0.00  0.00    +0.022 A 
ATOM     29  C   UNL     1      -3.842  -6.353   2.616  0.00  0.00    +0.041 A 
ATOM     30  C   UNL     1      -3.551  -6.898   1.377  0.00  0.00    +0.022 A 
ATOM     31  C   UNL     1      -3.043  -6.098   0.372  0.00  0.00    +0.028 A 
ATOM     32 CL   UNL     1      -4.487  -7.360   3.875  0.00  0.00    -0.084 Cl
ENDBRANCH  22  26
ENDBRANCH  13  16
BRANCH   1  34
ATOM     33  C   UNL     1       1.693   0.352   0.211  0.00  0.00    -0.017 C 
ATOM     34  C   UNL     1       1.205  -1.071  -0.064  0.00  0.00    -0.081 C 
ENDBRANCH   1  34
TORSDOF 3
