REMARK  Name = ZINC32911245
REMARK  17 active torsions:
REMARK  status: ('A' for Active; 'I' for Inactive)
REMARK    1  A    between atoms: C_1  and  C_2
REMARK    2  A    between atoms: C_6  and  C_31
REMARK    3  A    between atoms: C_7  and  N_8
REMARK    4  A    between atoms: C_9  and  C_11
REMARK    5  A    between atoms: C_11  and  O_12
REMARK    6  A    between atoms: O_12  and  C_13
REMARK    7  A    between atoms: C_13  and  C_15
REMARK    8  A    between atoms: C_16  and  C_27
REMARK    9  A    between atoms: C_17  and  C_26
REMARK   10  A    between atoms: C_19  and  C_25
REMARK   11  A    between atoms: C_20  and  C_21
REMARK   12  A    between atoms: C_21  and  O_23
REMARK   13  A    between atoms: O_23  and  C_24
REMARK   14  A    between atoms: C_27  and  O_29
REMARK   15  A    between atoms: O_29  and  C_30
REMARK   16  A    between atoms: C_31  and  C_32
REMARK   17  A    between atoms: C_31  and  C_33
REMARK                            x       y       z     vdW  Elec       q    Type
REMARK                         _______ _______ _______ _____ _____    ______ ____
ROOT
ATOM      1  C   UNL     1      -0.005  -0.640  -1.833  0.00  0.00    +0.320 C 
ATOM      2  O   UNL     1       0.886  -1.070  -1.139  0.00  0.00    -0.250 OA
ENDROOT
BRANCH   1   3
ATOM      3  C   UNL     1       0.209   0.613  -2.643  0.00  0.00    +0.174 C 
ATOM      4  C   UNL     1      -0.007   0.304  -4.097  0.00  0.00    +0.072 C 
ATOM      5  C   UNL     1       1.026   0.175  -4.948  0.00  0.00    +0.016 C 
ATOM      6  N   UNL     1       2.314   0.329  -4.513  0.00  0.00    -0.321 N 
ATOM      7  C   UNL     1       2.572   0.959  -3.326  0.00  0.00    +0.016 C 
ATOM      8  C   UNL     1       1.603   1.121  -2.409  0.00  0.00    +0.072 C 
ATOM      9  C   UNL     1       3.958   1.478  -3.045  0.00  0.00    +0.061 C 
ATOM     10  C   UNL     1       0.762  -0.143  -6.397  0.00  0.00    +0.061 C 
ATOM     11  H   UNL     1       3.148  -0.054  -5.119  0.00  0.00    +0.152 HD
BRANCH   8  12
ATOM     12  C   UNL     1       1.903   1.784  -1.196  0.00  0.00    +0.337 C 
ATOM     13  O   UNL     1       1.504   2.917  -1.007  0.00  0.00    -0.245 OA
BRANCH  12  14
ATOM     14  O   UNL     1       2.633   1.159  -0.248  0.00  0.00    -0.465 OA
ATOM     15  C   UNL     1       2.898   1.888   0.952  0.00  0.00    +0.280 C 
ENDBRANCH  12  14
ENDBRANCH   8  12
BRANCH   4  16
ATOM     16  C   UNL     1      -1.326   0.146  -4.582  0.00  0.00    +0.337 C 
ATOM     17  O   UNL     1      -1.516  -0.104  -5.758  0.00  0.00    -0.245 OA
BRANCH  16  18
ATOM     18  O   UNL     1      -2.374   0.273  -3.741  0.00  0.00    -0.465 OA
ATOM     19  C   UNL     1      -3.678   0.101  -4.299  0.00  0.00    +0.280 C 
ENDBRANCH  16  18
ENDBRANCH   4  16
ENDBRANCH   1   3
BRANCH   1  20
ATOM     20  O   UNL     1      -1.185  -1.277  -1.882  0.00  0.00    -0.455 OA
BRANCH  20  21
ATOM     21  C   UNL     1      -1.321  -2.477  -1.075  0.00  0.00    +0.328 C 
BRANCH  21  23
ATOM     22  N   UNL     1      -3.057  -4.174  -0.601  0.00  0.00    -0.282 N 
ATOM     23  C   UNL     1      -2.702  -3.051  -1.257  0.00  0.00    +0.255 C 
ATOM     24  O   UNL     1      -3.495  -2.503  -1.993  0.00  0.00    -0.272 OA
ATOM     25  H   UNL     1      -2.315  -4.715   0.005  0.00  0.00    +0.155 HD
BRANCH  22  32
ATOM     26  C   UNL     1      -5.185  -2.369  -0.043  0.00  0.00    +0.045 C 
ATOM     27  C   UNL     1      -5.437  -3.805  -0.427  0.00  0.00    -0.029 A 
ATOM     28  C   UNL     1      -6.731  -4.278  -0.521  0.00  0.00    +0.005 A 
ATOM     29  C   UNL     1      -6.963  -5.596  -0.868  0.00  0.00    +0.001 A 
ATOM     30  C   UNL     1      -5.901  -6.444  -1.126  0.00  0.00    +0.006 A 
ATOM     31  C   UNL     1      -4.605  -5.976  -1.038  0.00  0.00    -0.023 A 
ATOM     32  C   UNL     1      -4.369  -4.652  -0.691  0.00  0.00    +0.040 A 
BRANCH  31  33
ATOM     33  C   UNL     1      -3.449  -6.900  -1.320  0.00  0.00    +0.015 C 
ATOM     34  C   UNL     1      -3.483  -8.074  -0.340  0.00  0.00    +0.012 C 
ATOM     35  C   UNL     1      -3.555  -7.428  -2.752  0.00  0.00    +0.012 C 
ENDBRANCH  31  33
ENDBRANCH  22  32
ENDBRANCH  21  23
ENDBRANCH  20  21
ENDBRANCH   1  20
TORSDOF 10
