REMARK  Name = ZINC15050857
REMARK  4 active torsions:
REMARK  status: ('A' for Active; 'I' for Inactive)
REMARK    1  A    between atoms: C_4  and  C_7
REMARK    2  A    between atoms: N_11  and  C_15
REMARK    3  A    between atoms: N_20  and  C_23
REMARK    4  A    between atoms: C_26  and  C_29
REMARK                            x       y       z     vdW  Elec       q    Type
REMARK                         _______ _______ _______ _____ _____    ______ ____
ROOT
ATOM      1  C   UNL     1       6.149  -5.335   0.506  0.00  0.00    +0.178 C 
ATOM      2  C   UNL     1       5.106  -5.907   1.487  0.00  0.00    +0.129 C 
ATOM      3  C   UNL     1       4.762  -7.255   0.894  0.00  0.00    +0.228 C 
ATOM      4  O   UNL     1       3.969  -8.045   1.358  0.00  0.00    -0.275 OA
ATOM      5  N   UNL     1       5.473  -7.438  -0.226  0.00  0.00    -0.209 N 
ATOM      6  C   UNL     1       6.290  -6.420  -0.540  0.00  0.00    +0.248 C 
ATOM      7  O   UNL     1       7.022  -6.375  -1.505  0.00  0.00    -0.273 OA
ENDROOT
BRANCH   1  12
ATOM      8  C   UNL     1       6.321  -0.508  -0.625  0.00  0.00    +0.028 C 
ATOM      9  C   UNL     1       5.823  -1.769  -0.600  0.00  0.00    +0.077 C 
ATOM     10  C   UNL     1       6.370  -2.986   0.036  0.00  0.00    +0.259 C 
ATOM     11  O   UNL     1       7.417  -2.969   0.655  0.00  0.00    -0.269 OA
ATOM     12  N   UNL     1       5.662  -4.095  -0.101  0.00  0.00    -0.243 N 
ATOM     13  C   UNL     1       4.501  -4.109  -0.788  0.00  0.00    +0.121 C 
ATOM     14  S   UNL     1       3.452  -5.431  -1.074  0.00  0.00    -0.027 S 
ATOM     15  S   UNL     1       4.319  -2.414  -1.320  0.00  0.00    -0.061 S 
BRANCH   8  19
ATOM     16  C   UNL     1       4.501   2.444  -3.065  0.00  0.00    +0.000 A 
ATOM     17  C   UNL     1       5.486   2.808  -2.163  0.00  0.00    +0.001 A 
ATOM     18  C   UNL     1       6.082   1.855  -1.366  0.00  0.00    +0.008 A 
ATOM     19  C   UNL     1       5.690   0.516  -1.470  0.00  0.00    -0.024 A 
ATOM     20  C   UNL     1       4.693   0.156  -2.384  0.00  0.00    +0.008 A 
ATOM     21  C   UNL     1       4.106   1.122  -3.174  0.00  0.00    +0.001 A 
ENDBRANCH   8  19
ENDBRANCH   1  12
BRANCH   5  22
ATOM     22  C   UNL     1       5.374  -8.595  -1.004  0.00  0.00    +0.044 A 
ATOM     23  C   UNL     1       6.237  -9.661  -0.774  0.00  0.00    +0.025 A 
ATOM     24  C   UNL     1       6.144 -10.802  -1.538  0.00  0.00    +0.017 A 
ATOM     25  C   UNL     1       5.179 -10.888  -2.547  0.00  0.00    +0.063 A 
ATOM     26  C   UNL     1       4.313  -9.814  -2.775  0.00  0.00    +0.017 A 
ATOM     27  C   UNL     1       4.410  -8.678  -2.003  0.00  0.00    +0.025 A 
BRANCH  25  28
ATOM     28  C   UNL     1       5.076 -12.107  -3.367  0.00  0.00    +0.387 C 
ATOM     29  O   UNL     1       5.834 -13.046  -3.166  0.00  0.00    -0.241 OA
ATOM     30  O   UNL     1       4.231 -12.181  -4.250  0.00  0.00    -0.241 OA
ENDBRANCH  25  28
ENDBRANCH   5  22
TORSDOF 4
