REMARK  Name = ZINC15769351
REMARK  4 active torsions:
REMARK  status: ('A' for Active; 'I' for Inactive)
REMARK    1  A    between atoms: C_6  and  C_7
REMARK    2  A    between atoms: C_9  and  C_23
REMARK    3  A    between atoms: C_18  and  C_20
REMARK    4  A    between atoms: C_23  and  C_25
REMARK                            x       y       z     vdW  Elec       q    Type
REMARK                         _______ _______ _______ _____ _____    ______ ____
ROOT
ATOM      1  C   UNL     1      -1.293  -0.775   0.011  0.00  0.00    +0.061 C 
ATOM      2  C   UNL     1      -1.302  -1.834   1.149  0.00  0.00    +0.094 C 
ATOM      3  C   UNL     1      -2.315  -2.865   0.622  0.00  0.00    +0.108 C 
ATOM      4  C   UNL     1      -1.944  -4.262   1.052  0.00  0.00    -0.004 C 
ATOM      5  C   UNL     1      -2.171  -5.274   0.212  0.00  0.00    -0.001 C 
ATOM      6  C   UNL     1      -2.773  -5.058  -1.109  0.00  0.00    +0.015 C 
ATOM      7  C   UNL     1      -2.775  -3.816  -1.646  0.00  0.00    +0.071 C 
ATOM      8  N   UNL     1      -2.228  -2.813  -0.853  0.00  0.00    -0.317 N 
ATOM      9  C   UNL     1      -1.418  -1.662  -1.254  0.00  0.00    +0.167 C 
ENDROOT
BRANCH   1  15
ATOM     10  C   UNL     1      -0.001   1.348  -0.288  0.00  0.00    +0.005 A 
ATOM     11  C   UNL     1       1.187   2.055  -0.295  0.00  0.00    +0.020 A 
ATOM     12  C   UNL     1       2.378   1.411  -0.013  0.00  0.00    +0.041 A 
ATOM     13  C   UNL     1       2.380   0.058   0.277  0.00  0.00    +0.020 A 
ATOM     14  C   UNL     1       1.192  -0.649   0.284  0.00  0.00    +0.005 A 
ATOM     15  C   UNL     1       0.002  -0.004   0.002  0.00  0.00    -0.041 A 
ATOM     16 CL   UNL     1       3.869   2.299  -0.023  0.00  0.00    -0.084 Cl
ENDBRANCH   1  15
BRANCH   9  17
ATOM     17  C   UNL     1      -0.054  -2.119  -1.705  0.00  0.00    +0.232 C 
ATOM     18  O   UNL     1       0.335  -3.233  -1.428  0.00  0.00    -0.274 OA
ATOM     19  N   UNL     1       0.732  -1.288  -2.418  0.00  0.00    -0.328 N 
ATOM     20  H   UNL     1       0.421  -0.397  -2.640  0.00  0.00    +0.145 HD
ATOM     21  H   UNL     1       1.610  -1.581  -2.709  0.00  0.00    +0.145 HD
ENDBRANCH   9  17
BRANCH   2  22
ATOM     22  C   UNL     1      -1.775  -1.227   2.445  0.00  0.00    +0.169 C 
ATOM     23  O   UNL     1      -2.565  -0.306   2.430  0.00  0.00    -0.292 OA
BRANCH  22  24
ATOM     24  C   UNL     1      -1.280  -1.751   3.727  0.00  0.00    +0.018 A 
ATOM     25  C   UNL     1      -0.365  -2.809   3.747  0.00  0.00    +0.013 A 
ATOM     26  C   UNL     1       0.094  -3.295   4.952  0.00  0.00    +0.020 A 
ATOM     27  C   UNL     1      -0.348  -2.738   6.141  0.00  0.00    +0.041 A 
ATOM     28  C   UNL     1      -1.254  -1.690   6.129  0.00  0.00    +0.020 A 
ATOM     29  C   UNL     1      -1.718  -1.190   4.931  0.00  0.00    +0.013 A 
ATOM     30 CL   UNL     1       0.236  -3.357   7.655  0.00  0.00    -0.084 Cl
ENDBRANCH  22  24
ENDBRANCH   2  22
TORSDOF 4
