REMARK  Name = ZINC13100068
REMARK  10 active torsions:
REMARK  status: ('A' for Active; 'I' for Inactive)
REMARK    1  A    between atoms: C_1  and  C_2
REMARK    2  A    between atoms: C_3  and  C_8
REMARK    3  A    between atoms: C_4  and  C_7
REMARK    4  A    between atoms: C_8  and  O_9
REMARK    5  A    between atoms: O_9  and  C_10
REMARK    6  A    between atoms: C_13  and  C_16
REMARK    7  A    between atoms: C_16  and  C_17
REMARK    8  A    between atoms: N_19  and  N_20
REMARK    9  A    between atoms: C_23  and  C_27
REMARK   10  A    between atoms: C_23  and  C_28
REMARK                            x       y       z     vdW  Elec       q    Type
REMARK                         _______ _______ _______ _____ _____    ______ ____
ROOT
ATOM      1  C   UNL     1      -5.415  -6.152  -2.131  0.00  0.00    +0.234 C 
ATOM      2  O   UNL     1      -4.228  -6.382  -2.040  0.00  0.00    -0.274 OA
ATOM      3  N   UNL     1      -6.287  -7.166  -2.301  0.00  0.00    -0.223 N 
ATOM      4  H   UNL     1      -7.236  -6.982  -2.374  0.00  0.00    +0.174 HD
ENDROOT
BRANCH   3   5
ATOM      5  N   UNL     1      -5.821  -8.485  -2.374  0.00  0.00    -0.137 N 
ATOM      6  C   UNL     1      -5.940  -9.386  -1.379  0.00  0.00    +0.267 C 
ATOM      7  O   UNL     1      -6.451  -9.214  -0.293  0.00  0.00    -0.271 OA
ATOM      8  C   UNL     1      -5.303 -10.659  -1.900  0.00  0.00    +0.137 C 
ATOM      9  N   UNL     1      -4.857 -10.293  -3.255  0.00  0.00    -0.280 N 
ATOM     10  C   UNL     1      -5.208  -9.008  -3.442  0.00  0.00    +0.327 C 
ATOM     11  O   UNL     1      -4.990  -8.390  -4.466  0.00  0.00    -0.251 OA
ATOM     12  C   UNL     1      -6.331 -11.791  -1.958  0.00  0.00    +0.047 C 
ATOM     13  H   UNL     1      -4.403 -10.868  -3.891  0.00  0.00    +0.152 HD
BRANCH   8  14
ATOM     14  C   UNL     1      -4.127 -11.053  -1.043  0.00  0.00    -0.015 A 
ATOM     15  C   UNL     1      -4.109 -10.724   0.299  0.00  0.00    +0.006 A 
ATOM     16  C   UNL     1      -3.033 -11.089   1.086  0.00  0.00    +0.000 A 
ATOM     17  C   UNL     1      -1.970 -11.774   0.528  0.00  0.00    +0.000 A 
ATOM     18  C   UNL     1      -1.985 -12.098  -0.816  0.00  0.00    +0.000 A 
ATOM     19  C   UNL     1      -3.064 -11.737  -1.601  0.00  0.00    +0.006 A 
ENDBRANCH   8  14
ENDBRANCH   3   5
BRANCH   1  20
ATOM     20  C   UNL     1      -5.916  -4.733  -2.052  0.00  0.00    +0.132 C 
BRANCH  20  24
ATOM     21  C   UNL     1      -2.609  -2.082  -1.510  0.00  0.00    +0.121 A 
ATOM     22  C   UNL     1      -3.254  -2.623  -0.407  0.00  0.00    +0.046 A 
ATOM     23  C   UNL     1      -4.327  -3.475  -0.585  0.00  0.00    +0.007 A 
ATOM     24  C   UNL     1      -4.750  -3.798  -1.861  0.00  0.00    -0.038 A 
ATOM     25  C   UNL     1      -4.105  -3.265  -2.962  0.00  0.00    +0.007 A 
ATOM     26  C   UNL     1      -3.035  -2.408  -2.789  0.00  0.00    +0.046 A 
BRANCH  21  27
ATOM     27  O   UNL     1      -1.557  -1.239  -1.337  0.00  0.00    -0.487 OA
BRANCH  27  28
ATOM     28  C   UNL     1      -1.173  -0.948   0.008  0.00  0.00    +0.269 C 
BRANCH  28  31
ATOM     29  C   UNL     1       1.982  -1.708  -0.027  0.00  0.00    +0.069 C 
ATOM     30  C   UNL     1       1.378  -0.327  -0.013  0.00  0.00    +0.087 A 
ATOM     31  C   UNL     1       0.002  -0.004   0.002  0.00  0.00    +0.054 A 
ATOM     32  C   UNL     1      -0.016   1.350   0.009  0.00  0.00    +0.141 A 
ATOM     33  O   UNL     1       1.264   1.747  -0.001  0.00  0.00    -0.359 OA
ATOM     34  N   UNL     1       2.022   0.805  -0.013  0.00  0.00    -0.083 NA
ATOM     35  C   UNL     1      -1.236   2.236   0.020  0.00  0.00    +0.089 C 
ENDBRANCH  28  31
ENDBRANCH  27  28
ENDBRANCH  21  27
ENDBRANCH  20  24
ENDBRANCH   1  20
TORSDOF 7
