REMARK  Name = ZINC39662598
REMARK  7 active torsions:
REMARK  status: ('A' for Active; 'I' for Inactive)
REMARK    1  A    between atoms: C_1  and  C_2
REMARK    2  A    between atoms: C_5  and  C_12
REMARK    3  A    between atoms: N_9  and  C_11
REMARK    4  A    between atoms: C_16  and  C_25
REMARK    5  A    between atoms: N_27  and  C_28
REMARK    6  A    between atoms: C_28  and  C_30
REMARK    7  A    between atoms: C_28  and  C_32
REMARK                            x       y       z     vdW  Elec       q    Type
REMARK                         _______ _______ _______ _____ _____    ______ ____
ROOT
ATOM      1  C   UNL     1      -0.074  -1.608  -4.693  0.00  0.00    +0.250 C 
ATOM      2  O   UNL     1      -0.116  -0.470  -5.119  0.00  0.00    -0.270 OA
ATOM      3  N   UNL     1       0.089  -2.641  -5.543  0.00  0.00    -0.296 N 
ATOM      4  C   UNL     1       0.059  -4.089  -5.230  0.00  0.00    +0.121 C 
ATOM      5  C   UNL     1      -0.687  -4.731  -6.421  0.00  0.00    +0.100 C 
ATOM      6  C   UNL     1      -0.497  -3.740  -7.582  0.00  0.00    -0.004 C 
ATOM      7  C   UNL     1       0.333  -2.585  -7.004  0.00  0.00    +0.115 C 
ATOM      8  C   UNL     1       0.252  -4.409  -8.730  0.00  0.00    -0.010 C 
ATOM      9  C   UNL     1       0.377  -3.422  -9.895  0.00  0.00    -0.082 C 
ATOM     10  N   UNL     1      -0.961  -3.008 -10.334  0.00  0.00    +0.379 N 
ATOM     11  C   UNL     1      -1.640  -2.284  -9.252  0.00  0.00    -0.082 C 
ATOM     12  C   UNL     1      -1.851  -3.222  -8.060  0.00  0.00    -0.010 C 
ATOM     13  H   UNL     1      -0.878  -2.406 -11.139  0.00  0.00    -0.086 HD
ATOM     14  H   UNL     1      -1.501  -3.824 -10.581  0.00  0.00    -0.086 HD
ENDROOT
BRANCH   1  19
ATOM     15  C   UNL     1      -2.809   0.406  -0.050  0.00  0.00    +0.068 C 
ATOM     16  C   UNL     1      -1.861  -0.764   0.023  0.00  0.00    +0.071 A 
ATOM     17  C   UNL     1      -1.122  -1.346  -1.093  0.00  0.00    +0.060 A 
ATOM     18  C   UNL     1      -1.040  -1.062  -2.459  0.00  0.00    +0.067 A 
ATOM     19  C   UNL     1      -0.202  -1.859  -3.244  0.00  0.00    +0.074 A 
ATOM     20  C   UNL     1       0.516  -2.899  -2.637  0.00  0.00    +0.127 A 
ATOM     21  N   UNL     1       0.416  -3.138  -1.351  0.00  0.00    -0.235 NA
ATOM     22  C   UNL     1      -0.367  -2.411  -0.559  0.00  0.00    +0.160 A 
ATOM     23  N   UNL     1      -0.643  -2.452   0.778  0.00  0.00    -0.249 N 
ATOM     24  N   UNL     1      -1.549  -1.435   1.095  0.00  0.00    -0.174 NA
ATOM     25  C   UNL     1      -0.075  -3.408   1.732  0.00  0.00    +0.174 C 
ATOM     26 CL   UNL     1      -1.952   0.238  -3.160  0.00  0.00    -0.082 Cl
ENDBRANCH   1  19
BRANCH   5  27
ATOM     27  C   UNL     1      -0.078  -6.066  -6.763  0.00  0.00    +0.219 C 
ATOM     28  O   UNL     1       1.104  -6.260  -6.576  0.00  0.00    -0.275 OA
ATOM     29  N   UNL     1      -0.848  -7.046  -7.277  0.00  0.00    -0.296 N 
ATOM     30  H   UNL     1      -1.794  -6.891  -7.427  0.00  0.00    +0.150 HD
BRANCH  29  31
ATOM     31  C   UNL     1      -0.257  -8.344  -7.610  0.00  0.00    +0.207 C 
BRANCH  31  32
ATOM     32  C   UNL     1      -1.084  -9.014  -8.677  0.00  0.00    -0.013 A 
ATOM     33  C   UNL     1      -2.463  -8.934  -8.634  0.00  0.00    +0.006 A 
ATOM     34  C   UNL     1      -3.221  -9.549  -9.613  0.00  0.00    +0.000 A 
ATOM     35  C   UNL     1      -2.601 -10.244 -10.634  0.00  0.00    +0.000 A 
ATOM     36  C   UNL     1      -1.221 -10.323 -10.677  0.00  0.00    +0.000 A 
ATOM     37  C   UNL     1      -0.463  -9.705  -9.701  0.00  0.00    +0.006 A 
ENDBRANCH  31  32
BRANCH  31  38
ATOM     38  C   UNL     1      -0.227  -9.192  -6.407  0.00  0.00    +0.090 C 
ATOM     39  N   UNL     1      -0.203  -9.847  -5.479  0.00  0.00    -0.194 NA
ENDBRANCH  31  38
ENDBRANCH  29  31
ENDBRANCH   5  27
TORSDOF 5
