REMARK  Name = ZINC09308775
REMARK  8 active torsions:
REMARK  status: ('A' for Active; 'I' for Inactive)
REMARK    1  A    between atoms: C_4  and  C_7
REMARK    2  A    between atoms: C_7  and  O_8
REMARK    3  A    between atoms: O_8  and  C_9
REMARK    4  A    between atoms: C_12  and  C_15
REMARK    5  A    between atoms: C_22  and  N_35
REMARK    6  A    between atoms: C_23  and  C_33
REMARK    7  A    between atoms: C_24  and  C_26
REMARK    8  A    between atoms: C_30  and  O_32
REMARK                            x       y       z     vdW  Elec       q    Type
REMARK                         _______ _______ _______ _____ _____    ______ ____
ROOT
ATOM      1  C   UNL     1       8.927  -3.660   1.956  0.00  0.00    +0.074 A 
ATOM      2  C   UNL     1       9.231  -4.609   2.874  0.00  0.00    +0.054 A 
ATOM      3  C   UNL     1      10.570  -4.998   2.674  0.00  0.00    +0.245 A 
ATOM      4  N   UNL     1      11.052  -4.311   1.678  0.00  0.00    -0.135 NA
ATOM      5  N   UNL     1      10.045  -3.461   1.195  0.00  0.00    -0.273 N 
ATOM      6  H   UNL     1      10.128  -2.841   0.454  0.00  0.00    +0.189 HD
ATOM      7  O   UNL     1      11.168  -5.946   3.446  0.00  0.00    -0.421 OA
ATOM      8  C   UNL     1      10.373  -6.699   4.232  0.00  0.00    +0.201 C 
ATOM      9  C   UNL     1       9.081  -6.420   4.505  0.00  0.00    +0.098 C 
ATOM     10  C   UNL     1       8.370  -5.209   3.956  0.00  0.00    +0.102 C 
ENDROOT
BRANCH   1  14
ATOM     11  C   UNL     1       5.191  -1.682   1.513  0.00  0.00    +0.121 A 
ATOM     12  C   UNL     1       6.369  -0.946   1.514  0.00  0.00    +0.046 A 
ATOM     13  C   UNL     1       7.582  -1.584   1.658  0.00  0.00    +0.013 A 
ATOM     14  C   UNL     1       7.627  -2.971   1.802  0.00  0.00    +0.000 A 
ATOM     15  C   UNL     1       6.442  -3.708   1.801  0.00  0.00    +0.013 A 
ATOM     16  C   UNL     1       5.231  -3.062   1.661  0.00  0.00    +0.046 A 
BRANCH  11  17
ATOM     17  O   UNL     1       3.997  -1.050   1.371  0.00  0.00    -0.487 OA
BRANCH  17  18
ATOM     18  C   UNL     1       4.029   0.371   1.222  0.00  0.00    +0.264 C 
BRANCH  18  22
ATOM     19  C   UNL     1       0.043   1.851   0.816  0.00  0.00    +0.000 A 
ATOM     20  C   UNL     1       0.613   1.737   2.070  0.00  0.00    +0.000 A 
ATOM     21  C   UNL     1       1.903   1.257   2.201  0.00  0.00    +0.007 A 
ATOM     22  C   UNL     1       2.622   0.892   1.079  0.00  0.00    -0.010 A 
ATOM     23  C   UNL     1       2.052   1.006  -0.175  0.00  0.00    +0.007 A 
ATOM     24  C   UNL     1       0.762   1.487  -0.307  0.00  0.00    +0.000 A 
ENDBRANCH  18  22
ENDBRANCH  17  18
ENDBRANCH  11  17
ENDBRANCH   1  14
BRANCH  10  25
ATOM     25  C   UNL     1       8.158  -4.200   5.055  0.00  0.00    -0.031 A 
ATOM     26  C   UNL     1       9.247  -3.635   5.693  0.00  0.00    +0.005 A 
ATOM     27  C   UNL     1       9.056  -2.709   6.702  0.00  0.00    +0.004 A 
ATOM     28  C   UNL     1       7.776  -2.348   7.076  0.00  0.00    +0.045 A 
ATOM     29  C   UNL     1       6.682  -2.914   6.438  0.00  0.00    +0.117 A 
ATOM     30  C   UNL     1       6.876  -3.838   5.422  0.00  0.00    +0.050 A 
BRANCH  29  31
ATOM     31  O   UNL     1       5.422  -2.560   6.805  0.00  0.00    -0.507 OA
ATOM     32  H   UNL     1       5.067  -1.805   6.315  0.00  0.00    +0.292 HD
ENDBRANCH  29  31
ENDBRANCH  10  25
BRANCH   8  33
ATOM     33  N   UNL     1      10.915  -7.828   4.793  0.00  0.00    -0.328 N 
ATOM     34  H   UNL     1      11.840  -8.060   4.619  0.00  0.00    +0.145 HD
ATOM     35  H   UNL     1      10.372  -8.394   5.364  0.00  0.00    +0.145 HD
ENDBRANCH   8  33
BRANCH   9  36
ATOM     36  C   UNL     1       8.353  -7.313   5.355  0.00  0.00    +0.101 C 
ATOM     37  N   UNL     1       7.776  -8.022   6.030  0.00  0.00    -0.191 NA
ENDBRANCH   9  36
TORSDOF 8
