REMARK  Name = ZINC20540069
REMARK  7 active torsions:
REMARK  status: ('A' for Active; 'I' for Inactive)
REMARK    1  A    between atoms: C_1  and  C_2
REMARK    2  A    between atoms: C_2  and  N_3
REMARK    3  A    between atoms: C_6  and  N_9
REMARK    4  A    between atoms: N_9  and  C_10
REMARK    5  A    between atoms: C_13  and  C_26
REMARK    6  A    between atoms: N_15  and  C_17
REMARK    7  A    between atoms: N_28  and  C_29
REMARK                            x       y       z     vdW  Elec       q    Type
REMARK                         _______ _______ _______ _____ _____    ______ ____
ROOT
ATOM      1  C   UNL     1      -0.369   1.912   3.563  0.00  0.00    +0.036 C 
ATOM      2  C   UNL     1      -0.212   1.052   4.844  0.00  0.00    +0.010 C 
ATOM      3  C   UNL     1       0.268   2.077   5.894  0.00  0.00    +0.021 C 
ATOM      4  N   UNL     1       0.869   3.205   5.160  0.00  0.00    +0.391 N 
ATOM      5  C   UNL     1       0.804   2.913   3.712  0.00  0.00    -0.059 C 
ATOM      6  H   UNL     1       0.312   4.128   5.380  0.00  0.00    -0.080 HD
ENDROOT
BRANCH   4   7
ATOM      7  C   UNL     1       2.256   3.434   5.589  0.00  0.00    -0.059 C 
ATOM      8  C   UNL     1       2.302   3.939   7.046  0.00  0.00    +0.020 C 
ATOM      9  C   UNL     1       3.456   4.918   7.089  0.00  0.00    -0.046 A 
ATOM     10  C   UNL     1       4.158   5.432   8.167  0.00  0.00    +0.004 A 
ATOM     11  C   UNL     1       5.190   6.326   7.962  0.00  0.00    +0.000 A 
ATOM     12  C   UNL     1       5.524   6.711   6.677  0.00  0.00    +0.000 A 
ATOM     13  C   UNL     1       4.826   6.200   5.601  0.00  0.00    +0.004 A 
ATOM     14  C   UNL     1       3.791   5.303   5.804  0.00  0.00    -0.046 A 
ATOM     15  C   UNL     1       2.885   4.609   4.810  0.00  0.00    +0.020 C 
ENDBRANCH   4   7
BRANCH   3  16
ATOM     16  C   UNL     1       1.294   1.444   6.797  0.00  0.00    +0.199 C 
ATOM     17  O   UNL     1       2.320   0.996   6.330  0.00  0.00    -0.278 OA
ATOM     18  N   UNL     1       1.073   1.375   8.125  0.00  0.00    -0.320 N 
ATOM     19  C   UNL     1       2.071   0.759   9.003  0.00  0.00    +0.128 C 
ATOM     20  H   UNL     1       0.143   1.781   8.549  0.00  0.00    +0.148 HD
ENDBRANCH   3  16
BRANCH   1  21
ATOM     21  N   UNL     1      -0.209   1.091   2.355  0.00  0.00    -0.312 NA
ATOM     22  H   UNL     1      -0.623   0.091   2.552  0.00  0.00    +0.122 HD
BRANCH  21  26
ATOM     23  N   UNL     1      -2.423   1.363  -1.225  0.00  0.00    +0.380 N 
ATOM     24  C   UNL     1      -1.025   1.807  -1.280  0.00  0.00    -0.077 C 
ATOM     25  C   UNL     1      -0.256   1.225  -0.091  0.00  0.00    -0.000 C 
ATOM     26  C   UNL     1      -0.908   1.694   1.212  0.00  0.00    +0.050 C 
ATOM     27  C   UNL     1      -2.377   1.260   1.222  0.00  0.00    -0.000 C 
ATOM     28  C   UNL     1      -3.085   1.841  -0.004  0.00  0.00    -0.077 C 
ATOM     29  H   UNL     1      -2.425   0.263  -1.198  0.00  0.00    -0.082 HD
BRANCH  23  31
ATOM     30  C   UNL     1      -4.527   1.105  -2.452  0.00  0.00    -0.017 C 
ATOM     31  C   UNL     1      -3.158   1.788  -2.423  0.00  0.00    -0.082 C 
ENDBRANCH  23  31
ENDBRANCH  21  26
ENDBRANCH   1  21
TORSDOF 5
