REMARK  Name = ZINC08642194
REMARK  4 active torsions:
REMARK  status: ('A' for Active; 'I' for Inactive)
REMARK    1  A    between atoms: C_4  and  C_7
REMARK    2  A    between atoms: C_8  and  C_9
REMARK    3  A    between atoms: C_12  and  C_13
REMARK    4  A    between atoms: C_22  and  O_23
REMARK                            x       y       z     vdW  Elec       q    Type
REMARK                         _______ _______ _______ _____ _____    ______ ____
ROOT
ATOM      1  C   UNL     1       2.423   1.052  -0.015  0.00  0.00    +0.225 C 
ATOM      2  N   UNL     1       3.595   1.636  -0.029  0.00  0.00    -0.206 NA
ATOM      3  C   UNL     1       4.566   0.683  -0.039  0.00  0.00    +0.153 C 
ATOM      4  C   UNL     1       5.937   0.883  -0.051  0.00  0.00    +0.047 C 
ATOM      5  C   UNL     1       3.855  -0.607  -0.039  0.00  0.00    +0.364 C 
ATOM      6  O   UNL     1       4.346  -1.720  -0.050  0.00  0.00    -0.243 OA
ATOM      7  O   UNL     1       2.542  -0.291  -0.024  0.00  0.00    -0.403 OA
ENDROOT
BRANCH   4   8
ATOM      8  C   UNL     1       6.459   2.196  -0.049  0.00  0.00    +0.026 A 
ATOM      9  C   UNL     1       7.493   2.591   0.912  0.00  0.00    -0.007 A 
ATOM     10  C   UNL     1       8.003   1.685   1.846  0.00  0.00    +0.009 A 
ATOM     11  C   UNL     1       8.970   2.090   2.720  0.00  0.00    +0.001 A 
ATOM     12  C   UNL     1       9.459   3.393   2.691  0.00  0.00    +0.001 A 
ATOM     13  C   UNL     1       8.986   4.299   1.789  0.00  0.00    +0.008 A 
ATOM     14  C   UNL     1       7.991   3.915   0.875  0.00  0.00    -0.017 A 
ATOM     15  C   UNL     1       7.479   4.824  -0.070  0.00  0.00    +0.012 A 
ATOM     16  C   UNL     1       6.516   4.447  -0.952  0.00  0.00    +0.046 A 
ATOM     17  C   UNL     1       5.995   3.155  -0.962  0.00  0.00    +0.125 A 
BRANCH  17  18
ATOM     18  O   UNL     1       5.035   2.822  -1.860  0.00  0.00    -0.506 OA
ATOM     19  H   UNL     1       4.133   2.972  -1.545  0.00  0.00    +0.292 HD
ENDBRANCH  17  18
ENDBRANCH   4   8
BRANCH   1  21
ATOM     20  C   UNL     1      -0.013   1.076   0.008  0.00  0.00    +0.013 C 
ATOM     21  C   UNL     1       1.147   1.766   0.001  0.00  0.00    +0.068 C 
BRANCH  20  25
ATOM     22  C   UNL     1      -3.715   3.147   0.036  0.00  0.00    +0.000 A 
ATOM     23  C   UNL     1      -3.700   1.763   0.029  0.00  0.00    +0.001 A 
ATOM     24  C   UNL     1      -2.501   1.082   0.020  0.00  0.00    +0.008 A 
ATOM     25  C   UNL     1      -1.297   1.794   0.018  0.00  0.00    -0.025 A 
ATOM     26  C   UNL     1      -1.320   3.193   0.031  0.00  0.00    +0.008 A 
ATOM     27  C   UNL     1      -2.527   3.858   0.035  0.00  0.00    +0.001 A 
ENDBRANCH  20  25
ENDBRANCH   1  21
TORSDOF 4
