REMARK  Name = ZINC09603184
REMARK  8 active torsions:
REMARK  status: ('A' for Active; 'I' for Inactive)
REMARK    1  A    between atoms: C_1  and  C_2
REMARK    2  A    between atoms: C_5  and  N_8
REMARK    3  A    between atoms: C_9  and  C_28
REMARK    4  A    between atoms: C_11  and  C_17
REMARK    5  A    between atoms: C_17  and  O_19
REMARK    6  A    between atoms: O_19  and  C_20
REMARK    7  A    between atoms: C_20  and  C_21
REMARK    8  A    between atoms: N_26  and  C_27
REMARK                            x       y       z     vdW  Elec       q    Type
REMARK                         _______ _______ _______ _____ _____    ______ ____
ROOT
ATOM      1  N   UNL     1     -10.245   1.418   6.407  0.00  0.00    -0.263 N 
ATOM      2  C   UNL     1      -8.951   2.085   6.326  0.00  0.00    +0.132 C 
ATOM      3  C   UNL     1      -8.152   1.560   5.133  0.00  0.00    +0.124 C 
ATOM      4  C   UNL     1      -9.036   1.617   3.881  0.00  0.00    +0.026 C 
ATOM      5  C   UNL     1     -10.173   0.606   4.045  0.00  0.00    +0.097 C 
ATOM      6  C   UNL     1     -10.817   0.771   5.391  0.00  0.00    +0.220 C 
ATOM      7  O   UNL     1     -11.916   0.288   5.565  0.00  0.00    -0.275 OA
ENDROOT
BRANCH   1  12
ATOM      8  C   UNL     1     -13.020   1.590  11.352  0.00  0.00    +0.044 C 
ATOM      9  C   UNL     1     -12.283   1.545  10.039  0.00  0.00    -0.050 A 
ATOM     10  C   UNL     1     -11.318   0.578   9.822  0.00  0.00    +0.005 A 
ATOM     11  C   UNL     1     -10.640   0.533   8.619  0.00  0.00    +0.024 A 
ATOM     12  C   UNL     1     -10.929   1.461   7.627  0.00  0.00    +0.037 A 
ATOM     13  C   UNL     1     -11.895   2.434   7.849  0.00  0.00    +0.024 A 
ATOM     14  C   UNL     1     -12.572   2.470   9.052  0.00  0.00    +0.005 A 
ENDBRANCH   1  12
BRANCH   2  15
ATOM     15  C   UNL     1      -9.165   3.569   6.168  0.00  0.00    +0.011 A 
ATOM     16  C   UNL     1      -8.495   4.594   6.748  0.00  0.00    +0.013 A 
ATOM     17  C   UNL     1      -8.868   5.892   6.451  0.00  0.00    +0.008 A 
ATOM     18  C   UNL     1      -9.893   6.100   5.589  0.00  0.00    +0.045 A 
ATOM     19  S   UNL     1     -10.361   4.431   5.162  0.00  0.00    -0.100 S 
ENDBRANCH   2  15
BRANCH   3  20
ATOM     20  C   UNL     1      -6.928   2.415   4.928  0.00  0.00    +0.313 C 
ATOM     21  O   UNL     1      -6.713   3.348   5.665  0.00  0.00    -0.250 OA
BRANCH  20  22
ATOM     22  O   UNL     1      -6.078   2.141   3.926  0.00  0.00    -0.455 OA
BRANCH  22  23
ATOM     23  C   UNL     1      -4.921   3.007   3.788  0.00  0.00    +0.328 C 
BRANCH  23  24
ATOM     24  C   UNL     1      -4.087   2.549   2.619  0.00  0.00    +0.258 C 
ATOM     25  O   UNL     1      -4.434   1.588   1.967  0.00  0.00    -0.272 OA
ATOM     26  N   UNL     1      -2.956   3.208   2.299  0.00  0.00    -0.237 N 
ATOM     27  C   UNL     1      -2.210   2.799   1.254  0.00  0.00    +0.306 C 
ATOM     28  O   UNL     1      -2.558   1.835   0.600  0.00  0.00    -0.252 OA
ATOM     29  N   UNL     1      -1.079   3.458   0.934  0.00  0.00    -0.302 N 
ATOM     30  C   UNL     1      -0.269   3.012  -0.203  0.00  0.00    +0.129 C 
ATOM     31  H   UNL     1      -2.678   3.977   2.821  0.00  0.00    +0.159 HD
ATOM     32  H   UNL     1      -0.802   4.227   1.456  0.00  0.00    +0.150 HD
ENDBRANCH  23  24
ENDBRANCH  22  23
ENDBRANCH  20  22
ENDBRANCH   3  20
TORSDOF 6
