REMARK  Name = ZINC06040039
REMARK  6 active torsions:
REMARK  status: ('A' for Active; 'I' for Inactive)
REMARK    1  A    between atoms: C_4  and  O_32
REMARK    2  A    between atoms: C_5  and  C_7
REMARK    3  A    between atoms: N_15  and  C_25
REMARK    4  A    between atoms: C_16  and  C_18
REMARK    5  A    between atoms: C_21  and  O_24
REMARK    6  A    between atoms: C_25  and  C_26
REMARK                            x       y       z     vdW  Elec       q    Type
REMARK                         _______ _______ _______ _____ _____    ______ ____
ROOT
ATOM      1  C   UNL     1       1.246  -2.162  -0.022  0.00  0.00    +0.075 A 
ATOM      2  C   UNL     1       1.726  -2.971   0.959  0.00  0.00    +0.035 A 
ATOM      3  C   UNL     1       1.537  -4.294   0.499  0.00  0.00    +0.153 A 
ATOM      4  N   UNL     1       0.974  -4.210  -0.690  0.00  0.00    -0.168 NA
ATOM      5  N   UNL     1       0.788  -2.980  -1.015  0.00  0.00    -0.276 N 
ATOM      6  H   UNL     1       0.385  -2.678  -1.843  0.00  0.00    +0.189 HD
ATOM      7  C   UNL     1       2.045  -5.210   1.536  0.00  0.00    +0.268 C 
ATOM      8  O   UNL     1       2.032  -6.423   1.456  0.00  0.00    -0.268 OA
ATOM      9  N   UNL     1       2.524  -4.515   2.583  0.00  0.00    -0.281 N 
ATOM     10  C   UNL     1       2.368  -3.081   2.315  0.00  0.00    +0.142 C 
ENDROOT
BRANCH   1  15
ATOM     11  C   UNL     1      -0.017   1.375   0.010  0.00  0.00    +0.001 A 
ATOM     12  C   UNL     1       1.169   2.089   0.002  0.00  0.00    +0.004 A 
ATOM     13  C   UNL     1       2.382   1.427  -0.013  0.00  0.00    +0.046 A 
ATOM     14  C   UNL     1       2.417   0.042  -0.021  0.00  0.00    +0.126 A 
ATOM     15  C   UNL     1       1.220  -0.683  -0.013  0.00  0.00    +0.042 A 
ATOM     16  C   UNL     1       0.002  -0.004   0.002  0.00  0.00    +0.013 A 
BRANCH  14  17
ATOM     17  O   UNL     1       3.609  -0.610  -0.036  0.00  0.00    -0.506 OA
ATOM     18  H   UNL     1       3.962  -0.804   0.843  0.00  0.00    +0.292 HD
ENDBRANCH  14  17
ENDBRANCH   1  15
BRANCH  10  19
ATOM     19  C   UNL     1       1.482  -2.453   3.359  0.00  0.00    -0.022 A 
ATOM     20  C   UNL     1       0.405  -3.157   3.865  0.00  0.00    +0.009 A 
ATOM     21  C   UNL     1      -0.409  -2.583   4.822  0.00  0.00    +0.046 A 
ATOM     22  C   UNL     1      -0.144  -1.300   5.277  0.00  0.00    +0.117 A 
ATOM     23  C   UNL     1       0.937  -0.596   4.769  0.00  0.00    +0.046 A 
ATOM     24  C   UNL     1       1.751  -1.176   3.815  0.00  0.00    +0.009 A 
BRANCH  22  25
ATOM     25  O   UNL     1      -0.944  -0.733   6.219  0.00  0.00    -0.507 OA
ATOM     26  H   UNL     1      -0.661  -0.901   7.128  0.00  0.00    +0.292 HD
ENDBRANCH  22  25
ENDBRANCH  10  19
BRANCH   9  27
ATOM     27  C   UNL     1       3.107  -5.096   3.795  0.00  0.00    +0.144 C 
BRANCH  27  28
ATOM     28  C   UNL     1       4.591  -5.269   3.605  0.00  0.00    -0.027 A 
ATOM     29  C   UNL     1       5.107  -6.442   3.074  0.00  0.00    +0.025 A 
ATOM     30  C   UNL     1       6.474  -6.565   2.915  0.00  0.00    +0.111 A 
ATOM     31  N   UNL     1       7.285  -5.583   3.261  0.00  0.00    -0.263 NA
ATOM     32  C   UNL     1       6.830  -4.455   3.769  0.00  0.00    +0.111 A 
ATOM     33  C   UNL     1       5.474  -4.258   3.951  0.00  0.00    +0.025 A 
ENDBRANCH  27  28
ENDBRANCH   9  27
TORSDOF 6
