REMARK  Name = ZINC09217633
REMARK  9 active torsions:
REMARK  status: ('A' for Active; 'I' for Inactive)
REMARK    1  A    between atoms: C_1  and  C_2
REMARK    2  A    between atoms: C_2  and  C_4
REMARK    3  A    between atoms: C_4  and  C_6
REMARK    4  A    between atoms: C_4  and  N_13
REMARK    5  A    between atoms: C_6  and  C_7
REMARK    6  A    between atoms: C_14  and  C_16
REMARK    7  A    between atoms: C_16  and  N_62
REMARK    8  A    between atoms: C_19  and  C_22
REMARK    9  A    between atoms: N_24  and  C_25
REMARK                            x       y       z     vdW  Elec       q    Type
REMARK                         _______ _______ _______ _____ _____    ______ ____
ROOT
ATOM      1  C   UNL     1       8.539   2.055   0.307  0.00  0.00    -0.077 C 
ATOM      2  C   UNL     1       7.228   1.266   0.260  0.00  0.00    -0.006 C 
ATOM      3  C   UNL     1       6.053   2.244   0.174  0.00  0.00    +0.072 C 
ATOM      4  C   UNL     1       6.224   3.127  -1.064  0.00  0.00    -0.006 C 
ATOM      5  C   UNL     1       7.563   3.862  -0.979  0.00  0.00    -0.077 C 
ATOM      6  N   UNL     1       8.654   2.866  -0.924  0.00  0.00    +0.385 N 
ATOM      7  H   UNL     1       8.581   2.247  -1.739  0.00  0.00    -0.081 HD
ENDROOT
BRANCH   3   8
ATOM      8  C   UNL     1       4.763   1.472   0.068  0.00  0.00    +0.220 C 
ATOM      9  O   UNL     1       4.780   0.259   0.061  0.00  0.00    -0.275 OA
ATOM     10  N   UNL     1       3.589   2.129  -0.020  0.00  0.00    -0.285 N 
ATOM     11  H   UNL     1       3.579   3.096  -0.092  0.00  0.00    +0.155 HD
BRANCH  10  12
ATOM     12  C   UNL     1       2.384   1.415  -0.007  0.00  0.00    +0.037 A 
ATOM     13  C   UNL     1       2.275   0.249   0.738  0.00  0.00    +0.027 A 
ATOM     14  C   UNL     1       1.087  -0.456   0.752  0.00  0.00    +0.051 A 
ATOM     15  C   UNL     1       0.000  -0.001   0.023  0.00  0.00    +0.166 A 
ATOM     16  C   UNL     1       0.106   1.169  -0.726  0.00  0.00    +0.168 A 
ATOM     17  C   UNL     1       1.298   1.874  -0.740  0.00  0.00    +0.072 A 
ATOM     18  O   UNL     1      -1.086   1.397  -1.351  0.00  0.00    -0.453 OA
ATOM     19  C   UNL     1      -1.795   0.146  -1.298  0.00  0.00    +0.466 C 
ATOM     20  O   UNL     1      -1.261  -0.503  -0.129  0.00  0.00    -0.453 OA
ENDBRANCH  10  12
ENDBRANCH   3   8
BRANCH   6  21
ATOM     21  C   UNL     1       9.964   3.550  -0.956  0.00  0.00    +0.019 C 
BRANCH  21  23
ATOM     22  N   UNL     1      11.278   4.859  -2.592  0.00  0.00    -0.307 N 
ATOM     23  C   UNL     1      10.145   4.188  -2.310  0.00  0.00    +0.197 C 
ATOM     24  O   UNL     1       9.270   4.097  -3.145  0.00  0.00    -0.278 OA
ATOM     25  H   UNL     1      11.978   4.932  -1.924  0.00  0.00    +0.149 HD
BRANCH  22  26
ATOM     26  C   UNL     1      11.454   5.479  -3.908  0.00  0.00    +0.143 C 
BRANCH  26  28
ATOM     27  C   UNL     1      10.452   7.505  -5.213  0.00  0.00    +0.088 C 
ATOM     28  C   UNL     1      10.816   6.845  -3.909  0.00  0.00    +0.151 C 
ATOM     29  O   UNL     1      10.597   7.410  -2.864  0.00  0.00    -0.296 OA
ENDBRANCH  26  28
BRANCH  26  30
ATOM     30  C   UNL     1      12.947   5.614  -4.213  0.00  0.00    +0.065 C 
BRANCH  30  31
ATOM     31  C   UNL     1      13.561   4.243  -4.333  0.00  0.00    -0.045 A 
ATOM     32  C   UNL     1      14.087   3.620  -3.216  0.00  0.00    +0.004 A 
ATOM     33  C   UNL     1      14.645   2.360  -3.326  0.00  0.00    +0.000 A 
ATOM     34  C   UNL     1      14.688   1.727  -4.554  0.00  0.00    +0.000 A 
ATOM     35  C   UNL     1      14.166   2.352  -5.672  0.00  0.00    +0.000 A 
ATOM     36  C   UNL     1      13.603   3.610  -5.561  0.00  0.00    +0.004 A 
ENDBRANCH  30  31
ENDBRANCH  26  30
ENDBRANCH  22  26
ENDBRANCH  21  23
ENDBRANCH   6  21
TORSDOF 8
