REMARK  Name = ZINC66578714
REMARK  5 active torsions:
REMARK  status: ('A' for Active; 'I' for Inactive)
REMARK    1  A    between atoms: C_5  and  C_7
REMARK    2  A    between atoms: C_8  and  S_9
REMARK    3  A    between atoms: S_9  and  N_12
REMARK    4  A    between atoms: N_12  and  C_13
REMARK    5  A    between atoms: C_16  and  N_19
REMARK                            x       y       z     vdW  Elec       q    Type
REMARK                         _______ _______ _______ _____ _____    ______ ____
ROOT
ATOM      1  N   UNL     1      -0.500  -5.116   1.410  0.00  0.00    -0.098 NA
ENDROOT
BRANCH   1   2
ATOM      2  C   UNL     1      -0.603  -6.485   1.684  0.00  0.00    +0.074 A 
ATOM      3  C   UNL     1      -0.145  -7.414   0.760  0.00  0.00    +0.028 A 
ATOM      4  C   UNL     1      -0.247  -8.764   1.030  0.00  0.00    +0.025 A 
ATOM      5  C   UNL     1      -0.807  -9.193   2.226  0.00  0.00    +0.038 A 
ATOM      6  C   UNL     1      -1.266  -8.264   3.150  0.00  0.00    +0.025 A 
ATOM      7  C   UNL     1      -1.158  -6.913   2.883  0.00  0.00    +0.028 A 
BRANCH   5   8
ATOM      8  N   UNL     1      -0.911 -10.564   2.500  0.00  0.00    -0.254 N 
ATOM      9  C   UNL     1      -1.377 -11.146   3.767  0.00  0.00    +0.134 C 
ATOM     10  C   UNL     1      -1.293 -12.666   3.528  0.00  0.00    +0.125 C 
ATOM     11  N   UNL     1      -0.788 -12.779   2.151  0.00  0.00    -0.297 N 
ATOM     12  C   UNL     1      -0.607 -11.551   1.647  0.00  0.00    +0.307 C 
ATOM     13  O   UNL     1      -0.199 -11.351   0.519  0.00  0.00    -0.252 OA
ATOM     14  H   UNL     1      -0.618 -13.610   1.681  0.00  0.00    +0.150 HD
ENDBRANCH   5   8
ENDBRANCH   1   2
BRANCH   1  15
ATOM     15  S   UNL     1       0.162  -4.606  -0.019  0.00  0.00    +0.085 S 
ATOM     16  O   UNL     1      -0.722  -5.025  -1.049  0.00  0.00    -0.149 OA
ATOM     17  O   UNL     1       1.532  -4.983   0.010  0.00  0.00    -0.149 OA
BRANCH  15  19
ATOM     18  C   UNL     1       1.259  -2.157  -0.004  0.00  0.00    +0.030 C 
ATOM     19  C   UNL     1       0.125  -2.844  -0.010  0.00  0.00    +0.159 C 
BRANCH  18  24
ATOM     20  C   UNL     1      -0.015   1.375   0.009  0.00  0.00    +0.001 A 
ATOM     21  C   UNL     1       1.170   2.090   0.016  0.00  0.00    +0.001 A 
ATOM     22  C   UNL     1       2.384   1.428   0.017  0.00  0.00    +0.020 A 
ATOM     23  C   UNL     1       2.421   0.047   0.011  0.00  0.00    +0.048 A 
ATOM     24  C   UNL     1       1.228  -0.679   0.004  0.00  0.00    -0.005 A 
ATOM     25  C   UNL     1       0.007  -0.004   0.004  0.00  0.00    +0.009 A 
ATOM     26 CL   UNL     1       3.945  -0.783   0.010  0.00  0.00    -0.083 Cl
ENDBRANCH  18  24
ENDBRANCH  15  19
ENDBRANCH   1  15
TORSDOF 5
