REMARK  Name = ZINC43732692
REMARK  8 active torsions:
REMARK  status: ('A' for Active; 'I' for Inactive)
REMARK    1  A    between atoms: C_1  and  O_2
REMARK    2  A    between atoms: O_2  and  C_3
REMARK    3  A    between atoms: C_3  and  C_5
REMARK    4  A    between atoms: C_8  and  N_11
REMARK    5  A    between atoms: C_12  and  C_14
REMARK    6  A    between atoms: C_14  and  C_15
REMARK    7  A    between atoms: C_15  and  N_16
REMARK    8  A    between atoms: C_17  and  C_19
REMARK                            x       y       z     vdW  Elec       q    Type
REMARK                         _______ _______ _______ _____ _____    ______ ____
ROOT
ATOM      1  N   UNL     1       2.683 -10.239   3.436  0.00  0.00    -0.313 N 
ATOM      2  C   UNL     1       3.382 -10.847   4.415  0.00  0.00    +0.234 C 
ATOM      3  O   UNL     1       3.887 -10.188   5.299  0.00  0.00    -0.274 OA
ATOM      4  H   UNL     1       2.279 -10.766   2.729  0.00  0.00    +0.149 HD
ENDROOT
BRANCH   2   5
ATOM      5  C   UNL     1       3.537 -12.346   4.411  0.00  0.00    +0.173 C 
ATOM      6  C   UNL     1       4.224 -12.769   3.091  0.00  0.00    +0.103 C 
ATOM      7  S   UNL     1       5.843 -13.409   3.706  0.00  0.00    -0.131 S 
ATOM      8  C   UNL     1       5.751 -12.664   5.389  0.00  0.00    +0.166 C 
ATOM      9  N   UNL     1       4.279 -12.744   5.607  0.00  0.00    -0.269 N 
ATOM     10  C   UNL     1       4.123 -13.190   6.872  0.00  0.00    +0.249 C 
ATOM     11  O   UNL     1       3.126 -13.036   7.551  0.00  0.00    -0.270 OA
ATOM     12  C   UNL     1       5.346 -13.894   7.306  0.00  0.00    +0.043 A 
ATOM     13  C   UNL     1       6.377 -13.582   6.399  0.00  0.00    -0.005 A 
ATOM     14  C   UNL     1       7.639 -14.105   6.556  0.00  0.00    +0.007 A 
ATOM     15  C   UNL     1       7.918 -14.933   7.630  0.00  0.00    +0.000 A 
ATOM     16  C   UNL     1       6.931 -15.235   8.551  0.00  0.00    +0.001 A 
ATOM     17  C   UNL     1       5.625 -14.719   8.394  0.00  0.00    +0.013 A 
ENDBRANCH   2   5
BRANCH   1  18
ATOM     18  C   UNL     1       2.533  -8.782   3.440  0.00  0.00    +0.113 C 
BRANCH  18  19
ATOM     19  C   UNL     1       1.701  -8.351   2.230  0.00  0.00    +0.115 C 
BRANCH  19  21
ATOM     20  N   UNL     1       0.847  -6.244   1.256  0.00  0.00    -0.285 N 
ATOM     21  C   UNL     1       1.547  -6.852   2.234  0.00  0.00    +0.219 C 
ATOM     22  O   UNL     1       2.052  -6.193   3.118  0.00  0.00    -0.275 OA
ATOM     23  H   UNL     1       0.380  -6.775   0.592  0.00  0.00    +0.155 HD
BRANCH  20  27
ATOM     24  C   UNL     1       0.695  -2.085   1.080  0.00  0.00    +0.059 A 
ATOM     25  C   UNL     1       1.848  -2.725   1.543  0.00  0.00    +0.017 A 
ATOM     26  C   UNL     1       1.895  -4.100   1.600  0.00  0.00    +0.024 A 
ATOM     27  C   UNL     1       0.796  -4.852   1.197  0.00  0.00    +0.033 A 
ATOM     28  C   UNL     1      -0.353  -4.219   0.735  0.00  0.00    +0.024 A 
ATOM     29  C   UNL     1      -0.410  -2.845   0.681  0.00  0.00    +0.017 A 
BRANCH  24  30
ATOM     30  C   UNL     1       0.640  -0.613   1.018  0.00  0.00    +0.339 C 
ATOM     31  O   UNL     1      -0.365  -0.058   0.620  0.00  0.00    -0.245 OA
BRANCH  30  33
ATOM     32  C   UNL     1       1.583   1.538   1.317  0.00  0.00    +0.280 C 
ATOM     33  O   UNL     1       1.706   0.117   1.403  0.00  0.00    -0.464 OA
ENDBRANCH  30  33
ENDBRANCH  24  30
ENDBRANCH  20  27
ENDBRANCH  19  21
ENDBRANCH  18  19
ENDBRANCH   1  18
TORSDOF 7
