REMARK  Name = ZINC39943207
REMARK  8 active torsions:
REMARK  status: ('A' for Active; 'I' for Inactive)
REMARK    1  A    between atoms: C_1  and  C_2
REMARK    2  A    between atoms: C_4  and  C_12
REMARK    3  A    between atoms: C_12  and  C_14
REMARK    4  A    between atoms: C_14  and  C_26
REMARK    5  A    between atoms: C_15  and  C_16
REMARK    6  A    between atoms: C_18  and  O_25
REMARK    7  A    between atoms: C_19  and  O_23
REMARK    8  A    between atoms: O_23  and  C_24
REMARK                            x       y       z     vdW  Elec       q    Type
REMARK                         _______ _______ _______ _____ _____    ______ ____
ROOT
ATOM      1  C   UNL     1      -3.709  -1.141  -0.893  0.00  0.00    +0.099 C 
ATOM      2  C   UNL     1      -4.714  -0.890  -1.808  0.00  0.00    +0.031 C 
ENDROOT
BRANCH   2   3
ATOM      3  C   UNL     1      -6.036  -1.488  -1.626  0.00  0.00    -0.006 A 
ATOM      4  C   UNL     1      -6.532  -1.718  -0.333  0.00  0.00    +0.058 A 
ATOM      5  C   UNL     1      -7.779  -2.282  -0.169  0.00  0.00    +0.159 A 
ATOM      6  C   UNL     1      -8.546  -2.623  -1.285  0.00  0.00    +0.162 A 
ATOM      7  C   UNL     1      -8.058  -2.397  -2.566  0.00  0.00    +0.065 A 
ATOM      8  C   UNL     1      -6.816  -1.829  -2.743  0.00  0.00    +0.029 A 
ATOM      9 BR   UNL     1      -6.158  -1.515  -4.488  0.00  0.00    -0.050 Br
BRANCH   6  10
ATOM     10  O   UNL     1      -9.773  -3.179  -1.118  0.00  0.00    -0.491 OA
ATOM     11  C   UNL     1     -10.505  -3.504  -2.302  0.00  0.00    +0.277 C 
ENDBRANCH   6  10
BRANCH   5  12
ATOM     12  O   UNL     1      -8.264  -2.507   1.082  0.00  0.00    -0.503 OA
ATOM     13  H   UNL     1      -8.767  -1.767   1.448  0.00  0.00    +0.292 HD
ENDBRANCH   5  12
ENDBRANCH   2   3
BRANCH   1  14
ATOM     14  C   UNL     1      -2.426  -0.432  -0.998  0.00  0.00    +0.202 C 
ATOM     15  O   UNL     1      -2.280   0.445  -1.831  0.00  0.00    -0.286 OA
BRANCH  14  18
ATOM     16  C   UNL     1       0.616  -1.296  -1.583  0.00  0.00    +0.035 C 
ATOM     17  C   UNL     1      -0.196  -1.754  -0.371  0.00  0.00    +0.111 C 
ATOM     18  C   UNL     1      -1.322  -0.780  -0.100  0.00  0.00    +0.031 C 
ATOM     19  C   UNL     1      -1.092  -0.288   1.169  0.00  0.00    +0.007 A 
ATOM     20  C   UNL     1      -1.783   0.646   1.978  0.00  0.00    +0.010 A 
ATOM     21  C   UNL     1      -1.322   0.950   3.212  0.00  0.00    +0.001 A 
ATOM     22  C   UNL     1      -0.161   0.370   3.746  0.00  0.00    +0.002 A 
ATOM     23  C   UNL     1       0.571  -0.532   3.055  0.00  0.00    +0.026 A 
ATOM     24  C   UNL     1       0.138  -0.919   1.704  0.00  0.00    +0.043 A 
ATOM     25  N   UNL     1       0.644  -1.749   0.831  0.00  0.00    -0.377 N 
ATOM     26  H   UNL     1       1.447  -2.278   0.958  0.00  0.00    +0.160 HD
ENDBRANCH  14  18
ENDBRANCH   1  14
BRANCH   1  27
ATOM     27  C   UNL     1      -3.919  -2.092   0.157  0.00  0.00    +0.103 C 
ATOM     28  N   UNL     1      -4.085  -2.847   0.989  0.00  0.00    -0.191 NA
ENDBRANCH   1  27
TORSDOF 6
