REMARK  Name = ZINC05382194
REMARK  8 active torsions:
REMARK  status: ('A' for Active; 'I' for Inactive)
REMARK    1  A    between atoms: C_1  and  C_2
REMARK    2  A    between atoms: C_2  and  C_5
REMARK    3  A    between atoms: N_3  and  O_4
REMARK    4  A    between atoms: C_10  and  C_32
REMARK    5  A    between atoms: C_21  and  C_31
REMARK    6  A    between atoms: C_24  and  O_27
REMARK    7  A    between atoms: O_27  and  C_28
REMARK    8  A    between atoms: C_28  and  C_30
REMARK                            x       y       z     vdW  Elec       q    Type
REMARK                         _______ _______ _______ _____ _____    ______ ____
ROOT
ATOM      1  C   UNL     1      -0.000  -0.732  -1.274  0.00  0.00    -0.021 C 
ATOM      2  C   UNL     1      -0.011  -0.151  -2.480  0.00  0.00    -0.021 C 
ATOM      3  C   UNL     1      -0.006  -1.212  -3.567  0.00  0.00    +0.032 C 
ATOM      4  C   UNL     1      -0.614  -2.453  -2.839  0.00  0.00    +0.006 C 
ATOM      5  C   UNL     1       0.019  -2.224  -1.448  0.00  0.00    -0.002 C 
ATOM      6  C   UNL     1      -0.646  -3.017  -0.358  0.00  0.00    +0.012 C 
ATOM      7  C   UNL     1      -2.160  -2.886  -0.342  0.00  0.00    +0.005 C 
ATOM      8  C   UNL     1      -2.800  -3.082  -1.708  0.00  0.00    -0.001 C 
ATOM      9  C   UNL     1      -2.122  -2.237  -2.766  0.00  0.00    -0.003 C 
ATOM     10  C   UNL     1      -2.757  -2.418  -4.142  0.00  0.00    +0.004 C 
ATOM     11  C   UNL     1      -2.857  -3.901  -4.501  0.00  0.00    +0.004 C 
ATOM     12  C   UNL     1      -3.706  -4.608  -3.448  0.00  0.00    -0.001 C 
ATOM     13  C   UNL     1      -3.012  -4.539  -2.083  0.00  0.00    -0.026 C 
ATOM     14  C   UNL     1      -3.948  -5.188  -1.050  0.00  0.00    +0.011 C 
ATOM     15  C   UNL     1      -4.250  -6.635  -1.427  0.00  0.00    +0.045 C 
ATOM     16  C   UNL     1      -4.883  -6.715  -2.814  0.00  0.00    +0.177 C 
ATOM     17  C   UNL     1      -3.972  -6.053  -3.850  0.00  0.00    +0.048 C 
ATOM     18  C   UNL     1      -1.705  -5.324  -2.122  0.00  0.00    +0.012 C 
ATOM     19  C   UNL     1       1.486  -2.672  -1.523  0.00  0.00    +0.016 C 
ENDROOT
BRANCH   1  21
ATOM     20  C   UNL     1      -0.018   1.503   0.010  0.00  0.00    +0.069 C 
ATOM     21  C   UNL     1       0.002  -0.004   0.002  0.00  0.00    +0.080 C 
ATOM     22  N   UNL     1       0.022  -0.658   1.120  0.00  0.00    -0.092 NA
BRANCH  22  23
ATOM     23  O   UNL     1       0.024   0.044   2.350  0.00  0.00    -0.409 OA
ATOM     24  H   UNL     1       0.039  -0.529   3.130  0.00  0.00    +0.328 HD
ENDBRANCH  22  23
ENDBRANCH   1  21
BRANCH  16  25
ATOM     25  O   UNL     1      -5.079  -8.088  -3.168  0.00  0.00    -0.462 OA
BRANCH  25  26
ATOM     26  C   UNL     1      -6.250  -8.644  -2.824  0.00  0.00    +0.304 C 
ATOM     27  O   UNL     1      -7.082  -7.989  -2.242  0.00  0.00    -0.251 OA
ATOM     28  C   UNL     1      -6.529 -10.086  -3.163  0.00  0.00    +0.136 C 
ENDBRANCH  25  26
ENDBRANCH  16  25
TORSDOF 4
