REMARK  Name = ZINC12644305
REMARK  6 active torsions:
REMARK  status: ('A' for Active; 'I' for Inactive)
REMARK    1  A    between atoms: C_3  and  C_6
REMARK    2  A    between atoms: C_6  and  N_7
REMARK    3  A    between atoms: C_8  and  C_12
REMARK    4  A    between atoms: C_12  and  N_13
REMARK    5  A    between atoms: C_21  and  N_23
REMARK    6  A    between atoms: N_26  and  C_27
REMARK                            x       y       z     vdW  Elec       q    Type
REMARK                         _______ _______ _______ _____ _____    ______ ____
ROOT
ATOM      1  N   UNL     1       3.179   3.951   2.195  0.00  0.00    +0.388 N 
ATOM      2  C   UNL     1       2.078   3.602   1.258  0.00  0.00    -0.066 C 
ATOM      3  C   UNL     1       2.303   4.532   0.044  0.00  0.00    -0.017 C 
ATOM      4  C   UNL     1       3.072   5.743   0.611  0.00  0.00    -0.017 C 
ATOM      5  C   UNL     1       3.243   5.435   2.117  0.00  0.00    -0.066 C 
ATOM      6  C   UNL     1       2.008   5.983   2.851  0.00  0.00    +0.007 C 
ATOM      7  C   UNL     1       0.748   5.538   2.103  0.00  0.00    +0.071 C 
ATOM      8  C   UNL     1       0.759   4.002   1.937  0.00  0.00    +0.007 C 
ATOM      9  H   UNL     1       2.958   3.654   3.134  0.00  0.00    -0.080 HD
ENDROOT
BRANCH   7  10
ATOM     10  N   UNL     1      -0.437   5.933   2.868  0.00  0.00    -0.297 N 
ATOM     11  C   UNL     1      -1.614   6.119   2.238  0.00  0.00    +0.300 C 
ATOM     12  O   UNL     1      -1.692   5.960   1.035  0.00  0.00    -0.253 OA
ATOM     13  N   UNL     1      -2.705   6.482   2.942  0.00  0.00    -0.294 N 
ATOM     14  H   UNL     1      -0.375   6.059   3.828  0.00  0.00    +0.151 HD
ATOM     15  H   UNL     1      -2.643   6.609   3.901  0.00  0.00    +0.151 HD
BRANCH  13  16
ATOM     16  C   UNL     1      -3.984   6.685   2.257  0.00  0.00    +0.037 C 
ATOM     17  C   UNL     1      -4.405   5.386   1.567  0.00  0.00    +0.029 C 
ATOM     18  C   UNL     1      -5.741   5.598   0.852  0.00  0.00    -0.008 C 
ATOM     19  C   UNL     1      -6.807   6.002   1.873  0.00  0.00    +0.007 C 
ATOM     20  C   UNL     1      -6.386   7.301   2.563  0.00  0.00    -0.008 C 
ATOM     21  C   UNL     1      -5.050   7.089   3.278  0.00  0.00    +0.029 C 
ATOM     22  C   UNL     1      -6.235   8.408   1.518  0.00  0.00    +0.007 C 
ATOM     23  C   UNL     1      -5.169   8.004   0.497  0.00  0.00    -0.008 C 
ATOM     24  C   UNL     1      -5.590   6.705  -0.193  0.00  0.00    +0.007 C 
ATOM     25  C   UNL     1      -3.833   7.792   1.212  0.00  0.00    +0.029 C 
ENDBRANCH  13  16
ENDBRANCH   7  10
BRANCH   1  26
ATOM     26  C   UNL     1       4.446   3.355   1.750  0.00  0.00    +0.001 C 
BRANCH  26  28
ATOM     27  N   UNL     1       4.699   1.214   3.112  0.00  0.00    -0.224 N 
ATOM     28  C   UNL     1       4.406   1.865   1.971  0.00  0.00    +0.136 A 
ATOM     29  N   UNL     1       4.077   0.952   1.091  0.00  0.00    -0.115 NA
ATOM     30  N   UNL     1       4.164  -0.200   1.661  0.00  0.00    -0.023 NA
ATOM     31  N   UNL     1       4.545  -0.046   2.881  0.00  0.00    -0.044 NA
BRANCH  27  32
ATOM     32  C   UNL     1       5.121   1.821   4.377  0.00  0.00    +0.221 C 
BRANCH  32  35
ATOM     33  C   UNL     1       8.761   2.389   4.301  0.00  0.00    +0.041 A 
ATOM     34  C   UNL     1       7.437   2.805   4.032  0.00  0.00    +0.046 A 
ATOM     35  C   UNL     1       6.626   1.820   4.458  0.00  0.00    +0.126 A 
ATOM     36  O   UNL     1       7.384   0.836   4.968  0.00  0.00    -0.466 OA
ATOM     37  C   UNL     1       8.680   1.176   4.875  0.00  0.00    +0.195 A 
ENDBRANCH  32  35
ENDBRANCH  27  32
ENDBRANCH  26  28
ENDBRANCH   1  26
TORSDOF 6
