REMARK  Name = ZINC22436612
REMARK  8 active torsions:
REMARK  status: ('A' for Active; 'I' for Inactive)
REMARK    1  A    between atoms: C_1  and  C_2
REMARK    2  A    between atoms: C_2  and  N_3
REMARK    3  A    between atoms: N_3  and  C_4
REMARK    4  A    between atoms: C_4  and  C_10
REMARK    5  A    between atoms: N_14  and  C_15
REMARK    6  A    between atoms: C_20  and  C_21
REMARK    7  A    between atoms: C_21  and  O_23
REMARK    8  A    between atoms: O_23  and  C_24
REMARK                            x       y       z     vdW  Elec       q    Type
REMARK                         _______ _______ _______ _____ _____    ______ ____
ROOT
ATOM      1  C   UNL     1       3.340   3.957  -0.052  0.00  0.00    +0.146 A 
ATOM      2  N   UNL     1       3.011   4.931   0.754  0.00  0.00    -0.114 NA
ATOM      3  N   UNL     1       3.161   6.068   0.177  0.00  0.00    -0.023 NA
ATOM      4  N   UNL     1       3.597   5.903  -1.026  0.00  0.00    -0.039 NA
ATOM      5  N   UNL     1       3.733   4.517  -1.218  0.00  0.00    -0.198 N 
ENDROOT
BRANCH   1   6
ATOM      6  C   UNL     1       3.293   2.483   0.260  0.00  0.00    -0.005 C 
ATOM      7  C   UNL     1       2.237   2.224   1.337  0.00  0.00    -0.005 C 
ATOM      8  C   UNL     1       2.190   0.728   1.654  0.00  0.00    -0.001 C 
ATOM      9  C   UNL     1       3.559   0.270   2.160  0.00  0.00    -0.000 C 
ATOM     10  C   UNL     1       4.614   0.529   1.083  0.00  0.00    -0.001 C 
ATOM     11  C   UNL     1       4.662   2.025   0.766  0.00  0.00    -0.005 C 
BRANCH   6  12
ATOM     12  N   UNL     1       2.946   1.736  -0.956  0.00  0.00    +0.387 N 
ATOM     13  H   UNL     1       3.013   0.659  -0.740  0.00  0.00    -0.085 HD
ATOM     14  H   UNL     1       3.664   1.996  -1.748  0.00  0.00    -0.085 HD
BRANCH  12  16
ATOM     15  C   UNL     1       1.291   1.330  -2.715  0.00  0.00    -0.017 C 
ATOM     16  C   UNL     1       1.585   2.061  -1.404  0.00  0.00    -0.085 C 
ENDBRANCH  12  16
ENDBRANCH   6  12
ENDBRANCH   1   6
BRANCH   5  17
ATOM     17  C   UNL     1       4.174   3.859  -2.370  0.00  0.00    +0.083 A 
ATOM     18  C   UNL     1       5.357   3.135  -2.349  0.00  0.00    +0.029 A 
ATOM     19  C   UNL     1       5.792   2.486  -3.488  0.00  0.00    +0.002 A 
ATOM     20  C   UNL     1       5.056   2.556  -4.659  0.00  0.00    +0.001 A 
ATOM     21  C   UNL     1       3.875   3.267  -4.697  0.00  0.00    +0.017 A 
ATOM     22  C   UNL     1       3.424   3.928  -3.552  0.00  0.00    +0.084 A 
BRANCH  22  23
ATOM     23  C   UNL     1       2.164   4.695  -3.587  0.00  0.00    +0.341 C 
ATOM     24  O   UNL     1       1.782   5.281  -2.594  0.00  0.00    -0.245 OA
BRANCH  23  25
ATOM     25  O   UNL     1       1.437   4.745  -4.721  0.00  0.00    -0.464 OA
ATOM     26  C   UNL     1       0.208   5.518  -4.682  0.00  0.00    +0.280 C 
ENDBRANCH  23  25
ENDBRANCH  22  23
ENDBRANCH   5  17
TORSDOF 6
