REMARK  Name = ZINC18198764
REMARK  7 active torsions:
REMARK  status: ('A' for Active; 'I' for Inactive)
REMARK    1  A    between atoms: C_1  and  O_2
REMARK    2  A    between atoms: O_2  and  C_3
REMARK    3  A    between atoms: C_6  and  C_10
REMARK    4  A    between atoms: C_8  and  O_9
REMARK    5  A    between atoms: C_23  and  S_25
REMARK    6  A    between atoms: S_25  and  C_26
REMARK    7  A    between atoms: C_26  and  C_27
REMARK                            x       y       z     vdW  Elec       q    Type
REMARK                         _______ _______ _______ _____ _____    ______ ____
ROOT
ATOM      1  C   UNL     1       1.158   9.370   2.638  0.00  0.00    +0.176 C 
ATOM      2  C   UNL     1       1.484  10.444   1.624  0.00  0.00    +0.041 C 
ATOM      3  C   UNL     1       1.456  10.208   0.295  0.00  0.00    +0.020 C 
ATOM      4  C   UNL     1       1.758  11.309  -0.694  0.00  0.00    +0.052 C 
ATOM      5  C   UNL     1       2.768  12.283  -0.086  0.00  0.00    +0.014 C 
ATOM      6  C   UNL     1       2.171  12.852   1.206  0.00  0.00    +0.080 C 
ATOM      7  C   UNL     1       1.818  11.716   2.124  0.00  0.00    +0.163 C 
ATOM      8  O   UNL     1       1.821  11.900   3.325  0.00  0.00    -0.292 OA
ATOM      9  N   UNL     1       1.152   8.968  -0.214  0.00  0.00    -0.287 N 
ATOM     10  C   UNL     1       1.157   7.888   0.653  0.00  0.00    +0.219 A 
ATOM     11  N   UNL     1       1.166   8.061   1.998  0.00  0.00    -0.220 N 
ATOM     12  N   UNL     1       1.179   6.787   2.563  0.00  0.00    -0.141 NA
ATOM     13  C   UNL     1       1.174   5.929   1.565  0.00  0.00    +0.211 A 
ATOM     14  N   UNL     1       1.165   6.606   0.408  0.00  0.00    -0.187 NA
ATOM     15  H   UNL     1       0.940   8.853  -1.154  0.00  0.00    +0.155 HD
ENDROOT
BRANCH   1  19
ATOM     16  C   UNL     1      -2.715  10.113   4.294  0.00  0.00    +0.161 A 
ATOM     17  C   UNL     1      -2.570   9.893   2.934  0.00  0.00    +0.050 A 
ATOM     18  C   UNL     1      -1.317   9.653   2.401  0.00  0.00    +0.010 A 
ATOM     19  C   UNL     1      -0.206   9.632   3.224  0.00  0.00    -0.015 A 
ATOM     20  C   UNL     1      -0.344   9.845   4.583  0.00  0.00    +0.055 A 
ATOM     21  C   UNL     1      -1.596  10.091   5.122  0.00  0.00    +0.159 A 
BRANCH  16  23
ATOM     22  C   UNL     1      -5.049  10.358   3.910  0.00  0.00    +0.277 C 
ATOM     23  O   UNL     1      -3.946  10.350   4.819  0.00  0.00    -0.491 OA
ENDBRANCH  16  23
BRANCH  21  24
ATOM     24  O   UNL     1      -1.733  10.307   6.458  0.00  0.00    -0.503 OA
ATOM     25  H   UNL     1      -1.884   9.503   6.972  0.00  0.00    +0.292 HD
ENDBRANCH  21  24
ENDBRANCH   1  19
BRANCH  13  26
ATOM     26  S   UNL     1       1.186   4.174   1.724  0.00  0.00    -0.078 S 
BRANCH  26  27
ATOM     27  C   UNL     1       1.173   3.579   0.010  0.00  0.00    +0.132 C 
BRANCH  27  28
ATOM     28  C   UNL     1       1.181   2.072   0.002  0.00  0.00    +0.051 A 
ATOM     29  C   UNL     1      -0.017   1.382   0.010  0.00  0.00    +0.024 A 
ATOM     30  C   UNL     1       0.002  -0.004   0.002  0.00  0.00    +0.003 A 
ATOM     31  C   UNL     1       1.230  -0.647  -0.013  0.00  0.00    +0.020 A 
ATOM     32  C   UNL     1       2.387   0.109  -0.020  0.00  0.00    +0.111 A 
ATOM     33  N   UNL     1       2.331   1.427  -0.012  0.00  0.00    -0.259 NA
ENDBRANCH  27  28
ENDBRANCH  26  27
ENDBRANCH  13  26
TORSDOF 6
