REMARK  Name = ZINC12389921
REMARK  6 active torsions:
REMARK  status: ('A' for Active; 'I' for Inactive)
REMARK    1  A    between atoms: C_5  and  C_7
REMARK    2  A    between atoms: C_7  and  N_8
REMARK    3  A    between atoms: C_9  and  C_11
REMARK    4  A    between atoms: C_11  and  C_12
REMARK    5  A    between atoms: C_12  and  C_13
REMARK    6  A    between atoms: C_13  and  N_14
REMARK                            x       y       z     vdW  Elec       q    Type
REMARK                         _______ _______ _______ _____ _____    ______ ____
ROOT
ATOM      1  N   UNL     1      -1.150  -0.694   0.111  0.00  0.00    -0.299 N 
ATOM      2  C   UNL     1       0.002  -0.004   0.002  0.00  0.00    +0.303 C 
ATOM      3  O   UNL     1       1.058  -0.597  -0.102  0.00  0.00    -0.253 OA
ATOM      4  N   UNL     1      -0.016   1.344   0.009  0.00  0.00    -0.280 N 
ATOM      5  C   UNL     1       1.236   2.115   0.006  0.00  0.00    +0.114 C 
ATOM      6  C   UNL     1       1.324   2.916  -1.299  0.00  0.00    +0.056 C 
ATOM      7  C   UNL     1      -0.008   3.570  -1.563  0.00  0.00    -0.016 A 
ATOM      8  C   UNL     1      -0.303   4.676  -2.452  0.00  0.00    +0.005 A 
ATOM      9  C   UNL     1       0.495   5.452  -3.298  0.00  0.00    +0.030 A 
ATOM     10  C   UNL     1      -0.136   6.441  -4.013  0.00  0.00    +0.042 A 
ATOM     11  C   UNL     1      -1.499   6.669  -3.909  0.00  0.00    +0.022 A 
ATOM     12  C   UNL     1      -2.312   5.917  -3.079  0.00  0.00    +0.027 A 
ATOM     13  C   UNL     1      -1.699   4.906  -2.341  0.00  0.00    +0.047 A 
ATOM     14  N   UNL     1      -2.191   3.998  -1.448  0.00  0.00    -0.356 N 
ATOM     15  H   UNL     1      -3.120   3.926  -1.179  0.00  0.00    +0.166 HD
ATOM     16  C   UNL     1      -1.173   3.205  -0.987  0.00  0.00    +0.038 A 
ATOM     17  C   UNL     1      -1.291   2.082   0.013  0.00  0.00    +0.162 C 
ATOM     18 CL   UNL     1       0.804   7.437  -5.080  0.00  0.00    -0.084 Cl
ATOM     19  H   UNL     1      -1.998  -0.224   0.122  0.00  0.00    +0.150 HD
ENDROOT
BRANCH   1  20
ATOM     20  C   UNL     1      -1.122  -2.155   0.213  0.00  0.00    +0.106 C 
BRANCH  20  21
ATOM     21  C   UNL     1      -2.553  -2.686   0.326  0.00  0.00    +0.028 C 
BRANCH  21  22
ATOM     22  C   UNL     1      -2.523  -4.212   0.432  0.00  0.00    +0.097 C 
BRANCH  22  24
ATOM     23  N   UNL     1      -4.153  -6.061   0.648  0.00  0.00    -0.311 N 
ATOM     24  C   UNL     1      -3.933  -4.735   0.543  0.00  0.00    +0.213 C 
ATOM     25  O   UNL     1      -4.868  -3.964   0.537  0.00  0.00    -0.276 OA
ATOM     26  H   UNL     1      -3.405  -6.678   0.653  0.00  0.00    +0.149 HD
BRANCH  23  27
ATOM     27  C   UNL     1      -5.523  -6.569   0.756  0.00  0.00    +0.141 C 
BRANCH  27  32
ATOM     28  C   UNL     1      -5.724 -10.227  -0.157  0.00  0.00    +0.000 A 
ATOM     29  C   UNL     1      -5.442 -10.831   1.054  0.00  0.00    +0.001 A 
ATOM     30  C   UNL     1      -5.186 -10.056   2.169  0.00  0.00    +0.020 A 
ATOM     31  C   UNL     1      -5.212  -8.676   2.073  0.00  0.00    +0.046 A 
ATOM     32  C   UNL     1      -5.494  -8.072   0.861  0.00  0.00    -0.012 A 
ATOM     33  C   UNL     1      -5.755  -8.848  -0.253  0.00  0.00    +0.006 A 
ATOM     34 CL   UNL     1      -4.891  -7.702   3.474  0.00  0.00    -0.083 Cl
ENDBRANCH  27  32
ENDBRANCH  23  27
ENDBRANCH  22  24
ENDBRANCH  21  22
ENDBRANCH  20  21
ENDBRANCH   1  20
TORSDOF 6
