REMARK  Name = ZINC39955720
REMARK  4 active torsions:
REMARK  status: ('A' for Active; 'I' for Inactive)
REMARK    1  A    between atoms: C_4  and  C_7
REMARK    2  A    between atoms: C_7  and  O_8
REMARK    3  A    between atoms: O_8  and  C_9
REMARK    4  A    between atoms: C_14  and  C_15
REMARK                            x       y       z     vdW  Elec       q    Type
REMARK                         _______ _______ _______ _____ _____    ______ ____
ROOT
ATOM      1  C   UNL     1       5.008  -1.430   3.949  0.00  0.00    +0.047 C 
ATOM      2  C   UNL     1       4.640  -2.651   4.793  0.00  0.00    +0.105 C 
ATOM      3  C   UNL     1       4.046  -2.198   6.097  0.00  0.00    +0.215 C 
ATOM      4  O   UNL     1       3.361  -2.978   6.725  0.00  0.00    -0.276 OA
ATOM      5  N   UNL     1       4.239  -0.975   6.593  0.00  0.00    -0.294 N 
ATOM      6  C   UNL     1       5.021   0.064   5.949  0.00  0.00    +0.190 C 
ATOM      7  C   UNL     1       5.857  -0.474   4.793  0.00  0.00    +0.129 C 
ATOM      8  C   UNL     1       6.363   0.638   3.917  0.00  0.00    +0.257 C 
ATOM      9  O   UNL     1       7.560   0.493   3.318  0.00  0.00    -0.270 OA
ATOM     10  N   UNL     1       5.693   1.735   3.714  0.00  0.00    -0.177 NA
ATOM     11  C   UNL     1       4.514   1.926   4.371  0.00  0.00    +0.236 A 
ATOM     12  N   UNL     1       4.160   1.138   5.453  0.00  0.00    -0.288 N 
ATOM     13  C   UNL     1       2.944   1.572   5.886  0.00  0.00    +0.072 A 
ATOM     14  C   UNL     1       2.102   1.160   6.912  0.00  0.00    +0.028 A 
ATOM     15  C   UNL     1       0.909   1.847   7.067  0.00  0.00    +0.002 A 
ATOM     16  C   UNL     1       0.557   2.901   6.241  0.00  0.00    +0.002 A 
ATOM     17  C   UNL     1       1.376   3.333   5.214  0.00  0.00    +0.030 A 
ATOM     18  C   UNL     1       2.588   2.653   5.038  0.00  0.00    +0.091 A 
ATOM     19  N   UNL     1       3.583   2.819   4.151  0.00  0.00    -0.210 NA
ATOM     20  H   UNL     1       3.827  -0.764   7.445  0.00  0.00    +0.151 HD
ENDROOT
BRANCH   1  26
ATOM     21  C   UNL     1       5.319  -1.605   1.466  0.00  0.00    +0.124 A 
ATOM     22  C   UNL     1       6.048  -2.007   0.357  0.00  0.00    +0.046 A 
ATOM     23  C   UNL     1       7.245  -2.676   0.525  0.00  0.00    +0.004 A 
ATOM     24  C   UNL     1       7.716  -2.945   1.797  0.00  0.00    +0.001 A 
ATOM     25  C   UNL     1       6.991  -2.545   2.904  0.00  0.00    +0.007 A 
ATOM     26  C   UNL     1       5.796  -1.871   2.742  0.00  0.00    -0.001 A 
BRANCH  21  27
ATOM     27  O   UNL     1       4.141  -0.946   1.304  0.00  0.00    -0.487 OA
BRANCH  27  28
ATOM     28  C   UNL     1       3.711  -0.707  -0.038  0.00  0.00    +0.264 C 
BRANCH  28  32
ATOM     29  C   UNL     1      -0.017   1.378   0.010  0.00  0.00    +0.000 A 
ATOM     30  C   UNL     1       1.171   2.086   0.002  0.00  0.00    +0.000 A 
ATOM     31  C   UNL     1       2.377   1.411  -0.013  0.00  0.00    +0.007 A 
ATOM     32  C   UNL     1       2.396   0.029  -0.020  0.00  0.00    -0.010 A 
ATOM     33  C   UNL     1       1.208  -0.679  -0.012  0.00  0.00    +0.007 A 
ATOM     34  C   UNL     1       0.002  -0.004   0.002  0.00  0.00    +0.000 A 
ENDBRANCH  28  32
ENDBRANCH  27  28
ENDBRANCH  21  27
ENDBRANCH   1  26
TORSDOF 4
