REMARK  Name = ZINC53577528
REMARK  7 active torsions:
REMARK  status: ('A' for Active; 'I' for Inactive)
REMARK    1  A    between atoms: C_1  and  C_2
REMARK    2  A    between atoms: C_4  and  C_8
REMARK    3  A    between atoms: C_5  and  C_7
REMARK    4  A    between atoms: N_10  and  N_11
REMARK    5  A    between atoms: N_14  and  C_15
REMARK    6  A    between atoms: C_15  and  C_17
REMARK    7  A    between atoms: C_15  and  C_18
REMARK                            x       y       z     vdW  Elec       q    Type
REMARK                         _______ _______ _______ _____ _____    ______ ____
ROOT
ATOM      1  N   UNL     1      -3.646  -4.782  -0.705  0.00  0.00    -0.218 N 
ATOM      2  C   UNL     1      -4.961  -4.624  -0.451  0.00  0.00    +0.316 C 
ATOM      3  O   UNL     1      -5.689  -5.596  -0.392  0.00  0.00    -0.251 OA
ATOM      4  N   UNL     1      -5.467  -3.390  -0.262  0.00  0.00    -0.292 N 
ATOM      5  H   UNL     1      -3.282  -5.670  -0.841  0.00  0.00    +0.174 HD
ATOM      6  H   UNL     1      -4.886  -2.615  -0.309  0.00  0.00    +0.151 HD
ENDROOT
BRANCH   1   9
ATOM      7  C   UNL     1      -1.493  -3.820  -1.027  0.00  0.00    +0.263 C 
ATOM      8  O   UNL     1      -1.036  -4.934  -1.197  0.00  0.00    -0.269 OA
ATOM      9  N   UNL     1      -2.807  -3.662  -0.773  0.00  0.00    -0.229 N 
ATOM     10  H   UNL     1      -3.172  -2.774  -0.637  0.00  0.00    +0.173 HD
BRANCH   7  14
ATOM     11  C   UNL     1       0.247   0.976  -0.975  0.00  0.00    +0.086 C 
ATOM     12  C   UNL     1       0.138  -0.524  -1.072  0.00  0.00    +0.103 A 
ATOM     13  C   UNL     1      -0.991  -1.233  -0.919  0.00  0.00    +0.057 A 
ATOM     14  C   UNL     1      -0.610  -2.642  -1.098  0.00  0.00    +0.079 A 
ATOM     15  C   UNL     1       0.732  -2.631  -1.345  0.00  0.00    +0.114 A 
ATOM     16  O   UNL     1       1.153  -1.363  -1.330  0.00  0.00    -0.464 OA
ATOM     17  C   UNL     1       1.592  -3.843  -1.598  0.00  0.00    +0.087 C 
ENDBRANCH   7  14
ENDBRANCH   1   9
BRANCH   4  18
ATOM     18  C   UNL     1      -6.896  -3.219   0.015  0.00  0.00    +0.104 C 
ATOM     19  C   UNL     1      -7.142  -3.336   1.520  0.00  0.00    +0.033 C 
BRANCH  18  20
ATOM     20  C   UNL     1      -7.340  -1.860  -0.462  0.00  0.00    +0.008 A 
ATOM     21  C   UNL     1      -6.433  -0.819  -0.524  0.00  0.00    +0.011 A 
ATOM     22  C   UNL     1      -6.840   0.428  -0.962  0.00  0.00    +0.039 A 
ATOM     23  C   UNL     1      -8.156   0.635  -1.339  0.00  0.00    +0.126 A 
ATOM     24  C   UNL     1      -9.065  -0.407  -1.277  0.00  0.00    +0.077 A 
ATOM     25  C   UNL     1      -8.656  -1.657  -0.844  0.00  0.00    +0.131 A 
ATOM     26  F   UNL     1      -9.540  -2.676  -0.789  0.00  0.00    -0.205 F 
ATOM     27  F   UNL     1      -8.553   1.853  -1.766  0.00  0.00    -0.205 F 
ENDBRANCH  18  20
ENDBRANCH   4  18
TORSDOF 4
