REMARK  Name = ZINC12199276
REMARK  12 active torsions:
REMARK  status: ('A' for Active; 'I' for Inactive)
REMARK    1  A    between atoms: C_1  and  C_2
REMARK    2  A    between atoms: C_2  and  C_3
REMARK    3  A    between atoms: C_3  and  C_20
REMARK    4  A    between atoms: N_6  and  C_10
REMARK    5  A    between atoms: C_10  and  C_11
REMARK    6  A    between atoms: C_11  and  C_12
REMARK    7  A    between atoms: C_15  and  O_18
REMARK    8  A    between atoms: O_18  and  C_19
REMARK    9  A    between atoms: C_25  and  C_26
REMARK   10  A    between atoms: C_25  and  N_69
REMARK   11  A    between atoms: C_29  and  N_31
REMARK   12  A    between atoms: C_32  and  C_34
REMARK                            x       y       z     vdW  Elec       q    Type
REMARK                         _______ _______ _______ _____ _____    ______ ____
ROOT
ATOM      1  C   UNL     1       2.165   0.655  -0.015  0.00  0.00    +0.115 C 
ATOM      2  C   UNL     1       1.230   1.848   0.000  0.00  0.00    +0.247 C 
ATOM      3  O   UNL     1       1.538   3.020   0.003  0.00  0.00    -0.273 OA
ATOM      4  N   UNL     1      -0.016   1.334   0.009  0.00  0.00    -0.224 N 
ATOM      5  C   UNL     1       0.002  -0.004   0.002  0.00  0.00    +0.309 C 
ATOM      6  O   UNL     1      -0.999  -0.693   0.008  0.00  0.00    -0.252 OA
ATOM      7  N   UNL     1       1.252  -0.501  -0.013  0.00  0.00    -0.285 N 
ATOM      8  H   UNL     1       1.503  -1.438  -0.019  0.00  0.00    +0.151 HD
ENDROOT
BRANCH   1   9
ATOM      9  C   UNL     1       3.023   0.660  -1.282  0.00  0.00    +0.018 C 
ATOM     10  C   UNL     1       4.030   1.812  -1.213  0.00  0.00    -0.013 C 
ATOM     11  C   UNL     1       4.844   1.850  -2.508  0.00  0.00    -0.078 C 
ATOM     12  C   UNL     1       2.995   0.915  -3.765  0.00  0.00    -0.078 C 
ATOM     13  C   UNL     1       2.126   0.850  -2.507  0.00  0.00    -0.013 C 
ATOM     14  N   UNL     1       3.924   2.059  -3.647  0.00  0.00    +0.383 N 
ATOM     15  H   UNL     1       3.380   2.914  -3.484  0.00  0.00    -0.081 HD
BRANCH  14  16
ATOM     16  C   UNL     1       4.696   2.213  -4.897  0.00  0.00    -0.036 C 
BRANCH  16  17
ATOM     17  C   UNL     1       5.470   3.505  -4.834  0.00  0.00    -0.025 A 
ATOM     18  C   UNL     1       6.723   3.726  -4.370  0.00  0.00    +0.011 A 
ATOM     19  C   UNL     1       7.240   5.008  -4.414  0.00  0.00    +0.031 A 
ATOM     20  C   UNL     1       6.465   6.011  -4.913  0.00  0.00    +0.072 A 
ATOM     21  S   UNL     1       4.967   5.140  -5.344  0.00  0.00    -0.080 S 
BRANCH  20  22
ATOM     22  N   UNL     1       6.764   7.369  -5.051  0.00  0.00    -0.280 N 
ATOM     23  C   UNL     1       5.851   8.210  -5.574  0.00  0.00    +0.214 C 
ATOM     24  O   UNL     1       4.769   7.789  -5.924  0.00  0.00    -0.276 OA
ATOM     25  C   UNL     1       6.174   9.675  -5.722  0.00  0.00    +0.109 C 
ATOM     26  H   UNL     1       7.630   7.705  -4.770  0.00  0.00    +0.155 HD
ENDBRANCH  20  22
ENDBRANCH  16  17
ENDBRANCH  14  16
ENDBRANCH   1   9
BRANCH   1  28
ATOM     27  C   UNL     1       2.170   0.567   2.482  0.00  0.00    +0.006 C 
ATOM     28  C   UNL     1       3.050   0.645   1.233  0.00  0.00    +0.032 C 
ENDBRANCH   1  28
BRANCH   4  29
ATOM     29  C   UNL     1      -1.239   2.140   0.020  0.00  0.00    +0.122 C 
BRANCH  29  30
ATOM     30  C   UNL     1      -1.657   2.413   1.466  0.00  0.00    +0.054 C 
BRANCH  30  31
ATOM     31  C   UNL     1      -2.916   3.243   1.476  0.00  0.00    -0.046 A 
ATOM     32  C   UNL     1      -2.832   4.623   1.489  0.00  0.00    +0.007 A 
ATOM     33  C   UNL     1      -3.984   5.386   1.493  0.00  0.00    +0.046 A 
ATOM     34  C   UNL     1      -5.225   4.766   1.496  0.00  0.00    +0.120 A 
ATOM     35  C   UNL     1      -5.306   3.381   1.489  0.00  0.00    +0.046 A 
ATOM     36  C   UNL     1      -4.151   2.623   1.480  0.00  0.00    +0.007 A 
BRANCH  34  37
ATOM     37  O   UNL     1      -6.360   5.514   1.505  0.00  0.00    -0.495 OA
ATOM     38  C   UNL     1      -6.200   6.934   1.512  0.00  0.00    +0.277 C 
ENDBRANCH  34  37
ENDBRANCH  30  31
ENDBRANCH  29  30
ENDBRANCH   4  29
TORSDOF 9
