REMARK  Name = ZINC10106326
REMARK  6 active torsions:
REMARK  status: ('A' for Active; 'I' for Inactive)
REMARK    1  A    between atoms: C_2  and  C_3
REMARK    2  A    between atoms: C_3  and  N_4
REMARK    3  A    between atoms: C_8  and  S_22
REMARK    4  A    between atoms: N_13  and  C_14
REMARK    5  A    between atoms: C_14  and  C_16
REMARK    6  A    between atoms: S_22  and  N_25
REMARK                            x       y       z     vdW  Elec       q    Type
REMARK                         _______ _______ _______ _____ _____    ______ ____
ROOT
ATOM      1  N   UNL     1      -3.154   2.922   4.833  0.00  0.00    -0.310 N 
ATOM      2  C   UNL     1      -2.369   2.688   3.720  0.00  0.00    +0.059 A 
ATOM      3  C   UNL     1      -1.427   3.542   3.123  0.00  0.00    +0.029 A 
ATOM      4  C   UNL     1      -0.723   3.145   2.011  0.00  0.00    +0.030 A 
ATOM      5  C   UNL     1      -0.927   1.900   1.439  0.00  0.00    +0.106 A 
ATOM      6  C   UNL     1      -1.849   1.038   2.007  0.00  0.00    +0.045 A 
ATOM      7  C   UNL     1      -2.549   1.433   3.122  0.00  0.00    +0.041 A 
ATOM      8  S   UNL     1      -3.787   0.671   4.142  0.00  0.00    -0.052 S 
ATOM      9  C   UNL     1      -4.018   1.968   5.270  0.00  0.00    +0.167 A 
ATOM     10  N   UNL     1      -4.843   2.017   6.314  0.00  0.00    -0.154 NA
ENDROOT
BRANCH   5  11
ATOM     11  S   UNL     1      -0.017   1.417   0.010  0.00  0.00    +0.056 S 
ATOM     12  O   UNL     1       0.002  -0.004   0.002  0.00  0.00    -0.153 OA
ATOM     13  O   UNL     1       1.172   2.195   0.003  0.00  0.00    -0.153 OA
BRANCH  11  14
ATOM     14  N   UNL     1      -0.897   1.885  -1.312  0.00  0.00    -0.204 NA
ATOM     15  H   UNL     1      -0.361   1.601  -2.229  0.00  0.00    +0.144 HD
ATOM     16  H   UNL     1      -1.036   2.977  -1.292  0.00  0.00    +0.144 HD
ENDBRANCH  11  14
ENDBRANCH   5  11
BRANCH  10  17
ATOM     17  C   UNL     1      -5.623   0.978   6.593  0.00  0.00    +0.267 C 
ATOM     18  O   UNL     1      -5.584  -0.017   5.895  0.00  0.00    -0.271 OA
BRANCH  17  19
ATOM     19  C   UNL     1      -6.558   1.034   7.774  0.00  0.00    +0.206 C 
ATOM     20  C   UNL     1      -5.755   1.119   9.091  0.00  0.00    +0.043 C 
ATOM     21  C   UNL     1      -6.568   0.257  10.083  0.00  0.00    +0.031 C 
ATOM     22  C   UNL     1      -7.766  -0.246   9.248  0.00  0.00    +0.161 C 
ATOM     23  O   UNL     1      -7.309  -0.195   7.879  0.00  0.00    -0.367 OA
ENDBRANCH  17  19
ENDBRANCH  10  17
BRANCH   1  24
ATOM     24  C   UNL     1      -3.054   4.199   5.544  0.00  0.00    +0.212 C 
BRANCH  24  26
ATOM     25  C   UNL     1      -5.387   4.779   6.648  0.00  0.00    +0.005 C 
ATOM     26  C   UNL     1      -4.352   4.521   6.158  0.00  0.00    -0.084 C 
ENDBRANCH  24  26
ENDBRANCH   1  24
TORSDOF 6
