REMARK  Name = ZINC12127240
REMARK  9 active torsions:
REMARK  status: ('A' for Active; 'I' for Inactive)
REMARK    1  A    between atoms: C_1  and  C_2
REMARK    2  A    between atoms: C_2  and  N_3
REMARK    3  A    between atoms: C_4  and  C_25
REMARK    4  A    between atoms: C_7  and  S_8
REMARK    5  A    between atoms: S_8  and  C_9
REMARK    6  A    between atoms: C_9  and  C_10
REMARK    7  A    between atoms: N_15  and  C_16
REMARK    8  A    between atoms: C_22  and  C_24
REMARK    9  A    between atoms: C_25  and  N_26
REMARK                            x       y       z     vdW  Elec       q    Type
REMARK                         _______ _______ _______ _____ _____    ______ ____
ROOT
ATOM      1  S   UNL     1       7.162   6.638  -1.985  0.00  0.00    -0.077 S 
ENDROOT
BRANCH   1   6
ATOM      2  N   UNL     1       9.118   8.411  -2.914  0.00  0.00    -0.305 N 
ATOM      3  C   UNL     1      10.449   8.339  -3.219  0.00  0.00    +0.152 A 
ATOM      4  N   UNL     1      10.829   7.110  -3.007  0.00  0.00    -0.132 NA
ATOM      5  N   UNL     1       9.838   6.407  -2.588  0.00  0.00    -0.122 NA
ATOM      6  C   UNL     1       8.763   7.156  -2.509  0.00  0.00    +0.192 A 
BRANCH   2   8
ATOM      7  C   UNL     1       8.159  10.257  -1.628  0.00  0.00    +0.027 C 
ATOM      8  C   UNL     1       8.253   9.590  -3.002  0.00  0.00    +0.122 C 
ENDBRANCH   2   8
BRANCH   3   9
ATOM      9  C   UNL     1      11.315   9.469  -3.713  0.00  0.00    +0.184 C 
BRANCH   9  10
ATOM     10  N   UNL     1      12.105  10.001  -2.600  0.00  0.00    -0.294 N 
ATOM     11  C   UNL     1      11.601  11.148  -1.827  0.00  0.00    +0.108 C 
ATOM     12  C   UNL     1      11.165  10.645  -0.443  0.00  0.00    +0.019 C 
ATOM     13  C   UNL     1      12.339  10.628   0.519  0.00  0.00    +0.002 C 
ATOM     14  C   UNL     1      13.407   9.609   0.165  0.00  0.00    +0.009 C 
ATOM     15  C   UNL     1      14.102   9.985  -1.145  0.00  0.00    +0.096 C 
ATOM     16  C   UNL     1      13.280   9.447  -2.297  0.00  0.00    +0.216 C 
ATOM     17  O   UNL     1      13.691   8.509  -2.947  0.00  0.00    -0.276 OA
ENDBRANCH   9  10
ENDBRANCH   3   9
ENDBRANCH   1   6
BRANCH   1  18
ATOM     18  C   UNL     1       7.495   4.894  -1.634  0.00  0.00    +0.173 C 
BRANCH  18  19
ATOM     19  C   UNL     1       6.231   4.227  -1.156  0.00  0.00    +0.231 C 
ATOM     20  O   UNL     1       5.206   4.868  -1.063  0.00  0.00    -0.274 OA
ATOM     21  N   UNL     1       6.240   2.919  -0.833  0.00  0.00    -0.239 N 
ATOM     22  C   UNL     1       5.109   2.322  -0.406  0.00  0.00    +0.306 C 
ATOM     23  O   UNL     1       4.082   2.965  -0.312  0.00  0.00    -0.252 OA
ATOM     24  N   UNL     1       5.118   1.014  -0.082  0.00  0.00    -0.296 N 
ATOM     25  H   UNL     1       7.060   2.406  -0.907  0.00  0.00    +0.159 HD
ATOM     26  H   UNL     1       5.939   0.502  -0.157  0.00  0.00    +0.151 HD
BRANCH  24  27
ATOM     27  C   UNL     1       3.889   0.366   0.382  0.00  0.00    +0.077 C 
ATOM     28  C   UNL     1       3.734   0.587   1.888  0.00  0.00    +0.022 C 
ATOM     29  C   UNL     1       2.450  -0.090   2.373  0.00  0.00    +0.002 C 
ATOM     30  C   UNL     1       2.524  -1.591   2.082  0.00  0.00    +0.000 C 
ATOM     31  C   UNL     1       2.679  -1.811   0.576  0.00  0.00    +0.005 C 
ATOM     32  C   UNL     1       3.963  -1.134   0.091  0.00  0.00    +0.006 C 
ATOM     33  C   UNL     1       4.118  -1.355  -1.415  0.00  0.00    +0.009 C 
ENDBRANCH  24  27
ENDBRANCH  18  19
ENDBRANCH   1  18
TORSDOF 7
