REMARK  Name = ZINC66445096
REMARK  4 active torsions:
REMARK  status: ('A' for Active; 'I' for Inactive)
REMARK    1  A    between atoms: C_1  and  C_2
REMARK    2  A    between atoms: C_8  and  C_12
REMARK    3  A    between atoms: N_14  and  C_15
REMARK    4  A    between atoms: C_22  and  C_25
REMARK                            x       y       z     vdW  Elec       q    Type
REMARK                         _______ _______ _______ _____ _____    ______ ____
ROOT
ATOM      1  C   UNL     1       4.612  -2.986   2.646  0.00  0.00    +0.036 A 
ATOM      2  C   UNL     1       3.796  -3.802   3.428  0.00  0.00    +0.025 A 
ATOM      3  C   UNL     1       4.349  -4.763   4.245  0.00  0.00    +0.029 A 
ATOM      4  C   UNL     1       5.728  -4.922   4.291  0.00  0.00    +0.066 A 
ATOM      5  C   UNL     1       6.558  -4.105   3.506  0.00  0.00    +0.091 A 
ATOM      6  C   UNL     1       5.985  -3.136   2.677  0.00  0.00    +0.053 A 
ATOM      7  N   UNL     1       7.838  -4.484   3.755  0.00  0.00    -0.230 NA
ATOM      8  C   UNL     1       7.846  -5.456   4.620  0.00  0.00    +0.137 A 
ATOM      9  N   UNL     1       6.573  -5.767   4.986  0.00  0.00    -0.340 N 
ATOM     10  H   UNL     1       6.308  -6.455   5.617  0.00  0.00    +0.167 HD
ENDROOT
BRANCH   8  11
ATOM     11  C   UNL     1       9.085  -6.138   5.140  0.00  0.00    +0.184 C 
ATOM     12  C   UNL     1       9.923  -6.673   3.960  0.00  0.00    +0.042 C 
ATOM     13  C   UNL     1      10.427  -8.037   4.505  0.00  0.00    +0.031 C 
ATOM     14  C   UNL     1       9.217  -8.472   5.370  0.00  0.00    +0.161 C 
ATOM     15  O   UNL     1       8.717  -7.257   5.955  0.00  0.00    -0.369 OA
ENDBRANCH   8  11
BRANCH   1  18
ATOM     16  C   UNL     1       2.928  -1.358   2.219  0.00  0.00    +0.239 C 
ATOM     17  O   UNL     1       2.381  -1.670   3.256  0.00  0.00    -0.273 OA
ATOM     18  N   UNL     1       4.036  -2.013   1.819  0.00  0.00    -0.284 N 
ATOM     19  H   UNL     1       4.435  -1.809   0.959  0.00  0.00    +0.155 HD
BRANCH  16  27
ATOM     20  C   UNL     1       0.569   2.347   0.720  0.00  0.00    +0.044 C 
ATOM     21  C   UNL     1       0.219   0.902   1.083  0.00  0.00    +0.082 C 
ATOM     22  C   UNL     1      -1.163   0.768   1.744  0.00  0.00    +0.046 C 
ATOM     23  C   UNL     1      -0.782   0.851   3.242  0.00  0.00    +0.099 C 
ATOM     24  C   UNL     1       0.644   0.357   3.291  0.00  0.00    +0.217 C 
ATOM     25  O   UNL     1       1.237   0.061   4.307  0.00  0.00    -0.276 OA
ATOM     26  N   UNL     1       1.172   0.291   2.042  0.00  0.00    -0.275 N 
ATOM     27  C   UNL     1       2.368  -0.240   1.378  0.00  0.00    +0.173 C 
ATOM     28  C   UNL     1       2.107  -0.781  -0.043  0.00  0.00    +0.103 C 
ATOM     29  S   UNL     1       0.368  -0.253  -0.339  0.00  0.00    -0.133 S 
ENDBRANCH  16  27
ENDBRANCH   1  18
TORSDOF 3
