REMARK  Name = ZINC35890945
REMARK  12 active torsions:
REMARK  status: ('A' for Active; 'I' for Inactive)
REMARK    1  A    between atoms: C_1  and  C_2
REMARK    2  A    between atoms: C_2  and  C_4
REMARK    3  A    between atoms: C_2  and  N_10
REMARK    4  A    between atoms: C_11  and  C_13
REMARK    5  A    between atoms: C_13  and  C_15
REMARK    6  A    between atoms: C_13  and  O_34
REMARK    7  A    between atoms: C_15  and  N_16
REMARK    8  A    between atoms: N_16  and  C_17
REMARK    9  A    between atoms: N_16  and  C_27
REMARK   10  A    between atoms: C_17  and  C_18
REMARK   11  A    between atoms: C_27  and  C_28
REMARK   12  A    between atoms: O_34  and  C_35
REMARK                            x       y       z     vdW  Elec       q    Type
REMARK                         _______ _______ _______ _____ _____    ______ ____
ROOT
ATOM      1  C   UNL     1       0.739  -1.153   4.145  0.00  0.00    +0.242 C 
ENDROOT
BRANCH   1   3
ATOM      2  N   UNL     1       0.473  -0.004   1.970  0.00  0.00    -0.306 N 
ATOM      3  C   UNL     1      -0.107  -0.509   3.078  0.00  0.00    +0.252 C 
ATOM      4  O   UNL     1      -1.311  -0.444   3.215  0.00  0.00    -0.272 OA
ATOM      5  H   UNL     1       1.435  -0.056   1.861  0.00  0.00    +0.149 HD
BRANCH   2   7
ATOM      6  C   UNL     1      -0.596   2.089   1.294  0.00  0.00    +0.033 C 
ATOM      7  C   UNL     1      -0.350   0.622   0.933  0.00  0.00    +0.100 C 
BRANCH   7   8
ATOM      8  C   UNL     1       0.366   0.544  -0.391  0.00  0.00    -0.027 A 
ATOM      9  C   UNL     1       1.732   0.747  -0.451  0.00  0.00    +0.005 A 
ATOM     10  C   UNL     1       2.389   0.676  -1.665  0.00  0.00    +0.000 A 
ATOM     11  C   UNL     1       1.679   0.401  -2.820  0.00  0.00    +0.000 A 
ATOM     12  C   UNL     1       0.313   0.197  -2.759  0.00  0.00    +0.000 A 
ATOM     13  C   UNL     1      -0.343   0.264  -1.544  0.00  0.00    +0.005 A 
ENDBRANCH   7   8
ENDBRANCH   2   7
ENDBRANCH   1   3
BRANCH   1  14
ATOM     14  C   UNL     1       1.396  -2.415   3.582  0.00  0.00    -0.023 C 
BRANCH  14  15
ATOM     15  N   UNL     1       2.357  -2.944   4.558  0.00  0.00    +0.387 N 
ATOM     16  H   UNL     1       2.989  -2.210   4.840  0.00  0.00    -0.081 HD
BRANCH  15  17
ATOM     17  C   UNL     1       3.122  -4.040   3.949  0.00  0.00    -0.043 C 
BRANCH  17  18
ATOM     18  C   UNL     1       3.979  -3.497   2.835  0.00  0.00    -0.060 A 
ATOM     19  C   UNL     1       3.480  -3.437   1.547  0.00  0.00    +0.005 A 
ATOM     20  C   UNL     1       4.262  -2.938   0.522  0.00  0.00    +0.050 A 
ATOM     21  C   UNL     1       5.549  -2.497   0.783  0.00  0.00    +0.166 A 
ATOM     22  C   UNL     1       6.052  -2.557   2.081  0.00  0.00    +0.166 A 
ATOM     23  C   UNL     1       5.260  -3.053   3.104  0.00  0.00    +0.051 A 
ATOM     24  O   UNL     1       7.327  -2.070   2.078  0.00  0.00    -0.453 OA
ATOM     25  C   UNL     1       7.744  -2.091   0.700  0.00  0.00    +0.466 C 
ATOM     26  O   UNL     1       6.509  -1.972  -0.032  0.00  0.00    -0.453 OA
ENDBRANCH  17  18
ENDBRANCH  15  17
BRANCH  15  27
ATOM     27  C   UNL     1       1.635  -3.446   5.735  0.00  0.00    -0.046 C 
BRANCH  27  28
ATOM     28  C   UNL     1       2.640  -3.930   6.782  0.00  0.00    +0.102 C 
ATOM     29  C   UNL     1       1.888  -4.507   8.001  0.00  0.00    +0.032 C 
ATOM     30  C   UNL     1       2.750  -3.999   9.190  0.00  0.00    +0.030 C 
ATOM     31  C   UNL     1       3.216  -2.624   8.649  0.00  0.00    +0.160 C 
ATOM     32  O   UNL     1       3.431  -2.828   7.242  0.00  0.00    -0.378 OA
ENDBRANCH  27  28
ENDBRANCH  15  27
ENDBRANCH  14  15
ENDBRANCH   1  14
BRANCH   1  33
ATOM     33  O   UNL     1      -0.084  -1.502   5.260  0.00  0.00    -0.481 OA
BRANCH  33  34
ATOM     34  C   UNL     1      -0.331  -0.526   6.173  0.00  0.00    +0.124 A 
ATOM     35  C   UNL     1      -1.026  -0.824   7.337  0.00  0.00    +0.046 A 
ATOM     36  C   UNL     1      -1.277   0.169   8.264  0.00  0.00    +0.006 A 
ATOM     37  C   UNL     1      -0.835   1.459   8.035  0.00  0.00    +0.038 A 
ATOM     38  C   UNL     1      -0.141   1.759   6.875  0.00  0.00    +0.127 A 
ATOM     39  C   UNL     1       0.117   0.766   5.946  0.00  0.00    +0.084 A 
ATOM     40  F   UNL     1       0.289   3.020   6.653  0.00  0.00    -0.205 F 
ENDBRANCH  33  34
ENDBRANCH   1  33
TORSDOF 11
