REMARK  Name = ZINC26181221
REMARK  10 active torsions:
REMARK  status: ('A' for Active; 'I' for Inactive)
REMARK    1  A    between atoms: C_1  and  N_2
REMARK    2  A    between atoms: N_4  and  C_5
REMARK    3  A    between atoms: C_5  and  C_6
REMARK    4  A    between atoms: C_6  and  C_7
REMARK    5  A    between atoms: C_7  and  C_9
REMARK    6  A    between atoms: C_7  and  C_16
REMARK    7  A    between atoms: N_22  and  C_23
REMARK    8  A    between atoms: C_23  and  C_24
REMARK    9  A    between atoms: C_24  and  C_25
REMARK   10  A    between atoms: C_25  and  C_26
REMARK                            x       y       z     vdW  Elec       q    Type
REMARK                         _______ _______ _______ _____ _____    ______ ____
ROOT
ATOM      1  C   UNL     1      -0.905  -2.313  -3.440  0.00  0.00    +0.142 C 
ATOM      2  N   UNL     1      -0.711  -1.425  -2.291  0.00  0.00    -0.361 N 
ATOM      3  C   UNL     1      -1.785  -1.065  -1.512  0.00  0.00    +0.171 C 
ATOM      4  N   UNL     1      -1.596  -0.384  -0.416  0.00  0.00    -0.358 N 
ATOM      5  N   UNL     1      -3.058  -1.423  -1.887  0.00  0.00    -0.358 N 
ATOM      6  H   UNL     1       0.293  -1.047  -2.052  0.00  0.00    +0.162 HD
ATOM      7  H   UNL     1      -3.905  -1.232  -1.212  0.00  0.00    +0.162 HD
ATOM      8  H   UNL     1      -2.446  -0.157   0.244  0.00  0.00    +0.162 HD
ENDROOT
BRANCH   4   9
ATOM      9  C   UNL     1      -0.251   0.079  -0.065  0.00  0.00    +0.116 C 
BRANCH   9  10
ATOM     10  C   UNL     1      -0.207   1.607  -0.123  0.00  0.00    +0.035 C 
BRANCH  10  11
ATOM     11  C   UNL     1       1.197   2.091   0.244  0.00  0.00    +0.069 C 
BRANCH  11  12
ATOM     12  C   UNL     1       1.276   3.586   0.069  0.00  0.00    -0.038 A 
ATOM     13  C   UNL     1       0.516   4.417   0.872  0.00  0.00    +0.005 A 
ATOM     14  C   UNL     1       0.591   5.788   0.714  0.00  0.00    +0.015 A 
ATOM     15  C   UNL     1       1.418   6.328  -0.253  0.00  0.00    +0.018 A 
ATOM     16  C   UNL     1       2.174   5.497  -1.060  0.00  0.00    +0.015 A 
ATOM     17  C   UNL     1       2.103   4.126  -0.898  0.00  0.00    +0.005 A 
ATOM     18 BR   UNL     1       1.516   8.204  -0.473  0.00  0.00    -0.050 Br
ENDBRANCH  11  12
BRANCH  11  19
ATOM     19  C   UNL     1       1.491   1.738   1.679  0.00  0.00    +0.049 A 
ATOM     20  C   UNL     1       0.473   1.771   2.614  0.00  0.00    +0.024 A 
ATOM     21  C   UNL     1       0.754   1.444   3.931  0.00  0.00    +0.003 A 
ATOM     22  C   UNL     1       2.054   1.094   4.261  0.00  0.00    +0.020 A 
ATOM     23  C   UNL     1       3.020   1.082   3.273  0.00  0.00    +0.111 A 
ATOM     24  N   UNL     1       2.716   1.395   2.029  0.00  0.00    -0.259 NA
ENDBRANCH  11  19
ENDBRANCH  10  11
ENDBRANCH   9  10
ENDBRANCH   4   9
BRANCH   5  25
ATOM     25  C   UNL     1      -3.287  -2.060  -3.187  0.00  0.00    +0.116 C 
BRANCH  25  26
ATOM     26  C   UNL     1      -4.784  -2.308  -3.377  0.00  0.00    +0.027 C 
BRANCH  26  27
ATOM     27  C   UNL     1      -5.023  -2.973  -4.734  0.00  0.00    +0.056 C 
BRANCH  27  28
ATOM     28  C   UNL     1      -6.498  -3.216  -4.921  0.00  0.00    +0.033 A 
ATOM     29  C   UNL     1      -7.245  -2.793  -5.960  0.00  0.00    +0.105 A 
ATOM     30  N   UNL     1      -8.522  -3.230  -5.733  0.00  0.00    -0.352 N 
ATOM     31  H   UNL     1      -9.318  -3.001  -6.457  0.00  0.00    +0.166 HD
ATOM     32  C   UNL     1      -8.512  -3.905  -4.564  0.00  0.00    +0.171 A 
ATOM     33  N   UNL     1      -7.297  -3.897  -4.087  0.00  0.00    -0.350 N 
ATOM     34  H   UNL     1      -6.884  -4.340  -3.168  0.00  0.00    +0.166 HD
ENDBRANCH  27  28
ENDBRANCH  26  27
ENDBRANCH  25  26
ENDBRANCH   5  25
TORSDOF 9
