REMARK  Name = ZINC49574924
REMARK  11 active torsions:
REMARK  status: ('A' for Active; 'I' for Inactive)
REMARK    1  A    between atoms: C_1  and  C_2
REMARK    2  A    between atoms: C_2  and  C_3
REMARK    3  A    between atoms: C_2  and  C_4
REMARK    4  A    between atoms: C_4  and  C_6
REMARK    5  A    between atoms: C_4  and  N_16
REMARK    6  A    between atoms: N_16  and  C_17
REMARK    7  A    between atoms: C_17  and  C_18
REMARK    8  A    between atoms: C_25  and  O_32
REMARK    9  A    between atoms: C_26  and  O_30
REMARK   10  A    between atoms: O_30  and  C_31
REMARK   11  A    between atoms: O_32  and  C_33
REMARK                            x       y       z     vdW  Elec       q    Type
REMARK                         _______ _______ _______ _____ _____    ______ ____
ROOT
ATOM      1  C   UNL     1      -1.421  -2.421   1.521  0.00  0.00    +0.156 C 
ENDROOT
BRANCH   1   2
ATOM      2  C   UNL     1      -1.523  -3.923   1.597  0.00  0.00    +0.124 A 
ATOM      3  N   UNL     1      -1.578  -4.505   2.825  0.00  0.00    -0.309 N 
ATOM      4  H   UNL     1      -1.551  -3.951   3.620  0.00  0.00    +0.170 HD
ATOM      5  C   UNL     1      -1.671  -5.849   2.946  0.00  0.00    +0.259 A 
ATOM      6  O   UNL     1      -1.722  -6.383   4.040  0.00  0.00    -0.267 OA
ATOM      7  C   UNL     1      -1.709  -6.640   1.710  0.00  0.00    +0.068 A 
ATOM      8  C   UNL     1      -1.803  -8.032   1.729  0.00  0.00    +0.064 A 
ATOM      9  C   UNL     1      -1.835  -8.729   0.539  0.00  0.00    +0.162 A 
ATOM     10  C   UNL     1      -1.772  -8.048  -0.681  0.00  0.00    +0.164 A 
ATOM     11  C   UNL     1      -1.678  -6.670  -0.716  0.00  0.00    +0.078 A 
ATOM     12  C   UNL     1      -1.646  -5.949   0.478  0.00  0.00    +0.082 A 
ATOM     13  N   UNL     1      -1.560  -4.595   0.487  0.00  0.00    -0.232 NA
BRANCH  10  14
ATOM     14  O   UNL     1      -1.803  -8.749  -1.845  0.00  0.00    -0.491 OA
ATOM     15  C   UNL     1      -1.736  -7.996  -3.057  0.00  0.00    +0.277 C 
ENDBRANCH  10  14
BRANCH   9  16
ATOM     16  O   UNL     1      -1.926 -10.085   0.552  0.00  0.00    -0.491 OA
ATOM     17  C   UNL     1      -1.986 -10.719   1.832  0.00  0.00    +0.277 C 
ENDBRANCH   9  16
ENDBRANCH   1   2
BRANCH   1  18
ATOM     18  N   UNL     1      -1.382  -2.004   0.113  0.00  0.00    -0.302 NA
ATOM     19  H   UNL     1      -2.224  -2.278  -0.369  0.00  0.00    +0.123 HD
BRANCH  18  20
ATOM     20  C   UNL     1      -1.158  -0.556  -0.000  0.00  0.00    +0.087 C 
BRANCH  20  21
ATOM     21  C   UNL     1      -1.705  -0.065  -1.316  0.00  0.00    -0.027 A 
ATOM     22  C   UNL     1      -1.544  -0.828  -2.458  0.00  0.00    +0.009 A 
ATOM     23  C   UNL     1      -2.043  -0.380  -3.666  0.00  0.00    +0.050 A 
ATOM     24  C   UNL     1      -2.707   0.836  -3.736  0.00  0.00    +0.162 A 
ATOM     25  C   UNL     1      -2.870   1.601  -2.588  0.00  0.00    +0.162 A 
ATOM     26  C   UNL     1      -2.371   1.144  -1.378  0.00  0.00    +0.054 A 
ATOM     27  O   UNL     1      -3.525   2.794  -2.633  0.00  0.00    -0.485 OA
ATOM     28  C   UNL     1      -3.689   3.389  -3.925  0.00  0.00    +0.270 C 
ATOM     29  C   UNL     1      -4.173   2.305  -4.896  0.00  0.00    +0.270 C 
ATOM     30  O   UNL     1      -3.189   1.265  -4.934  0.00  0.00    -0.485 OA
ENDBRANCH  20  21
BRANCH  20  32
ATOM     31  C   UNL     1       1.056  -0.993  -1.073  0.00  0.00    +0.009 C 
ATOM     32  C   UNL     1       0.343  -0.265   0.069  0.00  0.00    +0.004 C 
ATOM     33  C   UNL     1       0.577   1.241  -0.061  0.00  0.00    +0.009 C 
ENDBRANCH  20  32
ENDBRANCH  18  20
ENDBRANCH   1  18
TORSDOF 7
