REMARK  Name = ZINC13335482
REMARK  9 active torsions:
REMARK  status: ('A' for Active; 'I' for Inactive)
REMARK    1  A    between atoms: C_1  and  C_2
REMARK    2  A    between atoms: C_2  and  C_4
REMARK    3  A    between atoms: C_2  and  N_14
REMARK    4  A    between atoms: C_15  and  C_17
REMARK    5  A    between atoms: C_17  and  S_18
REMARK    6  A    between atoms: S_18  and  C_19
REMARK    7  A    between atoms: N_29  and  C_30
REMARK    8  A    between atoms: C_30  and  C_32
REMARK    9  A    between atoms: C_30  and  C_33
REMARK                            x       y       z     vdW  Elec       q    Type
REMARK                         _______ _______ _______ _____ _____    ______ ____
ROOT
ATOM      1  C   UNL     1       3.081   9.675   2.384  0.00  0.00    +0.173 C 
ENDROOT
BRANCH   1   3
ATOM      2  N   UNL     1       2.103   7.945   0.911  0.00  0.00    -0.308 N 
ATOM      3  C   UNL     1       1.992   9.163   1.478  0.00  0.00    +0.224 C 
ATOM      4  O   UNL     1       1.014   9.846   1.259  0.00  0.00    -0.275 OA
ATOM      5  H   UNL     1       2.885   7.399   1.086  0.00  0.00    +0.149 HD
BRANCH   2   7
ATOM      6  C   UNL     1       1.274   7.968  -1.390  0.00  0.00    +0.033 C 
ATOM      7  C   UNL     1       1.044   7.447   0.030  0.00  0.00    +0.100 C 
BRANCH   7   8
ATOM      8  C   UNL     1       1.064   5.940   0.022  0.00  0.00    -0.027 A 
ATOM      9  C   UNL     1       2.286   5.270   0.007  0.00  0.00    +0.006 A 
ATOM     10  C   UNL     1       2.340   3.910   0.001  0.00  0.00    +0.009 A 
ATOM     11  C   UNL     1       1.147   3.167   0.008  0.00  0.00    -0.018 A 
ATOM     12  C   UNL     1       1.163   1.762   0.000  0.00  0.00    +0.008 A 
ATOM     13  C   UNL     1      -0.013   1.076   0.008  0.00  0.00    +0.001 A 
ATOM     14  C   UNL     1      -1.235   1.746   0.017  0.00  0.00    +0.001 A 
ATOM     15  C   UNL     1      -1.288   3.106   0.031  0.00  0.00    +0.008 A 
ATOM     16  C   UNL     1      -0.096   3.849   0.023  0.00  0.00    -0.018 A 
ATOM     17  C   UNL     1      -0.111   5.254   0.030  0.00  0.00    +0.014 A 
ENDBRANCH   7   8
ENDBRANCH   2   7
ENDBRANCH   1   3
BRANCH   1  18
ATOM     18  S   UNL     1       2.642  11.326   2.983  0.00  0.00    -0.078 S 
BRANCH  18  19
ATOM     19  C   UNL     1       4.048  11.671   3.987  0.00  0.00    +0.173 A 
ATOM     20  N   UNL     1       4.992  10.767   4.072  0.00  0.00    -0.223 NA
ATOM     21  C   UNL     1       6.095  10.965   4.822  0.00  0.00    +0.079 A 
ATOM     22  C   UNL     1       7.103  10.000   4.912  0.00  0.00    +0.028 A 
ATOM     23  C   UNL     1       8.203  10.242   5.685  0.00  0.00    +0.002 A 
ATOM     24  C   UNL     1       8.338  11.435   6.383  0.00  0.00    +0.001 A 
ATOM     25  C   UNL     1       7.369  12.399   6.314  0.00  0.00    +0.015 A 
ATOM     26  C   UNL     1       6.235  12.178   5.534  0.00  0.00    +0.065 A 
ATOM     27  C   UNL     1       5.163  13.176   5.423  0.00  0.00    +0.263 A 
ATOM     28  O   UNL     1       5.226  14.239   6.013  0.00  0.00    -0.267 OA
ATOM     29  N   UNL     1       4.104  12.871   4.637  0.00  0.00    -0.273 N 
BRANCH  29  30
ATOM     30  C   UNL     1       3.009  13.832   4.486  0.00  0.00    +0.202 C 
ATOM     31  C   UNL     1       2.392  14.121   5.856  0.00  0.00    +0.043 C 
BRANCH  30  32
ATOM     32  C   UNL     1       3.542  15.112   3.896  0.00  0.00    +0.378 C 
ATOM     33  O   UNL     1       4.716  15.212   3.628  0.00  0.00    -0.244 OA
ATOM     34  O   UNL     1       2.712  16.142   3.667  0.00  0.00    -0.244 OA
ENDBRANCH  30  32
ENDBRANCH  29  30
ENDBRANCH  18  19
ENDBRANCH   1  18
TORSDOF 7
