REMARK  Name = ZINC01623153
REMARK  14 active torsions:
REMARK  status: ('A' for Active; 'I' for Inactive)
REMARK    1  A    between atoms: C_1  and  C_2
REMARK    2  A    between atoms: C_2  and  C_3
REMARK    3  A    between atoms: C_2  and  C_4
REMARK    4  A    between atoms: C_2  and  C_5
REMARK    5  A    between atoms: N_7  and  C_8
REMARK    6  A    between atoms: C_13  and  C_14
REMARK    7  A    between atoms: C_14  and  O_40
REMARK    8  A    between atoms: C_17  and  C_30
REMARK    9  A    between atoms: C_26  and  O_28
REMARK   10  A    between atoms: O_28  and  C_29
REMARK   11  A    between atoms: C_30  and  C_31
REMARK   12  A    between atoms: C_31  and  O_32
REMARK   13  A    between atoms: O_32  and  C_33
REMARK   14  A    between atoms: C_33  and  C_34
REMARK                            x       y       z     vdW  Elec       q    Type
REMARK                         _______ _______ _______ _____ _____    ______ ____
ROOT
ATOM      1  C   UNL     1      -0.043   1.528   0.016  0.00  0.00    +0.152 C 
ATOM      2  C   UNL     1      -0.223   0.010  -0.102  0.00  0.00    +0.048 C 
ATOM      3  C   UNL     1       0.570  -0.495  -1.308  0.00  0.00    +0.017 C 
ATOM      4  C   UNL     1       2.061  -0.254  -1.100  0.00  0.00    +0.017 C 
ATOM      5  C   UNL     1       2.562  -0.999   0.096  0.00  0.00    -0.020 C 
ATOM      6  C   UNL     1       3.449  -0.564   0.922  0.00  0.00    -0.012 C 
ATOM      7  C   UNL     1       4.076   0.798   0.816  0.00  0.00    +0.139 C 
ATOM      8  N   UNL     1       3.742   1.385  -0.490  0.00  0.00    -0.253 N 
ATOM      9  C   UNL     1       2.352   1.240  -0.960  0.00  0.00    +0.159 C 
ATOM     10  C   UNL     1       1.437   1.826   0.092  0.00  0.00    +0.190 C 
ATOM     11  O   UNL     1       1.881   2.519   0.977  0.00  0.00    -0.292 OA
ATOM     12  C   UNL     1       4.669   2.030  -1.227  0.00  0.00    +0.403 C 
ATOM     13  O   UNL     1       4.366   2.506  -2.303  0.00  0.00    -0.226 OA
ENDROOT
BRANCH   1  19
ATOM     14  C   UNL     1      -0.771   3.386   1.536  0.00  0.00    +0.040 A 
ATOM     15  C   UNL     1      -1.402   3.840   2.687  0.00  0.00    +0.024 A 
ATOM     16  C   UNL     1      -1.982   2.938   3.557  0.00  0.00    +0.002 A 
ATOM     17  C   UNL     1      -1.936   1.583   3.282  0.00  0.00    +0.000 A 
ATOM     18  C   UNL     1      -1.313   1.128   2.135  0.00  0.00    +0.009 A 
ATOM     19  C   UNL     1      -0.726   2.025   1.264  0.00  0.00    +0.012 A 
BRANCH  14  22
ATOM     20  C   UNL     1      -0.626   5.569   0.603  0.00  0.00    +0.223 C 
ATOM     21  O   UNL     1      -1.479   5.945   1.379  0.00  0.00    -0.275 OA
ATOM     22  N   UNL     1      -0.183   4.298   0.652  0.00  0.00    -0.285 N 
ATOM     23  H   UNL     1       0.543   4.014   0.075  0.00  0.00    +0.155 HD
BRANCH  20  25
ATOM     24  C   UNL     1      -0.816   7.854  -0.343  0.00  0.00    +0.020 C 
ATOM     25  C   UNL     1      -0.062   6.524  -0.418  0.00  0.00    +0.039 C 
ATOM     26  C   UNL     1       1.421   6.762  -0.129  0.00  0.00    +0.020 C 
ATOM     27  C   UNL     1      -0.220   5.927  -1.817  0.00  0.00    +0.020 C 
ENDBRANCH  20  25
ENDBRANCH  14  22
ENDBRANCH   1  19
BRANCH  12  28
ATOM     28  O   UNL     1       5.930   2.146  -0.771  0.00  0.00    -0.454 OA
ATOM     29  C   UNL     1       6.875   2.853  -1.617  0.00  0.00    +0.282 C 
ENDBRANCH  12  28
BRANCH   1  30
ATOM     30  O   UNL     1      -0.605   2.169  -1.130  0.00  0.00    -0.376 OA
ATOM     31  H   UNL     1      -0.525   3.133  -1.120  0.00  0.00    +0.211 HD
ENDBRANCH   1  30
BRANCH   4  32
ATOM     32  C   UNL     1       2.805  -0.772  -2.333  0.00  0.00    +0.041 C 
BRANCH  32  33
ATOM     33  C   UNL     1       2.533  -2.268  -2.501  0.00  0.00    +0.161 C 
BRANCH  33  34
ATOM     34  O   UNL     1       3.228  -2.752  -3.652  0.00  0.00    -0.375 OA
BRANCH  34  35
ATOM     35  C   UNL     1       3.040  -4.147  -3.901  0.00  0.00    +0.195 C 
BRANCH  35  36
ATOM     36  C   UNL     1       3.813  -4.547  -5.131  0.00  0.00    -0.022 A 
ATOM     37  C   UNL     1       3.213  -4.486  -6.375  0.00  0.00    +0.006 A 
ATOM     38  C   UNL     1       3.924  -4.848  -7.503  0.00  0.00    +0.000 A 
ATOM     39  C   UNL     1       5.232  -5.281  -7.388  0.00  0.00    +0.000 A 
ATOM     40  C   UNL     1       5.830  -5.346  -6.143  0.00  0.00    +0.000 A 
ATOM     41  C   UNL     1       5.121  -4.980  -5.015  0.00  0.00    +0.006 A 
ENDBRANCH  35  36
ENDBRANCH  34  35
ENDBRANCH  33  34
ENDBRANCH  32  33
ENDBRANCH   4  32
TORSDOF 10
