REMARK  Name = ZINC39722458
REMARK  6 active torsions:
REMARK  status: ('A' for Active; 'I' for Inactive)
REMARK    1  A    between atoms: C_2  and  C_3
REMARK    2  A    between atoms: C_3  and  N_4
REMARK    3  A    between atoms: C_5  and  S_15
REMARK    4  A    between atoms: S_15  and  C_16
REMARK    5  A    between atoms: C_16  and  C_17
REMARK    6  A    between atoms: C_25  and  C_29
REMARK                            x       y       z     vdW  Elec       q    Type
REMARK                         _______ _______ _______ _____ _____    ______ ____
ROOT
ATOM      1  C   UNL     1      -0.635  -1.768   3.545  0.00  0.00    +0.147 C 
ENDROOT
BRANCH   1   2
ATOM      2  C   UNL     1      -1.818  -1.258   4.328  0.00  0.00    +0.120 A 
ATOM      3  N   UNL     1      -2.826  -2.125   4.608  0.00  0.00    -0.310 N 
ATOM      4  H   UNL     1      -2.768  -3.044   4.304  0.00  0.00    +0.170 HD
ATOM      5  C   UNL     1      -3.910  -1.717   5.309  0.00  0.00    +0.259 A 
ATOM      6  O   UNL     1      -4.820  -2.483   5.567  0.00  0.00    -0.267 OA
ATOM      7  C   UNL     1      -3.945  -0.311   5.747  0.00  0.00    +0.065 A 
ATOM      8  C   UNL     1      -5.016   0.205   6.473  0.00  0.00    +0.016 A 
ATOM      9  C   UNL     1      -5.008   1.515   6.860  0.00  0.00    +0.016 A 
ATOM     10  C   UNL     1      -3.930   2.348   6.532  0.00  0.00    +0.065 A 
ATOM     11  C   UNL     1      -2.852   1.852   5.807  0.00  0.00    +0.043 A 
ATOM     12  C   UNL     1      -2.850   0.514   5.408  0.00  0.00    +0.079 A 
ATOM     13  N   UNL     1      -1.818  -0.016   4.705  0.00  0.00    -0.233 NA
BRANCH  10  14
ATOM     14  C   UNL     1      -3.939   3.763   6.959  0.00  0.00    +0.387 C 
ATOM     15  O   UNL     1      -4.886   4.203   7.596  0.00  0.00    -0.241 OA
ATOM     16  O   UNL     1      -3.001   4.493   6.675  0.00  0.00    -0.241 OA
ENDBRANCH  10  14
ENDBRANCH   1   2
BRANCH   1  17
ATOM     17  S   UNL     1       0.562  -0.424   3.316  0.00  0.00    -0.107 S 
BRANCH  17  19
ATOM     18  N   UNL     1       1.367  -1.676   1.111  0.00  0.00    -0.263 N 
ATOM     19  C   UNL     1       1.906  -1.190   2.369  0.00  0.00    +0.256 C 
ATOM     20  N   UNL     1       2.522  -2.231   3.198  0.00  0.00    -0.243 NA
ATOM     21  C   UNL     1       2.130  -3.447   3.078  0.00  0.00    +0.107 C 
ATOM     22  C   UNL     1       1.171  -3.904   2.018  0.00  0.00    +0.065 C 
ATOM     23  C   UNL     1       0.668  -5.119   2.135  0.00  0.00    -0.000 C 
ATOM     24  C   UNL     1       1.133  -5.958   3.312  0.00  0.00    +0.104 C 
ATOM     25  S   UNL     1       2.530  -4.935   3.948  0.00  0.00    -0.101 S 
ATOM     26  C   UNL     1       0.904  -2.929   0.908  0.00  0.00    +0.251 C 
ATOM     27  O   UNL     1       0.314  -3.245  -0.107  0.00  0.00    -0.270 OA
BRANCH  18  28
ATOM     28  C   UNL     1       1.317  -0.740  -0.015  0.00  0.00    +0.137 C 
BRANCH  28  30
ATOM     29  C   UNL     1      -0.016   1.306   0.009  0.00  0.00    +0.005 C 
ATOM     30  C   UNL     1       0.002  -0.004   0.002  0.00  0.00    -0.016 C 
ENDBRANCH  28  30
ENDBRANCH  18  28
ENDBRANCH  17  19
ENDBRANCH   1  17
TORSDOF 6
