REMARK  Name = ZINC11998424
REMARK  8 active torsions:
REMARK  status: ('A' for Active; 'I' for Inactive)
REMARK    1  A    between atoms: C_1  and  C_2
REMARK    2  A    between atoms: C_7  and  C_9
REMARK    3  A    between atoms: C_7  and  C_28
REMARK    4  A    between atoms: C_7  and  N_62
REMARK    5  A    between atoms: C_9  and  N_10
REMARK    6  A    between atoms: N_10  and  S_11
REMARK    7  A    between atoms: S_11  and  C_14
REMARK    8  A    between atoms: C_17  and  N_20
REMARK                            x       y       z     vdW  Elec       q    Type
REMARK                         _______ _______ _______ _____ _____    ______ ____
ROOT
ATOM      1  N   UNL     1       9.176   1.745   1.544  0.00  0.00    -0.191 NA
ATOM      2  H   UNL     1      10.063   2.105   1.703  0.00  0.00    +0.148 HD
ENDROOT
BRANCH   1   3
ATOM      3  S   UNL     1       7.894   2.272   2.450  0.00  0.00    +0.058 S 
ATOM      4  O   UNL     1       6.856   2.595   1.535  0.00  0.00    -0.153 OA
ATOM      5  O   UNL     1       8.412   3.216   3.378  0.00  0.00    -0.153 OA
BRANCH   3   6
ATOM      6  C   UNL     1       7.324   0.898   3.395  0.00  0.00    +0.105 A 
ATOM      7  C   UNL     1       7.849   0.659   4.651  0.00  0.00    +0.030 A 
ATOM      8  C   UNL     1       7.404  -0.417   5.394  0.00  0.00    +0.027 A 
ATOM      9  C   UNL     1       6.428  -1.259   4.878  0.00  0.00    +0.059 A 
ATOM     10  C   UNL     1       5.906  -1.019   3.613  0.00  0.00    +0.027 A 
ATOM     11  C   UNL     1       6.351   0.062   2.878  0.00  0.00    +0.030 A 
BRANCH   9  12
ATOM     12  N   UNL     1       5.975  -2.350   5.628  0.00  0.00    -0.144 N 
ATOM     13  C   UNL     1       6.009  -2.457   6.965  0.00  0.00    +0.240 C 
ATOM     14  O   UNL     1       6.432  -1.550   7.649  0.00  0.00    -0.274 OA
ATOM     15  C   UNL     1       5.512  -3.724   7.593  0.00  0.00    +0.122 C 
ATOM     16  C   UNL     1       4.615  -4.467   6.568  0.00  0.00    +0.198 C 
ATOM     17  S   UNL     1       5.295  -3.752   5.016  0.00  0.00    +0.052 S 
ATOM     18  O   UNL     1       6.383  -4.529   4.534  0.00  0.00    -0.155 OA
ATOM     19  O   UNL     1       4.250  -3.327   4.152  0.00  0.00    -0.155 OA
ENDBRANCH   9  12
ENDBRANCH   3   6
ENDBRANCH   1   3
BRANCH   1  20
ATOM     20  C   UNL     1       8.971   0.735   0.503  0.00  0.00    +0.095 C 
BRANCH  20  21
ATOM     21  C   UNL     1      10.198   0.688  -0.410  0.00  0.00    -0.022 C 
BRANCH  21  28
ATOM     22  C   UNL     1      10.230  -3.783  -3.971  0.00  0.00    +0.007 C 
ATOM     23  C   UNL     1      10.579  -2.804  -2.848  0.00  0.00    -0.018 C 
ATOM     24  C   UNL     1      10.890  -1.429  -3.446  0.00  0.00    -0.015 C 
ATOM     25  C   UNL     1      11.178  -0.440  -2.315  0.00  0.00    -0.078 C 
ATOM     26  C   UNL     1       9.722  -1.653  -0.805  0.00  0.00    -0.078 C 
ATOM     27  C   UNL     1       9.390  -2.679  -1.891  0.00  0.00    -0.015 C 
ATOM     28  N   UNL     1       9.987  -0.346  -1.444  0.00  0.00    +0.385 N 
ATOM     29  H   UNL     1       9.176  -0.085  -2.016  0.00  0.00    -0.081 HD
ENDBRANCH  21  28
BRANCH  21  30
ATOM     30  C   UNL     1      10.374   2.023  -1.085  0.00  0.00    -0.060 A 
ATOM     31  C   UNL     1       9.612   2.344  -2.193  0.00  0.00    +0.002 A 
ATOM     32  C   UNL     1       9.770   3.571  -2.809  0.00  0.00    +0.000 A 
ATOM     33  C   UNL     1      10.697   4.474  -2.324  0.00  0.00    +0.000 A 
ATOM     34  C   UNL     1      11.463   4.152  -1.219  0.00  0.00    +0.000 A 
ATOM     35  C   UNL     1      11.302   2.926  -0.600  0.00  0.00    +0.002 A 
ENDBRANCH  21  30
ENDBRANCH  20  21
ENDBRANCH   1  20
TORSDOF 7
