REMARK  Name = ZINC39325014
REMARK  9 active torsions:
REMARK  status: ('A' for Active; 'I' for Inactive)
REMARK    1  A    between atoms: C_1  and  C_2
REMARK    2  A    between atoms: C_2  and  C_3
REMARK    3  A    between atoms: C_6  and  C_9
REMARK    4  A    between atoms: N_14  and  C_28
REMARK    5  A    between atoms: C_18  and  C_26
REMARK    6  A    between atoms: C_19  and  N_25
REMARK    7  A    between atoms: C_20  and  C_21
REMARK    8  A    between atoms: C_20  and  C_23
REMARK    9  A    between atoms: C_28  and  C_29
REMARK                            x       y       z     vdW  Elec       q    Type
REMARK                         _______ _______ _______ _____ _____    ______ ____
ROOT
ATOM      1  C   UNL     1       2.707  -1.868  -4.752  0.00  0.00    +0.067 C 
ATOM      2  C   UNL     1       3.487  -3.144  -4.430  0.00  0.00    +0.044 C 
ATOM      3  C   UNL     1       2.567  -4.307  -4.133  0.00  0.00    +0.094 C 
ATOM      4  N   UNL     1       2.410  -4.528  -2.693  0.00  0.00    -0.294 NA
ATOM      5  C   UNL     1       3.718  -4.819  -2.077  0.00  0.00    +0.112 C 
ATOM      6  C   UNL     1       4.588  -3.599  -2.252  0.00  0.00    -0.006 C 
ATOM      7  C   UNL     1       4.436  -2.840  -3.306  0.00  0.00    -0.026 C 
ATOM      8  C   UNL     1       5.214  -1.579  -3.399  0.00  0.00    +0.074 C 
ATOM      9  C   UNL     1       4.841  -0.634  -4.299  0.00  0.00    +0.054 C 
ATOM     10  C   UNL     1       3.682  -0.797  -5.240  0.00  0.00    +0.188 C 
ENDROOT
BRANCH   1  14
ATOM     11  C   UNL     1       0.709  -0.490  -1.237  0.00  0.00    -0.048 A 
ATOM     12  C   UNL     1       0.076  -1.375  -2.090  0.00  0.00    +0.004 A 
ATOM     13  C   UNL     1       0.723  -1.821  -3.227  0.00  0.00    +0.004 A 
ATOM     14  C   UNL     1       2.002  -1.381  -3.513  0.00  0.00    -0.041 A 
ATOM     15  C   UNL     1       2.634  -0.495  -2.661  0.00  0.00    +0.004 A 
ATOM     16  C   UNL     1       1.986  -0.046  -1.525  0.00  0.00    +0.004 A 
BRANCH  11  18
ATOM     17  C   UNL     1      -0.787   1.265  -0.324  0.00  0.00    +0.009 C 
ATOM     18  C   UNL     1       0.004  -0.004   0.003  0.00  0.00    +0.032 C 
ENDBRANCH  11  18
ENDBRANCH   1  14
BRANCH   9  19
ATOM     19  N   UNL     1       5.556   0.529  -4.351  0.00  0.00    -0.358 N 
ATOM     20  H   UNL     1       6.310   0.662  -3.755  0.00  0.00    +0.142 HD
ATOM     21  H   UNL     1       5.312   1.222  -4.985  0.00  0.00    +0.142 HD
ENDBRANCH   9  19
BRANCH  10  22
ATOM     22  C   UNL     1       2.969   0.485  -5.355  0.00  0.00    +0.091 C 
ATOM     23  N   UNL     1       2.418   1.475  -5.444  0.00  0.00    -0.194 NA
ENDBRANCH  10  22
BRANCH  10  24
ATOM     24  C   UNL     1       4.192  -1.181  -6.567  0.00  0.00    +0.091 C 
ATOM     25  N   UNL     1       4.586  -1.477  -7.590  0.00  0.00    -0.194 NA
ENDBRANCH  10  24
BRANCH   8  26
ATOM     26  C   UNL     1       6.346  -1.361  -2.549  0.00  0.00    +0.101 C 
ATOM     27  N   UNL     1       7.243  -1.189  -1.874  0.00  0.00    -0.191 NA
ENDBRANCH   8  26
BRANCH   4  28
ATOM     28  C   UNL     1       1.452  -5.609  -2.428  0.00  0.00    +0.120 C 
BRANCH  28  29
ATOM     29  C   UNL     1       1.130  -5.646  -0.956  0.00  0.00    -0.033 A 
ATOM     30  C   UNL     1       1.893  -6.418  -0.100  0.00  0.00    +0.005 A 
ATOM     31  C   UNL     1       1.598  -6.452   1.250  0.00  0.00    +0.000 A 
ATOM     32  C   UNL     1       0.540  -5.712   1.744  0.00  0.00    +0.000 A 
ATOM     33  C   UNL     1      -0.223  -4.939   0.889  0.00  0.00    +0.000 A 
ATOM     34  C   UNL     1       0.075  -4.902  -0.460  0.00  0.00    +0.005 A 
ENDBRANCH  28  29
ENDBRANCH   4  28
TORSDOF 8
