REMARK  Name = ZINC39338756
REMARK  3 active torsions:
REMARK  status: ('A' for Active; 'I' for Inactive)
REMARK    1  A    between atoms: C_1  and  C_2
REMARK    2  A    between atoms: C_4  and  C_8
REMARK    3  A    between atoms: N_13  and  C_14
REMARK                            x       y       z     vdW  Elec       q    Type
REMARK                         _______ _______ _______ _____ _____    ______ ____
ROOT
ATOM      1  C   UNL     1      -2.411  -0.705  -1.109  0.00  0.00    +0.170 A 
ATOM      2  N   UNL     1      -3.641  -1.087  -0.797  0.00  0.00    -0.204 NA
ATOM      3  C   UNL     1      -4.592  -0.878  -1.688  0.00  0.00    +0.183 A 
ATOM      4  S   UNL     1      -3.763  -0.151  -2.954  0.00  0.00    +0.050 S 
ATOM      5  N   UNL     1      -2.225  -0.137  -2.288  0.00  0.00    -0.187 NA
ATOM      6  N   UNL     1      -5.938  -1.183  -1.600  0.00  0.00    -0.293 N 
ATOM      7  H   UNL     1      -6.273  -1.687  -0.841  0.00  0.00    +0.154 HD
ENDROOT
BRANCH   1  10
ATOM      8  C   UNL     1       0.316   0.990  -0.538  0.00  0.00    +0.040 C 
ATOM      9  C   UNL     1       0.167  -0.522  -0.362  0.00  0.00    +0.160 C 
ATOM     10  C   UNL     1      -1.292  -0.900  -0.173  0.00  0.00    +0.043 C 
ATOM     11  C   UNL     1      -1.320  -1.459   1.060  0.00  0.00    +0.144 C 
ATOM     12  N   UNL     1      -0.097  -1.458   1.605  0.00  0.00    -0.161 NA
ATOM     13  N   UNL     1       0.790  -0.965   0.898  0.00  0.00    -0.180 NA
ENDBRANCH   1  10
BRANCH   6  14
ATOM     14  C   UNL     1      -6.816  -0.766  -2.604  0.00  0.00    +0.033 A 
ATOM     15  C   UNL     1      -7.906  -1.556  -2.949  0.00  0.00    +0.023 A 
ATOM     16  C   UNL     1      -8.772  -1.141  -3.941  0.00  0.00    +0.002 A 
ATOM     17  C   UNL     1      -8.555   0.060  -4.591  0.00  0.00    +0.000 A 
ATOM     18  C   UNL     1      -7.471   0.849  -4.251  0.00  0.00    +0.002 A 
ATOM     19  C   UNL     1      -6.605   0.442  -3.256  0.00  0.00    +0.023 A 
ENDBRANCH   6  14
TORSDOF 2
