REMARK  Name = ZINC12382674
REMARK  9 active torsions:
REMARK  status: ('A' for Active; 'I' for Inactive)
REMARK    1  A    between atoms: C_1  and  C_2
REMARK    2  A    between atoms: C_2  and  C_3
REMARK    3  A    between atoms: C_2  and  O_4
REMARK    4  A    between atoms: O_4  and  C_5
REMARK    5  A    between atoms: C_5  and  C_7
REMARK    6  A    between atoms: C_10  and  C_11
REMARK    7  A    between atoms: C_17  and  N_33
REMARK    8  A    between atoms: C_18  and  C_31
REMARK    9  A    between atoms: C_22  and  C_25
REMARK                            x       y       z     vdW  Elec       q    Type
REMARK                         _______ _______ _______ _____ _____    ______ ____
ROOT
ATOM      1  C   UNL     1       1.838  -5.272  -0.494  0.00  0.00    +0.118 C 
ATOM      2  C   UNL     1       2.707  -4.199  -0.435  0.00  0.00    +0.080 A 
ATOM      3  C   UNL     1       2.357  -2.774  -0.459  0.00  0.00    +0.024 A 
ATOM      4  C   UNL     1       1.105  -2.223  -0.647  0.00  0.00    +0.021 C 
ATOM      5  C   UNL     1       3.625  -2.058  -0.234  0.00  0.00    +0.069 A 
ATOM      6  C   UNL     1       4.618  -3.006  -0.155  0.00  0.00    +0.149 A 
ATOM      7  N   UNL     1       4.089  -4.286  -0.340  0.00  0.00    -0.267 N 
ATOM      8  C   UNL     1       4.809  -5.422  -0.431  0.00  0.00    +0.251 C 
ATOM      9  O   UNL     1       5.961  -5.427  -0.051  0.00  0.00    -0.271 OA
ATOM     10  C   UNL     1       4.211  -6.689  -0.982  0.00  0.00    +0.172 C 
ATOM     11  S   UNL     1       2.521  -6.897  -0.350  0.00  0.00    -0.098 S 
ENDROOT
BRANCH   4  12
ATOM     12  C   UNL     1       0.961  -0.774  -0.815  0.00  0.00    -0.006 A 
ATOM     13  C   UNL     1      -0.087  -0.081  -0.183  0.00  0.00    +0.011 A 
ATOM     14  C   UNL     1      -0.176   1.285  -0.374  0.00  0.00    +0.020 A 
ATOM     15  C   UNL     1       0.758   1.921  -1.173  0.00  0.00    +0.111 A 
ATOM     16  N   UNL     1       1.732   1.248  -1.755  0.00  0.00    -0.263 NA
ATOM     17  C   UNL     1       1.864  -0.053  -1.607  0.00  0.00    +0.118 A 
ENDBRANCH   4  12
BRANCH  10  18
ATOM     18  C   UNL     1       4.178  -6.607  -2.486  0.00  0.00    -0.007 A 
ATOM     19  C   UNL     1       4.863  -7.536  -3.255  0.00  0.00    +0.008 A 
ATOM     20  C   UNL     1       4.804  -7.422  -4.635  0.00  0.00    +0.020 A 
ATOM     21  C   UNL     1       4.071  -6.393  -5.195  0.00  0.00    +0.111 A 
ATOM     22  N   UNL     1       3.432  -5.527  -4.433  0.00  0.00    -0.263 NA
ATOM     23  C   UNL     1       3.461  -5.609  -3.117  0.00  0.00    +0.116 A 
ENDBRANCH  10  18
BRANCH   5  24
ATOM     24  N   UNL     1       3.787  -0.685  -0.122  0.00  0.00    -0.355 N 
ATOM     25  H   UNL     1       4.788  -0.262   0.047  0.00  0.00    +0.142 HD
ATOM     26  H   UNL     1       2.914  -0.020  -0.203  0.00  0.00    +0.142 HD
ENDBRANCH   5  24
BRANCH   1  27
ATOM     27  C   UNL     1       0.446  -5.076  -0.663  0.00  0.00    +0.348 C 
ATOM     28  O   UNL     1      -0.041  -5.103  -1.778  0.00  0.00    -0.244 OA
BRANCH  27  29
ATOM     29  O   UNL     1      -0.341  -4.860   0.413  0.00  0.00    -0.458 OA
BRANCH  29  31
ATOM     30  C   UNL     1      -2.449  -6.024   0.209  0.00  0.00    +0.052 C 
ATOM     31  C   UNL     1      -1.736  -4.671   0.169  0.00  0.00    +0.171 C 
ATOM     32  C   UNL     1      -2.322  -3.753   1.243  0.00  0.00    +0.052 C 
ENDBRANCH  29  31
ENDBRANCH  27  29
ENDBRANCH   1  27
BRANCH   6  33
ATOM     33  C   UNL     1       6.001  -2.721   0.084  0.00  0.00    +0.120 C 
ATOM     34  N   UNL     1       7.098  -2.494   0.273  0.00  0.00    -0.189 NA
ENDBRANCH   6  33
TORSDOF 7
