REMARK  Name = ZINC62767099
REMARK  8 active torsions:
REMARK  status: ('A' for Active; 'I' for Inactive)
REMARK    1  A    between atoms: C_1  and  C_2
REMARK    2  A    between atoms: C_5  and  S_8
REMARK    3  A    between atoms: S_8  and  C_9
REMARK    4  A    between atoms: C_12  and  C_21
REMARK    5  A    between atoms: C_16  and  C_18
REMARK    6  A    between atoms: C_21  and  C_22
REMARK    7  A    between atoms: C_21  and  C_23
REMARK    8  A    between atoms: C_21  and  C_24
REMARK                            x       y       z     vdW  Elec       q    Type
REMARK                         _______ _______ _______ _____ _____    ______ ____
ROOT
ATOM      1  C   UNL     1       0.076  -4.891   1.735  0.00  0.00    +0.068 C 
ATOM      2  C   UNL     1      -0.029  -6.411   1.875  0.00  0.00    +0.019 C 
ATOM      3  C   UNL     1       1.158  -7.071   1.170  0.00  0.00    -0.004 C 
ATOM      4  C   UNL     1       2.462  -6.589   1.809  0.00  0.00    +0.005 C 
ATOM      5  C   UNL     1       2.567  -5.069   1.669  0.00  0.00    +0.016 C 
ATOM      6  C   UNL     1       1.380  -4.409   2.374  0.00  0.00    +0.115 C 
ENDROOT
BRANCH   3   7
ATOM      7  C   UNL     1       1.053  -8.591   1.310  0.00  0.00    -0.035 C 
ATOM      8  C   UNL     1      -0.251  -9.073   0.671  0.00  0.00    +0.011 C 
ATOM      9  C   UNL     1       2.240  -9.251   0.605  0.00  0.00    +0.011 C 
ATOM     10  C   UNL     1       1.065  -8.970   2.792  0.00  0.00    +0.011 C 
ENDBRANCH   3   7
BRANCH   6  11
ATOM     11  C   UNL     1       1.392  -4.782   3.834  0.00  0.00    +0.360 C 
ATOM     12  O   UNL     1       2.450  -5.008   4.397  0.00  0.00    -0.246 OA
ATOM     13  O   UNL     1       0.344  -4.857   4.452  0.00  0.00    -0.246 OA
ENDBRANCH   6  11
BRANCH   1  14
ATOM     14  S   UNL     1       0.061  -4.443  -0.022  0.00  0.00    -0.082 S 
BRANCH  14  19
ATOM     15  C   UNL     1      -0.018   1.503   0.010  0.00  0.00    +0.047 C 
ATOM     16  C   UNL     1       0.002  -0.004   0.002  0.00  0.00    -0.014 A 
ATOM     17  C   UNL     1       0.006  -0.706  -1.194  0.00  0.00    +0.118 A 
ATOM     18  N   UNL     1       0.024  -2.028  -1.166  0.00  0.00    -0.230 NA
ATOM     19  C   UNL     1       0.038  -2.681  -0.013  0.00  0.00    +0.188 A 
ATOM     20  N   UNL     1       0.035  -2.040   1.148  0.00  0.00    -0.230 NA
ATOM     21  C   UNL     1       0.023  -0.718   1.190  0.00  0.00    +0.118 A 
ENDBRANCH  14  19
ENDBRANCH   1  14
TORSDOF 4
