REMARK  Name = ZINC07354518
REMARK  9 active torsions:
REMARK  status: ('A' for Active; 'I' for Inactive)
REMARK    1  A    between atoms: C_1  and  C_2
REMARK    2  A    between atoms: C_2  and  C_3
REMARK    3  A    between atoms: C_2  and  C_4
REMARK    4  A    between atoms: C_2  and  N_5
REMARK    5  A    between atoms: C_9  and  C_11
REMARK    6  A    between atoms: C_11  and  O_12
REMARK    7  A    between atoms: O_12  and  C_13
REMARK    8  A    between atoms: C_13  and  C_15
REMARK    9  A    between atoms: C_21  and  C_23
REMARK                            x       y       z     vdW  Elec       q    Type
REMARK                         _______ _______ _______ _____ _____    ______ ____
ROOT
ATOM      1  C   UNL     1       3.275  -6.289  -0.192  0.00  0.00    +0.185 C 
ATOM      2  C   UNL     1       2.653  -6.491  -1.590  0.00  0.00    +0.035 C 
ATOM      3  C   UNL     1       3.396  -7.743  -2.124  0.00  0.00    +0.021 C 
ATOM      4  C   UNL     1       4.813  -7.540  -1.532  0.00  0.00    +0.109 C 
ATOM      5  N   UNL     1       4.584  -6.958  -0.197  0.00  0.00    -0.288 N 
ATOM      6  C   UNL     1       5.435  -7.028   0.846  0.00  0.00    +0.222 C 
ATOM      7  O   UNL     1       5.187  -6.430   1.872  0.00  0.00    -0.275 OA
ENDROOT
BRANCH   6   8
ATOM      8  C   UNL     1       6.694  -7.849   0.739  0.00  0.00    +0.048 C 
ATOM      9  C   UNL     1       6.328  -9.330   0.618  0.00  0.00    +0.019 C 
ATOM     10  C   UNL     1       7.607 -10.164   0.508  0.00  0.00    -0.009 C 
ATOM     11  C   UNL     1       8.463  -9.950   1.758  0.00  0.00    +0.007 C 
ATOM     12  C   UNL     1       8.829  -8.470   1.879  0.00  0.00    -0.009 C 
ATOM     13  C   UNL     1       7.550  -7.636   1.988  0.00  0.00    +0.019 C 
ATOM     14  C   UNL     1       9.616  -8.036   0.641  0.00  0.00    +0.007 C 
ATOM     15  C   UNL     1       8.760  -8.249  -0.609  0.00  0.00    -0.009 C 
ATOM     16  C   UNL     1       8.394  -9.730  -0.730  0.00  0.00    +0.007 C 
ATOM     17  C   UNL     1       7.481  -7.415  -0.499  0.00  0.00    +0.019 C 
ENDBRANCH   6   8
BRANCH   1  18
ATOM     18  C   UNL     1       3.453  -4.818   0.083  0.00  0.00    +0.328 C 
ATOM     19  O   UNL     1       4.558  -4.368   0.272  0.00  0.00    -0.249 OA
BRANCH  18  20
ATOM     20  O   UNL     1       2.383  -4.008   0.118  0.00  0.00    -0.454 OA
BRANCH  20  21
ATOM     21  C   UNL     1       2.629  -2.603   0.388  0.00  0.00    +0.328 C 
BRANCH  21  26
ATOM     22  N   UNL     1       0.116   1.469   0.850  0.00  0.00    -0.294 N 
ATOM     23  C   UNL     1       0.133   0.141   0.619  0.00  0.00    +0.306 C 
ATOM     24  O   UNL     1      -0.907  -0.453   0.412  0.00  0.00    -0.252 OA
ATOM     25  N   UNL     1       1.303  -0.527   0.619  0.00  0.00    -0.237 N 
ATOM     26  C   UNL     1       1.320  -1.855   0.388  0.00  0.00    +0.258 C 
ATOM     27  O   UNL     1       0.283  -2.448   0.181  0.00  0.00    -0.272 OA
ATOM     28  H   UNL     1       0.946   1.944   1.015  0.00  0.00    +0.151 HD
ATOM     29  H   UNL     1       2.133  -0.053   0.784  0.00  0.00    +0.159 HD
BRANCH  22  31
ATOM     30  C   UNL     1      -2.077   1.623   1.922  0.00  0.00    +0.031 C 
ATOM     31  C   UNL     1      -1.156   2.197   0.844  0.00  0.00    +0.028 C 
ATOM     32  C   UNL     1      -0.897   3.678   1.130  0.00  0.00    +0.031 C 
ATOM     33  C   UNL     1      -1.821   2.051  -0.526  0.00  0.00    +0.031 C 
ENDBRANCH  22  31
ENDBRANCH  21  26
ENDBRANCH  20  21
ENDBRANCH  18  20
ENDBRANCH   1  18
TORSDOF 6
