REMARK  Name = ZINC00704423
REMARK  8 active torsions:
REMARK  status: ('A' for Active; 'I' for Inactive)
REMARK    1  A    between atoms: C_1  and  C_2
REMARK    2  A    between atoms: C_7  and  C_31
REMARK    3  A    between atoms: C_8  and  C_10
REMARK    4  A    between atoms: C_10  and  O_11
REMARK    5  A    between atoms: O_11  and  C_12
REMARK    6  A    between atoms: C_25  and  O_30
REMARK    7  A    between atoms: C_27  and  C_28
REMARK    8  A    between atoms: C_27  and  C_29
REMARK                            x       y       z     vdW  Elec       q    Type
REMARK                         _______ _______ _______ _____ _____    ______ ____
ROOT
ATOM      1  C   UNL     1       0.354   1.808  -0.265  0.00  0.00    +0.039 C 
ATOM      2  C   UNL     1       0.299   0.302  -0.314  0.00  0.00    -0.070 C 
ATOM      3  C   UNL     1       0.344  -0.268  -1.473  0.00  0.00    -0.027 C 
ATOM      4  C   UNL     1       0.292  -1.756  -1.680  0.00  0.00    +0.032 C 
ATOM      5  C   UNL     1       0.591  -2.482  -0.366  0.00  0.00    +0.007 C 
ATOM      6  C   UNL     1      -0.252  -1.883   0.753  0.00  0.00    -0.019 C 
ATOM      7  C   UNL     1       0.202  -0.434   0.991  0.00  0.00    +0.058 C 
ATOM      8  C   UNL     1      -0.099  -2.680   2.047  0.00  0.00    +0.010 C 
ATOM      9  C   UNL     1      -0.455  -4.149   1.798  0.00  0.00    +0.032 C 
ATOM     10  C   UNL     1       0.550  -4.725   0.803  0.00  0.00    +0.120 C 
ATOM     11  C   UNL     1       0.476  -3.986  -0.532  0.00  0.00    -0.005 C 
ATOM     12  C   UNL     1      -0.791  -4.410  -1.274  0.00  0.00    +0.014 C 
ATOM     13  C   UNL     1       1.681  -4.466  -1.374  0.00  0.00    +0.014 C 
ATOM     14  C   UNL     1      -1.742  -1.833   0.373  0.00  0.00    +0.012 C 
ENDROOT
BRANCH  10  15
ATOM     15  O   UNL     1       0.271  -6.112   0.591  0.00  0.00    -0.391 OA
ATOM     16  H   UNL     1       0.323  -6.651   1.393  0.00  0.00    +0.210 HD
ENDBRANCH  10  15
BRANCH   7  17
ATOM     17  C   UNL     1       1.554  -0.372   1.694  0.00  0.00    +0.237 C 
BRANCH  17  18
ATOM     18  O   UNL     1       1.850   0.983   2.038  0.00  0.00    -0.491 OA
BRANCH  18  19
ATOM     19  C   UNL     1       3.026   1.215   2.675  0.00  0.00    +0.124 A 
ATOM     20  C   UNL     1       3.881   0.151   2.956  0.00  0.00    +0.046 A 
ATOM     21  C   UNL     1       5.066   0.367   3.595  0.00  0.00    +0.015 A 
ATOM     22  C   UNL     1       5.427   1.666   3.972  0.00  0.00    +0.018 A 
ATOM     23  C   UNL     1       6.693   1.929   4.659  0.00  0.00    +0.018 A 
ATOM     24  C   UNL     1       6.986   3.211   4.997  0.00  0.00    +0.092 A 
ATOM     25  C   UNL     1       6.078   4.244   4.684  0.00  0.00    +0.337 A 
ATOM     26  O   UNL     1       6.353   5.389   4.994  0.00  0.00    -0.245 OA
ATOM     27  O   UNL     1       4.920   3.997   4.054  0.00  0.00    -0.422 OA
ATOM     28  C   UNL     1       4.568   2.745   3.690  0.00  0.00    +0.143 A 
ATOM     29  C   UNL     1       3.369   2.508   3.035  0.00  0.00    +0.092 A 
ENDBRANCH  18  19
ENDBRANCH  17  18
ENDBRANCH   7  17
TORSDOF 4
