REMARK  Name = ZINC05589904
REMARK  7 active torsions:
REMARK  status: ('A' for Active; 'I' for Inactive)
REMARK    1  A    between atoms: C_1  and  C_2
REMARK    2  A    between atoms: C_7  and  N_8
REMARK    3  A    between atoms: C_9  and  C_10
REMARK    4  A    between atoms: N_16  and  C_17
REMARK    5  A    between atoms: N_16  and  C_24
REMARK    6  A    between atoms: C_20  and  O_23
REMARK    7  A    between atoms: C_27  and  O_30
REMARK                            x       y       z     vdW  Elec       q    Type
REMARK                         _______ _______ _______ _____ _____    ______ ____
ROOT
ATOM      1  N   UNL     1       0.352  -0.054   2.466  0.00  0.00    -0.342 N 
ATOM      2  C   UNL     1      -0.055  -0.707   3.530  0.00  0.00    +0.115 C 
ATOM      3  N   UNL     1      -0.462  -0.013   4.649  0.00  0.00    -0.255 N 
ATOM      4  H   UNL     1       0.269   0.911   2.428  0.00  0.00    +0.167 HD
ENDROOT
BRANCH   1  11
ATOM      5  C   UNL     1       2.936  -1.185   2.807  0.00  0.00    +0.046 C 
ATOM      6  C   UNL     1       2.159  -1.313   1.522  0.00  0.00    -0.027 A 
ATOM      7  C   UNL     1       2.695  -2.004   0.455  0.00  0.00    +0.005 A 
ATOM      8  C   UNL     1       1.982  -2.122  -0.725  0.00  0.00    +0.000 A 
ATOM      9  C   UNL     1       0.729  -1.548  -0.845  0.00  0.00    +0.002 A 
ATOM     10  C   UNL     1       0.181  -0.854   0.213  0.00  0.00    +0.026 A 
ATOM     11  C   UNL     1       0.891  -0.736   1.411  0.00  0.00    +0.043 A 
ENDBRANCH   1  11
BRANCH   2  12
ATOM     12  C   UNL     1      -0.076  -2.184   3.527  0.00  0.00    +0.014 A 
ATOM     13  C   UNL     1       0.315  -2.893   4.664  0.00  0.00    +0.011 A 
ATOM     14  C   UNL     1       0.292  -4.272   4.655  0.00  0.00    +0.001 A 
ATOM     15  C   UNL     1      -0.117  -4.953   3.522  0.00  0.00    +0.000 A 
ATOM     16  C   UNL     1      -0.506  -4.257   2.392  0.00  0.00    +0.001 A 
ATOM     17  C   UNL     1      -0.494  -2.877   2.389  0.00  0.00    +0.011 A 
ENDBRANCH   2  12
BRANCH   3  18
ATOM     18  C   UNL     1      -1.787   0.425   4.758  0.00  0.00    +0.040 A 
ATOM     19  C   UNL     1      -2.722   0.058   3.799  0.00  0.00    +0.027 A 
ATOM     20  C   UNL     1      -4.028   0.490   3.907  0.00  0.00    +0.047 A 
ATOM     21  C   UNL     1      -4.408   1.292   4.973  0.00  0.00    +0.117 A 
ATOM     22  C   UNL     1      -3.475   1.661   5.931  0.00  0.00    +0.047 A 
ATOM     23  C   UNL     1      -2.169   1.224   5.828  0.00  0.00    +0.027 A 
BRANCH  21  24
ATOM     24  O   UNL     1      -5.695   1.718   5.079  0.00  0.00    -0.507 OA
ATOM     25  H   UNL     1      -6.267   1.121   5.580  0.00  0.00    +0.292 HD
ENDBRANCH  21  24
ENDBRANCH   3  18
BRANCH   3  26
ATOM     26  C   UNL     1       0.450   0.252   5.679  0.00  0.00    +0.040 A 
ATOM     27  C   UNL     1       0.281  -0.336   6.926  0.00  0.00    +0.027 A 
ATOM     28  C   UNL     1       1.181  -0.074   7.940  0.00  0.00    +0.047 A 
ATOM     29  C   UNL     1       2.254   0.776   7.713  0.00  0.00    +0.117 A 
ATOM     30  C   UNL     1       2.424   1.363   6.468  0.00  0.00    +0.047 A 
ATOM     31  C   UNL     1       1.528   1.098   5.451  0.00  0.00    +0.027 A 
BRANCH  29  32
ATOM     32  O   UNL     1       3.139   1.033   8.712  0.00  0.00    -0.507 OA
ATOM     33  H   UNL     1       3.886   0.419   8.744  0.00  0.00    +0.292 HD
ENDBRANCH  29  32
ENDBRANCH   3  26
TORSDOF 6
