REMARK  Name = ZINC12618619
REMARK  7 active torsions:
REMARK  status: ('A' for Active; 'I' for Inactive)
REMARK    1  A    between atoms: C_1  and  N_2
REMARK    2  A    between atoms: C_3  and  N_30
REMARK    3  A    between atoms: C_4  and  C_11
REMARK    4  A    between atoms: N_7  and  C_10
REMARK    5  A    between atoms: C_11  and  C_13
REMARK    6  A    between atoms: C_13  and  S_14
REMARK    7  A    between atoms: S_14  and  C_15
REMARK                            x       y       z     vdW  Elec       q    Type
REMARK                         _______ _______ _______ _____ _____    ______ ____
ROOT
ATOM      1  C   UNL     1       2.833   4.216  -0.057  0.00  0.00    +0.157 C 
ENDROOT
BRANCH   1   2
ATOM      2  C   UNL     1       3.016   5.711  -0.018  0.00  0.00    +0.182 C 
ATOM      3  O   UNL     1       2.046   6.441   0.011  0.00  0.00    -0.291 OA
BRANCH   2   7
ATOM      4  C   UNL     1       6.004   9.586  -0.180  0.00  0.00    +0.155 C 
ATOM      5  N   UNL     1       5.788   8.140  -0.094  0.00  0.00    -0.284 N 
ATOM      6  C   UNL     1       4.512   7.652  -0.104  0.00  0.00    +0.116 A 
ATOM      7  C   UNL     1       4.315   6.263  -0.016  0.00  0.00    +0.120 A 
ATOM      8  C   UNL     1       5.503   5.405   0.072  0.00  0.00    +0.269 A 
ATOM      9  O   UNL     1       5.392   4.196   0.144  0.00  0.00    -0.267 OA
ATOM     10  N   UNL     1       6.721   5.986   0.070  0.00  0.00    -0.263 N 
ATOM     11  C   UNL     1       6.848   7.320  -0.012  0.00  0.00    +0.333 A 
ATOM     12  O   UNL     1       7.963   7.804  -0.010  0.00  0.00    -0.246 OA
ATOM     13  C   UNL     1       7.921   5.150   0.157  0.00  0.00    +0.157 C 
BRANCH   6  14
ATOM     14  N   UNL     1       3.450   8.498  -0.194  0.00  0.00    -0.344 N 
ATOM     15  H   UNL     1       2.547   8.152  -0.117  0.00  0.00    +0.144 HD
ATOM     16  H   UNL     1       3.595   9.446  -0.335  0.00  0.00    +0.144 HD
ENDBRANCH   6  14
ENDBRANCH   2   7
ENDBRANCH   1   2
BRANCH   1  17
ATOM     17  S   UNL     1       1.066   3.823  -0.050  0.00  0.00    -0.080 S 
BRANCH  17  18
ATOM     18  C   UNL     1       1.143   2.064  -0.097  0.00  0.00    +0.170 A 
ATOM     19  N   UNL     1      -0.013   1.339  -0.105  0.00  0.00    -0.301 N 
ATOM     20  H   UNL     1      -0.865   1.803  -0.089  0.00  0.00    +0.171 HD
ATOM     21  C   UNL     1       0.006  -0.006  -0.141  0.00  0.00    +0.261 A 
ATOM     22  O   UNL     1      -1.036  -0.639  -0.148  0.00  0.00    -0.267 OA
ATOM     23  C   UNL     1       1.266  -0.683  -0.172  0.00  0.00    +0.075 A 
ATOM     24  C   UNL     1       1.520  -2.124  -0.212  0.00  0.00    -0.023 A 
ATOM     25  C   UNL     1       2.810  -2.518  -0.235  0.00  0.00    -0.004 A 
ATOM     26  S   UNL     1       3.750  -1.016  -0.205  0.00  0.00    -0.073 S 
ATOM     27  C   UNL     1       2.404   0.141  -0.161  0.00  0.00    +0.117 A 
ATOM     28  N   UNL     1       2.317   1.465  -0.125  0.00  0.00    -0.216 NA
ATOM     29  C   UNL     1       3.330  -3.923  -0.276  0.00  0.00    +0.043 C 
ATOM     30  C   UNL     1       2.181  -4.875   0.085  0.00  0.00    +0.005 C 
ATOM     31  C   UNL     1       0.945  -4.485  -0.730  0.00  0.00    +0.005 C 
ATOM     32  C   UNL     1       0.391  -3.151  -0.229  0.00  0.00    +0.037 C 
ENDBRANCH  17  18
ENDBRANCH   1  17
TORSDOF 5
