REMARK  Name = ZINC66071875
REMARK  11 active torsions:
REMARK  status: ('A' for Active; 'I' for Inactive)
REMARK    1  A    between atoms: C_1  and  C_2
REMARK    2  A    between atoms: C_2  and  N_3
REMARK    3  A    between atoms: C_4  and  C_6
REMARK    4  A    between atoms: C_9  and  N_12
REMARK    5  A    between atoms: C_13  and  C_15
REMARK    6  A    between atoms: C_15  and  N_16
REMARK    7  A    between atoms: N_16  and  C_17
REMARK    8  A    between atoms: C_20  and  N_23
REMARK    9  A    between atoms: C_24  and  C_26
REMARK   10  A    between atoms: C_26  and  C_27
REMARK   11  A    between atoms: C_26  and  C_28
REMARK                            x       y       z     vdW  Elec       q    Type
REMARK                         _______ _______ _______ _____ _____    ______ ____
ROOT
ATOM      1  N   UNL     1      -6.916  -3.776   0.114  0.00  0.00    -0.284 N 
ATOM      2  C   UNL     1      -7.141  -5.100  -0.005  0.00  0.00    +0.234 C 
ATOM      3  O   UNL     1      -6.208  -5.875  -0.026  0.00  0.00    -0.274 OA
ATOM      4  H   UNL     1      -7.662  -3.164   0.205  0.00  0.00    +0.155 HD
ENDROOT
BRANCH   1   8
ATOM      5  C   UNL     1      -3.014  -2.317   0.085  0.00  0.00    +0.037 A 
ATOM      6  C   UNL     1      -3.349  -3.437  -0.681  0.00  0.00    +0.015 A 
ATOM      7  C   UNL     1      -4.639  -3.917  -0.669  0.00  0.00    +0.024 A 
ATOM      8  C   UNL     1      -5.610  -3.288   0.104  0.00  0.00    +0.033 A 
ATOM      9  C   UNL     1      -5.280  -2.173   0.869  0.00  0.00    +0.024 A 
ATOM     10  C   UNL     1      -3.990  -1.692   0.866  0.00  0.00    +0.015 A 
BRANCH   5  12
ATOM     11  N   UNL     1      -0.692  -2.404  -0.678  0.00  0.00    -0.312 N 
ATOM     12  C   UNL     1      -1.632  -1.800   0.075  0.00  0.00    +0.244 C 
ATOM     13  O   UNL     1      -1.341  -0.829   0.747  0.00  0.00    -0.270 OA
ATOM     14  H   UNL     1      -0.924  -3.179  -1.214  0.00  0.00    +0.149 HD
BRANCH  11  16
ATOM     15  C   UNL     1       1.540  -2.751  -1.617  0.00  0.00    +0.024 C 
ATOM     16  C   UNL     1       0.680  -1.891  -0.688  0.00  0.00    +0.101 C 
ENDBRANCH  11  16
ENDBRANCH   5  12
ENDBRANCH   1   8
BRANCH   2  17
ATOM     17  C   UNL     1      -8.553  -5.617  -0.111  0.00  0.00    +0.198 C 
BRANCH  17  18
ATOM     18  N   UNL     1      -8.530  -7.077  -0.229  0.00  0.00    -0.335 N 
ATOM     19  H   UNL     1      -7.684  -7.551  -0.230  0.00  0.00    +0.147 HD
BRANCH  18  20
ATOM     20  C   UNL     1      -9.730  -7.789  -0.341  0.00  0.00    +0.028 A 
ATOM     21  C   UNL     1     -10.942  -7.110  -0.345  0.00  0.00    +0.025 A 
ATOM     22  C   UNL     1     -12.125  -7.812  -0.456  0.00  0.00    +0.025 A 
ATOM     23  C   UNL     1     -12.104  -9.197  -0.562  0.00  0.00    +0.034 A 
ATOM     24  C   UNL     1     -10.893  -9.875  -0.557  0.00  0.00    +0.025 A 
ATOM     25  C   UNL     1      -9.708  -9.173  -0.453  0.00  0.00    +0.025 A 
BRANCH  23  26
ATOM     26  N   UNL     1     -13.306  -9.909  -0.674  0.00  0.00    -0.285 N 
ATOM     27  C   UNL     1     -14.338  -9.386  -1.364  0.00  0.00    +0.220 C 
ATOM     28  O   UNL     1     -14.258  -8.263  -1.816  0.00  0.00    -0.275 OA
ATOM     29  H   UNL     1     -13.394 -10.780  -0.254  0.00  0.00    +0.155 HD
BRANCH  27  30
ATOM     30  C   UNL     1     -15.592 -10.195  -1.573  0.00  0.00    +0.069 C 
ATOM     31  C   UNL     1     -16.600  -9.374  -2.381  0.00  0.00    +0.017 C 
ATOM     32  C   UNL     1     -15.251 -11.477  -2.334  0.00  0.00    +0.017 C 
ENDBRANCH  27  30
ENDBRANCH  23  26
ENDBRANCH  18  20
ENDBRANCH  17  18
ENDBRANCH   2  17
TORSDOF 8
