REMARK  Name = ZINC00985736
REMARK  6 active torsions:
REMARK  status: ('A' for Active; 'I' for Inactive)
REMARK    1  A    between atoms: C_1  and  C_2
REMARK    2  A    between atoms: C_2  and  C_26
REMARK    3  A    between atoms: C_9  and  S_14
REMARK    4  A    between atoms: S_14  and  C_15
REMARK    5  A    between atoms: C_15  and  C_16
REMARK    6  A    between atoms: C_16  and  C_18
REMARK                            x       y       z     vdW  Elec       q    Type
REMARK                         _______ _______ _______ _____ _____    ______ ____
ROOT
ATOM      1  C   UNL     1       5.636   3.169  -1.960  0.00  0.00    +0.041 C 
ATOM      2  C   UNL     1       5.881   2.870  -0.479  0.00  0.00    +0.068 C 
ATOM      3  C   UNL     1       4.971   1.721  -0.036  0.00  0.00    +0.071 C 
ATOM      4  C   UNL     1       3.534   2.235  -0.019  0.00  0.00    -0.020 A 
ATOM      5  C   UNL     1       3.301   3.565  -0.011  0.00  0.00    +0.021 A 
ATOM      6  S   UNL     1       1.539   3.726   0.006  0.00  0.00    -0.071 S 
ATOM      7  C   UNL     1       1.114   2.003   0.002  0.00  0.00    +0.115 A 
ATOM      8  C   UNL     1       2.366   1.355  -0.013  0.00  0.00    +0.043 A 
ATOM      9  C   UNL     1       2.320  -0.067  -0.020  0.00  0.00    +0.111 A 
ATOM     10  N   UNL     1       1.146  -0.677  -0.012  0.00  0.00    -0.208 NA
ATOM     11  C   UNL     1       0.002  -0.004   0.002  0.00  0.00    +0.215 A 
ATOM     12  N   UNL     1      -0.016   1.322   0.009  0.00  0.00    -0.207 NA
ATOM     13  N   UNL     1      -1.196  -0.700   0.009  0.00  0.00    -0.327 N 
ATOM     14  C   UNL     1       4.339   4.645  -0.014  0.00  0.00    +0.203 C 
ATOM     15  O   UNL     1       5.606   4.043   0.293  0.00  0.00    -0.368 OA
ATOM     16  C   UNL     1       7.342   2.463  -0.280  0.00  0.00    +0.041 C 
ATOM     17  H   UNL     1      -2.037  -0.217   0.019  0.00  0.00    +0.145 HD
ATOM     18  H   UNL     1      -1.193  -1.670   0.004  0.00  0.00    +0.145 HD
ENDROOT
BRANCH   9  19
ATOM     19  S   UNL     1       3.811  -1.007  -0.037  0.00  0.00    -0.097 S 
BRANCH  19  20
ATOM     20  C   UNL     1       3.127  -2.682  -0.040  0.00  0.00    +0.155 C 
BRANCH  20  21
ATOM     21  C   UNL     1       4.252  -3.684  -0.054  0.00  0.00    +0.173 C 
ATOM     22  O   UNL     1       5.403  -3.303  -0.063  0.00  0.00    -0.291 OA
BRANCH  21  23
ATOM     23  C   UNL     1       3.954  -5.126  -0.059  0.00  0.00    +0.018 A 
ATOM     24  C   UNL     1       2.628  -5.569  -0.043  0.00  0.00    +0.011 A 
ATOM     25  C   UNL     1       2.357  -6.921  -0.053  0.00  0.00    +0.001 A 
ATOM     26  C   UNL     1       3.393  -7.838  -0.067  0.00  0.00    +0.000 A 
ATOM     27  C   UNL     1       4.708  -7.407  -0.076  0.00  0.00    +0.001 A 
ATOM     28  C   UNL     1       4.996  -6.059  -0.073  0.00  0.00    +0.011 A 
ENDBRANCH  21  23
ENDBRANCH  20  21
ENDBRANCH  19  20
ENDBRANCH   9  19
TORSDOF 4
