REMARK  Name = ZINC01495280
REMARK  4 active torsions:
REMARK  status: ('A' for Active; 'I' for Inactive)
REMARK    1  A    between atoms: C_3  and  O_20
REMARK    2  A    between atoms: C_6  and  C_7
REMARK    3  A    between atoms: N_13  and  C_14
REMARK    4  A    between atoms: O_20  and  C_21
REMARK                            x       y       z     vdW  Elec       q    Type
REMARK                         _______ _______ _______ _____ _____    ______ ____
ROOT
ATOM      1  C   UNL     1       1.182   1.801   0.000  0.00  0.00    +0.018 A 
ATOM      2  C   UNL     1      -0.013   1.076   0.008  0.00  0.00    +0.124 A 
ATOM      3  N   UNL     1      -1.160   1.730   0.017  0.00  0.00    -0.222 NA
ATOM      4  C   UNL     1      -1.187   3.055   0.030  0.00  0.00    +0.215 A 
ATOM      5  N   UNL     1      -0.076   3.778   0.023  0.00  0.00    -0.222 NA
ATOM      6  C   UNL     1       1.110   3.196   0.009  0.00  0.00    +0.124 A 
ATOM      7  N   UNL     1      -2.410   3.703   0.045  0.00  0.00    -0.311 N 
ATOM      8  H   UNL     1      -2.446   4.672   0.050  0.00  0.00    +0.149 HD
ENDROOT
BRANCH   1  14
ATOM      9  C   UNL     1       2.546  -0.286  -0.017  0.00  0.00    +0.012 A 
ATOM     10  C   UNL     1       3.766  -0.929  -0.037  0.00  0.00    +0.046 A 
ATOM     11  C   UNL     1       4.941  -0.190  -0.044  0.00  0.00    +0.130 A 
ATOM     12  C   UNL     1       4.892   1.198  -0.037  0.00  0.00    +0.046 A 
ATOM     13  C   UNL     1       3.674   1.846  -0.023  0.00  0.00    +0.012 A 
ATOM     14  C   UNL     1       2.493   1.107  -0.015  0.00  0.00    -0.015 A 
BRANCH  11  15
ATOM     15  O   UNL     1       6.142  -0.826  -0.058  0.00  0.00    -0.406 OA
BRANCH  15  16
ATOM     16  C   UNL     1       6.119  -2.255  -0.064  0.00  0.00    +0.575 C 
ATOM     17  F   UNL     1       5.442  -2.705  -1.203  0.00  0.00    -0.133 F 
ATOM     18  F   UNL     1       7.431  -2.742  -0.078  0.00  0.00    -0.133 F 
ATOM     19  F   UNL     1       5.463  -2.716   1.082  0.00  0.00    -0.133 F 
ENDBRANCH  15  16
ENDBRANCH  11  15
ENDBRANCH   1  14
BRANCH   7  20
ATOM     20  C   UNL     1      -3.651   2.925   0.052  0.00  0.00    +0.073 C 
ATOM     21  C   UNL     1      -4.030   2.554  -1.383  0.00  0.00    +0.022 C 
ATOM     22  C   UNL     1      -5.326   1.741  -1.375  0.00  0.00    +0.002 C 
ATOM     23  C   UNL     1      -6.447   2.575  -0.751  0.00  0.00    +0.000 C 
ATOM     24  C   UNL     1      -6.068   2.945   0.685  0.00  0.00    +0.002 C 
ATOM     25  C   UNL     1      -4.772   3.758   0.677  0.00  0.00    +0.022 C 
ENDBRANCH   7  20
TORSDOF 4
