REMARK  Name = ZINC39664753
REMARK  10 active torsions:
REMARK  status: ('A' for Active; 'I' for Inactive)
REMARK    1  A    between atoms: C_1  and  N_2
REMARK    2  A    between atoms: N_2  and  C_3
REMARK    3  A    between atoms: N_2  and  C_4
REMARK    4  A    between atoms: C_4  and  C_5
REMARK    5  A    between atoms: C_5  and  C_7
REMARK    6  A    between atoms: C_5  and  N_13
REMARK    7  A    between atoms: C_14  and  C_16
REMARK    8  A    between atoms: C_27  and  C_29
REMARK    9  A    between atoms: C_29  and  O_30
REMARK   10  A    between atoms: O_30  and  C_31
REMARK                            x       y       z     vdW  Elec       q    Type
REMARK                         _______ _______ _______ _____ _____    ______ ____
ROOT
ATOM      1  C   UNL     1       1.161  -2.632  -2.594  0.00  0.00    +0.100 C 
ATOM      2  C   UNL     1       0.955  -1.484  -3.608  0.00  0.00    +0.121 C 
ATOM      3  N   UNL     1       2.154  -0.627  -3.453  0.00  0.00    -0.297 N 
ATOM      4  C   UNL     1       3.270  -1.585  -3.267  0.00  0.00    +0.115 C 
ATOM      5  C   UNL     1       2.682  -2.697  -2.376  0.00  0.00    -0.004 C 
ATOM      6  C   UNL     1       3.017  -2.431  -0.911  0.00  0.00    -0.010 C 
ATOM      7  C   UNL     1       4.530  -2.557  -0.708  0.00  0.00    -0.082 C 
ATOM      8  N   UNL     1       4.966  -3.905  -1.093  0.00  0.00    +0.379 N 
ATOM      9  C   UNL     1       4.724  -4.120  -2.525  0.00  0.00    -0.082 C 
ATOM     10  C   UNL     1       3.220  -4.059  -2.805  0.00  0.00    -0.010 C 
ATOM     11  C   UNL     1       2.216   0.719  -3.475  0.00  0.00    +0.253 C 
ATOM     12  O   UNL     1       3.282   1.279  -3.333  0.00  0.00    -0.272 OA
ATOM     13  H   UNL     1       5.951  -4.006  -0.901  0.00  0.00    -0.086 HD
ATOM     14  H   UNL     1       4.450  -4.589  -0.560  0.00  0.00    -0.086 HD
ENDROOT
BRANCH   1  16
ATOM     15  N   UNL     1       0.058  -3.322  -0.490  0.00  0.00    -0.310 N 
ATOM     16  C   UNL     1       0.458  -2.320  -1.298  0.00  0.00    +0.219 C 
ATOM     17  O   UNL     1       0.251  -1.167  -0.983  0.00  0.00    -0.275 OA
ATOM     18  H   UNL     1       0.286  -4.239  -0.707  0.00  0.00    +0.149 HD
BRANCH  15  19
ATOM     19  C   UNL     1      -0.720  -3.025   0.715  0.00  0.00    +0.087 C 
BRANCH  19  20
ATOM     20  C   UNL     1      -0.215  -3.866   1.859  0.00  0.00    -0.029 A 
ATOM     21  C   UNL     1       0.147  -5.183   1.641  0.00  0.00    +0.005 A 
ATOM     22  C   UNL     1       0.610  -5.955   2.691  0.00  0.00    +0.000 A 
ATOM     23  C   UNL     1       0.712  -5.410   3.957  0.00  0.00    +0.000 A 
ATOM     24  C   UNL     1       0.352  -4.093   4.174  0.00  0.00    +0.000 A 
ATOM     25  C   UNL     1      -0.107  -3.320   3.124  0.00  0.00    +0.005 A 
ENDBRANCH  19  20
BRANCH  19  26
ATOM     26  C   UNL     1      -2.195  -3.342   0.461  0.00  0.00    -0.052 C 
BRANCH  26  28
ATOM     27  C   UNL     1      -4.020  -3.024  -1.062  0.00  0.00    -0.097 C 
ATOM     28  N   UNL     1      -2.664  -2.586  -0.708  0.00  0.00    +0.377 N 
ATOM     29  C   UNL     1      -2.680  -1.152  -0.390  0.00  0.00    -0.097 C 
ATOM     30  H   UNL     1      -2.043  -2.751  -1.486  0.00  0.00    -0.083 HD
ENDBRANCH  26  28
ENDBRANCH  19  26
ENDBRANCH  15  19
ENDBRANCH   1  16
BRANCH  11  31
ATOM     31  C   UNL     1       0.961   1.528  -3.677  0.00  0.00    +0.324 C 
BRANCH  31  32
ATOM     32  O   UNL     1       1.283   2.920  -3.663  0.00  0.00    -0.483 OA
BRANCH  32  33
ATOM     33  C   UNL     1       0.256   3.793  -3.833  0.00  0.00    +0.123 A 
ATOM     34  C   UNL     1      -1.037   3.320  -4.004  0.00  0.00    +0.046 A 
ATOM     35  C   UNL     1      -2.080   4.209  -4.177  0.00  0.00    +0.005 A 
ATOM     36  C   UNL     1      -1.837   5.570  -4.178  0.00  0.00    +0.020 A 
ATOM     37  C   UNL     1      -0.548   6.045  -4.008  0.00  0.00    +0.044 A 
ATOM     38  C   UNL     1       0.498   5.159  -3.829  0.00  0.00    +0.065 A 
ATOM     39 CL   UNL     1      -0.246   7.755  -4.011  0.00  0.00    -0.083 Cl
ENDBRANCH  32  33
ENDBRANCH  31  32
ENDBRANCH  11  31
TORSDOF 8
