REMARK  Name = ZINC22321983
REMARK  6 active torsions:
REMARK  status: ('A' for Active; 'I' for Inactive)
REMARK    1  A    between atoms: C_1  and  N_2
REMARK    2  A    between atoms: N_2  and  C_3
REMARK    3  A    between atoms: C_3  and  C_4
REMARK    4  A    between atoms: C_15  and  C_17
REMARK    5  A    between atoms: C_17  and  C_18
REMARK    6  A    between atoms: C_18  and  C_19
REMARK                            x       y       z     vdW  Elec       q    Type
REMARK                         _______ _______ _______ _____ _____    ______ ____
ROOT
ATOM      1  C   UNL     1      -0.018   1.461   0.010  0.00  0.00    +0.132 C 
ATOM      2  N   UNL     1       0.002  -0.004   0.002  0.00  0.00    -0.297 N 
ATOM      3  C   UNL     1       0.000  -0.672  -1.169  0.00  0.00    +0.216 C 
ATOM      4  O   UNL     1       0.017  -1.884  -1.175  0.00  0.00    -0.276 OA
ENDROOT
BRANCH   2   5
ATOM      5  C   UNL     1       0.024  -0.743   1.267  0.00  0.00    +0.181 C 
BRANCH   5   6
ATOM      6  C   UNL     1      -1.389  -1.016   1.714  0.00  0.00    +0.128 A 
ATOM      7  N   UNL     1      -1.579  -1.692   2.877  0.00  0.00    -0.309 N 
ATOM      8  H   UNL     1      -0.819  -1.988   3.402  0.00  0.00    +0.170 HD
ATOM      9  C   UNL     1      -2.842  -1.948   3.298  0.00  0.00    +0.266 A 
ATOM     10  O   UNL     1      -3.046  -2.551   4.338  0.00  0.00    -0.267 OA
ATOM     11  C   UNL     1      -3.901  -1.501   2.508  0.00  0.00    +0.102 A 
ATOM     12  C   UNL     1      -3.677  -0.804   1.308  0.00  0.00    +0.085 A 
ATOM     13  N   UNL     1      -2.362  -0.591   0.973  0.00  0.00    -0.232 NA
ATOM     14  C   UNL     1      -4.829  -0.413   0.612  0.00  0.00    +0.036 A 
ATOM     15  C   UNL     1      -6.052  -0.708   1.103  0.00  0.00    +0.048 A 
ATOM     16  S   UNL     1      -5.669  -1.580   2.614  0.00  0.00    -0.090 S 
ENDBRANCH   5   6
ENDBRANCH   2   5
BRANCH   3  17
ATOM     17  C   UNL     1      -0.023   0.089  -2.470  0.00  0.00    +0.103 C 
BRANCH  17  18
ATOM     18  C   UNL     1      -0.020  -0.899  -3.638  0.00  0.00    +0.083 C 
BRANCH  18  19
ATOM     19  C   UNL     1      -0.043  -0.139  -4.939  0.00  0.00    +0.111 A 
ATOM     20  N   UNL     1      -0.050  -0.824  -6.111  0.00  0.00    -0.310 N 
ATOM     21  H   UNL     1      -0.041  -1.794  -6.095  0.00  0.00    +0.170 HD
ATOM     22  C   UNL     1      -0.070  -0.184  -7.296  0.00  0.00    +0.260 A 
ATOM     23  O   UNL     1      -0.077  -0.812  -8.341  0.00  0.00    -0.267 OA
ATOM     24  C   UNL     1      -0.084   1.248  -7.306  0.00  0.00    +0.075 A 
ATOM     25  C   UNL     1      -0.106   2.147  -8.470  0.00  0.00    -0.023 A 
ATOM     26  C   UNL     1      -0.115   3.467  -8.217  0.00  0.00    -0.004 A 
ATOM     27  S   UNL     1      -0.097   3.596  -6.444  0.00  0.00    -0.073 S 
ATOM     28  C   UNL     1      -0.075   1.868  -6.049  0.00  0.00    +0.116 A 
ATOM     29  N   UNL     1      -0.060   1.167  -4.918  0.00  0.00    -0.227 NA
ATOM     30  C   UNL     1      -0.132   4.287  -9.480  0.00  0.00    +0.043 C 
ATOM     31  C   UNL     1       0.301   3.301 -10.588  0.00  0.00    +0.010 C 
ATOM     32  C   UNL     1      -0.127   1.948  -9.988  0.00  0.00    +0.037 C 
ENDBRANCH  18  19
ENDBRANCH  17  18
ENDBRANCH   3  17
TORSDOF 5
