REMARK  Name = ZINC06719435
REMARK  8 active torsions:
REMARK  status: ('A' for Active; 'I' for Inactive)
REMARK    1  A    between atoms: C_1  and  C_2
REMARK    2  A    between atoms: C_2  and  C_25
REMARK    3  A    between atoms: C_9  and  N_15
REMARK    4  A    between atoms: C_11  and  S_13
REMARK    5  A    between atoms: S_13  and  C_14
REMARK    6  A    between atoms: N_15  and  C_16
REMARK    7  A    between atoms: C_16  and  C_17
REMARK    8  A    between atoms: C_17  and  N_52
REMARK                            x       y       z     vdW  Elec       q    Type
REMARK                         _______ _______ _______ _____ _____    ______ ____
ROOT
ATOM      1  C   UNL     1       0.964   2.671   8.933  0.00  0.00    +0.041 C 
ATOM      2  C   UNL     1       0.321   1.301   9.153  0.00  0.00    +0.069 C 
ATOM      3  C   UNL     1       1.298   0.196   8.715  0.00  0.00    +0.077 C 
ATOM      4  C   UNL     1       1.320   0.179   7.219  0.00  0.00    +0.001 A 
ATOM      5  C   UNL     1       0.431   0.789   6.396  0.00  0.00    +0.015 A 
ATOM      6  C   UNL     1       0.625   0.654   5.000  0.00  0.00    +0.090 A 
ATOM      7  C   UNL     1       1.737  -0.110   4.595  0.00  0.00    +0.078 A 
ATOM      8  S   UNL     1       2.471  -0.612   6.130  0.00  0.00    -0.088 S 
ATOM      9  C   UNL     1       2.025  -0.309   3.255  0.00  0.00    +0.137 A 
ATOM     10  N   UNL     1       1.221   0.241   2.346  0.00  0.00    -0.206 NA
ATOM     11  C   UNL     1       0.174   0.961   2.735  0.00  0.00    +0.190 A 
ATOM     12  N   UNL     1      -0.127   1.175   3.997  0.00  0.00    -0.221 NA
ATOM     13  C   UNL     1      -0.726   1.583   6.999  0.00  0.00    +0.198 C 
ATOM     14  O   UNL     1      -0.871   1.198   8.368  0.00  0.00    -0.369 OA
ATOM     15  C   UNL     1      -0.024   1.128  10.634  0.00  0.00    +0.041 C 
ENDROOT
BRANCH  11  16
ATOM     16  S   UNL     1      -0.860   1.669   1.497  0.00  0.00    -0.089 S 
ATOM     17  C   UNL     1      -0.013   1.086   0.008  0.00  0.00    +0.093 C 
ENDBRANCH  11  16
BRANCH   9  18
ATOM     18  N   UNL     1       3.121  -1.063   2.869  0.00  0.00    -0.330 N 
ATOM     19  H   UNL     1       3.698  -1.459   3.541  0.00  0.00    +0.147 HD
BRANCH  18  20
ATOM     20  C   UNL     1       3.408  -1.263   1.447  0.00  0.00    +0.084 C 
BRANCH  20  21
ATOM     21  C   UNL     1       4.663  -2.126   1.296  0.00  0.00    -0.060 C 
BRANCH  21  27
ATOM     22  C   UNL     1       3.902  -3.132  -0.771  0.00  0.00    -0.050 C 
ATOM     23  C   UNL     1       4.210  -3.266  -2.265  0.00  0.00    +0.141 C 
ATOM     24  O   UNL     1       5.509  -3.840  -2.429  0.00  0.00    -0.383 OA
ATOM     25  C   UNL     1       6.556  -3.080  -1.817  0.00  0.00    +0.141 C 
ATOM     26  C   UNL     1       6.271  -2.945  -0.319  0.00  0.00    -0.050 C 
ATOM     27  N   UNL     1       4.951  -2.303  -0.143  0.00  0.00    +0.384 N 
ATOM     28  H   UNL     1       4.965  -1.381  -0.597  0.00  0.00    -0.082 HD
ENDBRANCH  21  27
ENDBRANCH  20  21
ENDBRANCH  18  20
ENDBRANCH   9  18
TORSDOF 5
