REMARK  Name = ZINC02476668
REMARK  9 active torsions:
REMARK  status: ('A' for Active; 'I' for Inactive)
REMARK    1  A    between atoms: C_1  and  C_2
REMARK    2  A    between atoms: C_2  and  O_3
REMARK    3  A    between atoms: O_3  and  C_4
REMARK    4  A    between atoms: C_4  and  C_6
REMARK    5  A    between atoms: C_10  and  N_11
REMARK    6  A    between atoms: C_12  and  C_14
REMARK    7  A    between atoms: C_20  and  C_22
REMARK    8  A    between atoms: C_28  and  C_30
REMARK    9  A    between atoms: C_28  and  C_31
REMARK                            x       y       z     vdW  Elec       q    Type
REMARK                         _______ _______ _______ _____ _____    ______ ____
ROOT
ATOM      1  C   UNL     1      -2.933  -2.228   0.022  0.00  0.00    +0.091 A 
ATOM      2  C   UNL     1      -3.627  -2.548  -1.211  0.00  0.00    -0.016 A 
ATOM      3  C   UNL     1      -4.806  -3.187  -1.035  0.00  0.00    +0.021 A 
ATOM      4  S   UNL     1      -4.971  -3.350   0.716  0.00  0.00    -0.075 S 
ATOM      5  C   UNL     1      -3.544  -2.612   1.208  0.00  0.00    +0.086 A 
ATOM      6  C   UNL     1      -5.732  -3.634  -2.122  0.00  0.00    +0.203 C 
ATOM      7  O   UNL     1      -5.322  -2.993  -3.341  0.00  0.00    -0.368 OA
ATOM      8  C   UNL     1      -3.920  -3.097  -3.601  0.00  0.00    +0.068 C 
ATOM      9  C   UNL     1      -3.134  -2.226  -2.615  0.00  0.00    +0.071 C 
ATOM     10  C   UNL     1      -3.483  -4.555  -3.451  0.00  0.00    +0.041 C 
ATOM     11  C   UNL     1      -3.634  -2.629  -5.030  0.00  0.00    +0.041 C 
ENDROOT
BRANCH   5  12
ATOM     12  N   UNL     1      -3.083  -2.427   2.502  0.00  0.00    -0.279 N 
ATOM     13  C   UNL     1      -3.811  -2.868   3.547  0.00  0.00    +0.222 C 
ATOM     14  O   UNL     1      -4.871  -3.426   3.354  0.00  0.00    -0.275 OA
ATOM     15  H   UNL     1      -2.236  -1.980   2.656  0.00  0.00    +0.155 HD
BRANCH  13  16
ATOM     16  C   UNL     1      -3.310  -2.666   4.953  0.00  0.00    +0.094 C 
ATOM     17  C   UNL     1      -4.480  -2.297   5.868  0.00  0.00    +0.060 C 
ATOM     18  C   UNL     1      -5.378  -3.483   6.063  0.00  0.00    +0.015 C 
ATOM     19  C   UNL     1      -5.032  -4.705   5.806  0.00  0.00    -0.011 C 
ATOM     20  C   UNL     1      -3.689  -5.103   5.267  0.00  0.00    +0.044 C 
ATOM     21  C   UNL     1      -2.679  -3.966   5.467  0.00  0.00    +0.118 C 
ATOM     22 CL   UNL     1      -6.979  -3.201   6.672  0.00  0.00    -0.089 Cl
BRANCH  21  23
ATOM     23  C   UNL     1      -1.418  -4.257   4.693  0.00  0.00    +0.360 C 
ATOM     24  O   UNL     1      -0.436  -4.693   5.270  0.00  0.00    -0.246 OA
ATOM     25  O   UNL     1      -1.381  -4.056   3.491  0.00  0.00    -0.246 OA
ENDBRANCH  21  23
ENDBRANCH  13  16
ENDBRANCH   5  12
BRANCH   1  26
ATOM     26  C   UNL     1      -1.643  -1.536   0.015  0.00  0.00    +0.342 C 
ATOM     27  O   UNL     1      -0.610  -2.176  -0.032  0.00  0.00    -0.245 OA
BRANCH  26  28
ATOM     28  O   UNL     1      -1.600  -0.189   0.061  0.00  0.00    -0.461 OA
BRANCH  28  30
ATOM     29  C   UNL     1      -0.459   1.942   0.108  0.00  0.00    +0.048 C 
ATOM     30  C   UNL     1      -0.307   0.420   0.051  0.00  0.00    +0.229 C 
ENDBRANCH  28  30
ENDBRANCH  26  28
ENDBRANCH   1  26
TORSDOF 6
