REMARK  Name = ZINC15869727
REMARK  4 active torsions:
REMARK  status: ('A' for Active; 'I' for Inactive)
REMARK    1  A    between atoms: C_7  and  C_8
REMARK    2  A    between atoms: C_7  and  N_66
REMARK    3  A    between atoms: C_8  and  N_9
REMARK    4  A    between atoms: C_10  and  C_12
REMARK                            x       y       z     vdW  Elec       q    Type
REMARK                         _______ _______ _______ _____ _____    ______ ____
ROOT
ATOM      1  C   UNL     1       6.995   1.919   1.121  0.00  0.00    +0.092 C 
ATOM      2  C   UNL     1       7.688   2.251  -0.204  0.00  0.00    +0.016 C 
ATOM      3  C   UNL     1       6.893   1.629  -1.356  0.00  0.00    +0.020 C 
ATOM      4  C   UNL     1       5.457   2.158  -1.322  0.00  0.00    +0.107 C 
ATOM      5  N   UNL     1       4.838   1.815  -0.036  0.00  0.00    -0.307 N 
ATOM      6  C   UNL     1       5.556   2.440   1.083  0.00  0.00    +0.119 C 
ATOM      7  C   UNL     1       3.499   2.163  -0.021  0.00  0.00    +0.184 A 
ATOM      8  N   UNL     1       2.448   1.388  -0.013  0.00  0.00    -0.139 NA
ATOM      9  N   UNL     1       1.159   1.912   0.001  0.00  0.00    -0.169 N 
ATOM     10  C   UNL     1      -0.015   1.217   0.009  0.00  0.00    +0.279 A 
ATOM     11  O   UNL     1       0.002  -0.004   0.002  0.00  0.00    -0.265 OA
ATOM     12  C   UNL     1      -1.240   1.898   0.018  0.00  0.00    +0.040 A 
ATOM     13  C   UNL     1      -1.246   3.270   0.036  0.00  0.00    +0.053 A 
ATOM     14  N   UNL     1      -0.079   3.918   0.025  0.00  0.00    -0.226 NA
ATOM     15  C   UNL     1       1.058   3.275   0.009  0.00  0.00    +0.201 A 
ATOM     16  S   UNL     1       2.761   3.790  -0.007  0.00  0.00    -0.013 S 
ATOM     17  C   UNL     1      -2.513   4.081   0.070  0.00  0.00    +0.056 C 
ATOM     18  C   UNL     1      -3.706   3.226  -0.367  0.00  0.00    +0.006 C 
ATOM     19  C   UNL     1      -3.694   1.933   0.457  0.00  0.00    +0.005 C 
ATOM     20  C   UNL     1      -2.506   1.084   0.008  0.00  0.00    +0.042 C 
ENDROOT
BRANCH   1  22
ATOM     21  N   UNL     1       7.304   2.426   3.522  0.00  0.00    -0.317 N 
ATOM     22  C   UNL     1       7.738   2.577   2.255  0.00  0.00    +0.218 C 
ATOM     23  O   UNL     1       8.727   3.242   2.027  0.00  0.00    -0.275 OA
ATOM     24  H   UNL     1       6.514   1.894   3.704  0.00  0.00    +0.149 HD
BRANCH  21  25
ATOM     25  C   UNL     1       8.027   3.065   4.625  0.00  0.00    +0.085 C 
BRANCH  25  26
ATOM     26  C   UNL     1       7.331   2.738   5.947  0.00  0.00    -0.060 C 
BRANCH  26  33
ATOM     27  C   UNL     1       9.963   2.170   9.453  0.00  0.00    -0.002 C 
ATOM     28  C   UNL     1       8.643   2.196  10.072  0.00  0.00    -0.002 C 
ATOM     29  C   UNL     1       7.512   1.989   9.042  0.00  0.00    -0.019 C 
ATOM     30  C   UNL     1       7.287   3.287   8.315  0.00  0.00    -0.079 C 
ATOM     31  C   UNL     1       9.445   2.876   7.139  0.00  0.00    -0.079 C 
ATOM     32  C   UNL     1      10.139   3.292   8.408  0.00  0.00    -0.019 C 
ATOM     33  N   UNL     1       8.052   3.428   7.029  0.00  0.00    +0.381 N 
ATOM     34  H   UNL     1       8.117   4.427   6.799  0.00  0.00    -0.082 HD
ENDBRANCH  26  33
ENDBRANCH  25  26
ENDBRANCH  21  25
ENDBRANCH   1  22
TORSDOF 4
