REMARK  Name = ZINC39693320
REMARK  12 active torsions:
REMARK  status: ('A' for Active; 'I' for Inactive)
REMARK    1  A    between atoms: C_1  and  C_2
REMARK    2  A    between atoms: C_2  and  C_3
REMARK    3  A    between atoms: C_3  and  C_4
REMARK    4  A    between atoms: C_4  and  C_5
REMARK    5  A    between atoms: C_5  and  C_7
REMARK    6  A    between atoms: C_5  and  C_8
REMARK    7  A    between atoms: C_12  and  C_21
REMARK    8  A    between atoms: N_23  and  C_24
REMARK    9  A    between atoms: C_24  and  C_25
REMARK   10  A    between atoms: C_25  and  N_26
REMARK   11  A    between atoms: C_27  and  C_29
REMARK   12  A    between atoms: C_29  and  C_30
REMARK                            x       y       z     vdW  Elec       q    Type
REMARK                         _______ _______ _______ _____ _____    ______ ____
ROOT
ATOM      1  C   UNL     1       3.051  -5.284   7.121  0.00  0.00    +0.218 C 
ATOM      2  O   UNL     1       4.228  -5.030   6.975  0.00  0.00    -0.275 OA
ATOM      3  N   UNL     1       2.575  -5.593   8.344  0.00  0.00    -0.314 N 
ATOM      4  H   UNL     1       1.634  -5.796   8.460  0.00  0.00    +0.149 HD
ENDROOT
BRANCH   1   9
ATOM      5  C   UNL     1       1.870  -4.283   2.456  0.00  0.00    +0.218 C 
ATOM      6  O   UNL     1       1.576  -4.956   1.491  0.00  0.00    -0.275 OA
ATOM      7  N   UNL     1       2.323  -4.876   3.578  0.00  0.00    -0.300 N 
ATOM      8  C   UNL     1       2.624  -4.241   4.883  0.00  0.00    +0.121 C 
ATOM      9  C   UNL     1       2.122  -5.254   5.936  0.00  0.00    +0.100 C 
ATOM     10  C   UNL     1       2.131  -6.611   5.211  0.00  0.00    -0.004 C 
ATOM     11  C   UNL     1       2.626  -6.312   3.788  0.00  0.00    +0.115 C 
ATOM     12  C   UNL     1       0.721  -7.193   5.161  0.00  0.00    -0.010 C 
ATOM     13  C   UNL     1       0.765  -8.567   4.486  0.00  0.00    -0.082 C 
ATOM     14  N   UNL     1       1.657  -9.456   5.241  0.00  0.00    +0.379 N 
ATOM     15  C   UNL     1       3.029  -8.936   5.206  0.00  0.00    -0.082 C 
ATOM     16  C   UNL     1       3.081  -7.578   5.910  0.00  0.00    -0.010 C 
ATOM     17  H   UNL     1       1.344  -9.510   6.198  0.00  0.00    -0.086 HD
ATOM     18  H   UNL     1       1.637 -10.377   4.830  0.00  0.00    -0.086 HD
BRANCH   5  19
ATOM     19  C   UNL     1       1.727  -2.784   2.401  0.00  0.00    +0.072 C 
ATOM     20  C   UNL     1       0.319  -2.389   2.851  0.00  0.00    +0.017 C 
BRANCH  19  21
ATOM     21  C   UNL     1       1.959  -2.302   0.967  0.00  0.00    +0.012 C 
BRANCH  21  22
ATOM     22  C   UNL     1       1.938  -0.773   0.933  0.00  0.00    +0.000 C 
BRANCH  22  24
ATOM     23  C   UNL     1       2.148   1.238  -0.534  0.00  0.00    +0.004 C 
ATOM     24  C   UNL     1       2.169  -0.291  -0.500  0.00  0.00    -0.003 C 
ENDBRANCH  22  24
ENDBRANCH  21  22
ENDBRANCH  19  21
ENDBRANCH   5  19
ENDBRANCH   1   9
BRANCH   3  25
ATOM     25  C   UNL     1       3.479  -5.622   9.496  0.00  0.00    +0.123 C 
BRANCH  25  26
ATOM     26  C   UNL     1       2.691  -5.997  10.753  0.00  0.00    +0.123 C 
BRANCH  26  27
ATOM     27  N   UNL     1       3.595  -6.026  11.905  0.00  0.00    -0.314 N 
ATOM     28  C   UNL     1       3.119  -6.335  13.128  0.00  0.00    +0.217 C 
ATOM     29  O   UNL     1       1.942  -6.589  13.274  0.00  0.00    -0.275 OA
ATOM     30  H   UNL     1       4.536  -5.823  11.789  0.00  0.00    +0.149 HD
BRANCH  28  31
ATOM     31  C   UNL     1       4.048  -6.365  14.313  0.00  0.00    +0.131 C 
BRANCH  31  32
ATOM     32  C   UNL     1       3.272  -6.734  15.551  0.00  0.00    -0.031 A 
ATOM     33  C   UNL     1       2.781  -5.761  16.367  0.00  0.00    +0.005 A 
ATOM     34  C   UNL     1       2.062  -6.084  17.515  0.00  0.00    +0.001 A 
ATOM     35  C   UNL     1       1.829  -7.381  17.856  0.00  0.00    +0.008 A 
ATOM     36  C   UNL     1       2.320  -8.413  17.038  0.00  0.00    -0.018 A 
ATOM     37  C   UNL     1       3.047  -8.085  15.866  0.00  0.00    -0.014 A 
ATOM     38  C   UNL     1       3.533  -9.117  15.046  0.00  0.00    +0.009 A 
ATOM     39  C   UNL     1       3.296 -10.414  15.383  0.00  0.00    +0.001 A 
ATOM     40  C   UNL     1       2.575 -10.737  16.531  0.00  0.00    +0.001 A 
ATOM     41  C   UNL     1       2.101  -9.764  17.357  0.00  0.00    +0.008 A 
ENDBRANCH  31  32
ENDBRANCH  28  31
ENDBRANCH  26  27
ENDBRANCH  25  26
ENDBRANCH   3  25
TORSDOF 10
