REMARK  Name = ZINC40641564
REMARK  7 active torsions:
REMARK  status: ('A' for Active; 'I' for Inactive)
REMARK    1  A    between atoms: C_1  and  C_2
REMARK    2  A    between atoms: C_2  and  C_39
REMARK    3  A    between atoms: C_7  and  C_21
REMARK    4  A    between atoms: C_8  and  N_11
REMARK    5  A    between atoms: C_12  and  C_14
REMARK    6  A    between atoms: C_21  and  S_22
REMARK    7  A    between atoms: S_22  and  N_25
REMARK                            x       y       z     vdW  Elec       q    Type
REMARK                         _______ _______ _______ _____ _____    ______ ____
ROOT
ATOM      1  C   UNL     1      -0.019   1.526   0.010  0.00  0.00    +0.012 C 
ATOM      2  C   UNL     1       0.002  -0.004   0.002  0.00  0.00    -0.023 C 
ATOM      3  C   UNL     1       0.998  -0.573  -1.069  0.00  0.00    -0.003 C 
ATOM      4  C   UNL     1       1.005  -2.084  -0.682  0.00  0.00    +0.005 C 
ATOM      5  C   UNL     1       0.840  -2.095   0.855  0.00  0.00    +0.011 C 
ATOM      6  C   UNL     1       0.750  -0.590   1.252  0.00  0.00    +0.015 C 
ATOM      7  C   UNL     1       2.187  -0.036   1.013  0.00  0.00    +0.081 C 
ATOM      8  C   UNL     1       2.350  -0.008  -0.535  0.00  0.00    +0.027 C 
ATOM      9  C   UNL     1      -1.404  -0.588  -0.152  0.00  0.00    +0.012 C 
ENDROOT
BRANCH   7  10
ATOM     10  N   UNL     1       2.308   1.321   1.552  0.00  0.00    -0.313 N 
ATOM     11  C   UNL     1       3.515   1.797   1.916  0.00  0.00    +0.199 C 
ATOM     12  O   UNL     1       4.502   1.102   1.799  0.00  0.00    -0.278 OA
ATOM     13  H   UNL     1       1.519   1.878   1.646  0.00  0.00    +0.149 HD
BRANCH  11  14
ATOM     14  C   UNL     1       3.639   3.193   2.470  0.00  0.00    +0.016 C 
ATOM     15  C   UNL     1       3.142   4.200   1.430  0.00  0.00    -0.007 C 
ATOM     16  C   UNL     1       3.269   5.617   1.997  0.00  0.00    -0.003 C 
ATOM     17  C   UNL     1       4.726   5.867   2.397  0.00  0.00    -0.019 C 
ATOM     18  C   UNL     1       5.165   4.798   3.401  0.00  0.00    -0.082 C 
ATOM     19  N   UNL     1       5.044   3.469   2.790  0.00  0.00    +0.387 N 
ATOM     20  H   UNL     1       5.385   2.772   3.435  0.00  0.00    -0.085 HD
ATOM     21  H   UNL     1       5.593   3.438   1.944  0.00  0.00    -0.085 HD
ENDBRANCH  11  14
ENDBRANCH   7  10
BRANCH   6  22
ATOM     22  C   UNL     1       0.121  -0.294   2.615  0.00  0.00    +0.194 C 
BRANCH  22  23
ATOM     23  S   UNL     1       1.126  -1.051   3.921  0.00  0.00    +0.032 S 
ATOM     24  O   UNL     1       1.048  -2.468   3.841  0.00  0.00    -0.158 OA
ATOM     25  O   UNL     1       2.386  -0.399   4.009  0.00  0.00    -0.158 OA
BRANCH  23  26
ATOM     26  N   UNL     1       0.351  -0.665   5.333  0.00  0.00    -0.181 NA
ATOM     27  C   UNL     1       0.682   0.572   6.054  0.00  0.00    +0.110 C 
ATOM     28  C   UNL     1      -0.607   1.369   6.281  0.00  0.00    +0.028 C 
ATOM     29  C   UNL     1      -1.637   0.481   6.973  0.00  0.00    -0.001 C 
ATOM     30  C   UNL     1      -1.107   0.033   8.347  0.00  0.00    +0.016 C 
ATOM     31  C   UNL     1      -2.393   0.001   9.202  0.00  0.00    +0.036 C 
ATOM     32  C   UNL     1      -3.332   0.990   8.544  0.00  0.00    -0.044 A 
ATOM     33  C   UNL     1      -2.896   1.265   7.260  0.00  0.00    -0.038 A 
ATOM     34  C   UNL     1      -3.608   2.149   6.467  0.00  0.00    +0.004 A 
ATOM     35  C   UNL     1      -4.749   2.757   6.953  0.00  0.00    +0.000 A 
ATOM     36  C   UNL     1      -5.183   2.482   8.236  0.00  0.00    +0.000 A 
ATOM     37  C   UNL     1      -4.476   1.600   9.029  0.00  0.00    +0.004 A 
ATOM     38  C   UNL     1      -1.959  -0.739   6.115  0.00  0.00    +0.028 C 
ATOM     39  C   UNL     1      -0.684  -1.550   5.884  0.00  0.00    +0.110 C 
ENDBRANCH  23  26
ENDBRANCH  22  23
ENDBRANCH   6  22
TORSDOF 5
