REMARK  Name = ZINC67079770
REMARK  5 active torsions:
REMARK  status: ('A' for Active; 'I' for Inactive)
REMARK    1  A    between atoms: C_9  and  C_12
REMARK    2  A    between atoms: N_14  and  C_15
REMARK    3  A    between atoms: C_15  and  C_16
REMARK    4  A    between atoms: C_16  and  C_17
REMARK    5  A    between atoms: N_21  and  C_22
REMARK                            x       y       z     vdW  Elec       q    Type
REMARK                         _______ _______ _______ _____ _____    ______ ____
ROOT
ATOM      1  C   UNL     1       6.010   0.844   0.212  0.00  0.00    +0.262 C 
ATOM      2  O   UNL     1       6.665  -0.181   0.190  0.00  0.00    -0.269 OA
ATOM      3  N   UNL     1       6.628   2.040   0.167  0.00  0.00    -0.310 N 
ATOM      4  H   UNL     1       6.106   2.857   0.184  0.00  0.00    +0.149 HD
ENDROOT
BRANCH   1  13
ATOM      5  C   UNL     1      -0.001   1.387   0.517  0.00  0.00    +0.022 A 
ATOM      6  C   UNL     1       1.171   2.106   0.449  0.00  0.00    +0.028 A 
ATOM      7  C   UNL     1       2.391   1.438   0.393  0.00  0.00    +0.049 A 
ATOM      8  C   UNL     1       2.407   0.029   0.408  0.00  0.00    +0.020 A 
ATOM      9  C   UNL     1       1.203  -0.680   0.477  0.00  0.00    +0.031 A 
ATOM     10  C   UNL     1       0.018  -0.002   0.531  0.00  0.00    +0.042 A 
ATOM     11 CL   UNL     1      -1.475  -0.883   0.618  0.00  0.00    -0.084 Cl
ATOM     12  C   UNL     1       3.810  -0.369   0.339  0.00  0.00    +0.078 A 
ATOM     13  C   UNL     1       4.544   0.777   0.288  0.00  0.00    +0.121 A 
ATOM     14  N   UNL     1       3.695   1.867   0.321  0.00  0.00    -0.349 N 
ATOM     15  H   UNL     1       3.977   2.795   0.295  0.00  0.00    +0.166 HD
ATOM     16 CL   UNL     1       4.425  -1.992   0.325  0.00  0.00    -0.081 Cl
ENDBRANCH   1  13
BRANCH   3  17
ATOM     17  C   UNL     1       8.089   2.107   0.091  0.00  0.00    +0.112 C 
BRANCH  17  18
ATOM     18  C   UNL     1       8.532   3.571   0.052  0.00  0.00    +0.095 C 
BRANCH  18  19
ATOM     19  C   UNL     1      10.035   3.640  -0.027  0.00  0.00    +0.134 A 
ATOM     20  N   UNL     1      10.835   2.623  -0.062  0.00  0.00    -0.158 NA
ATOM     21  N   UNL     1      12.149   3.104  -0.133  0.00  0.00    -0.254 N 
ATOM     22  C   UNL     1      12.084   4.451  -0.137  0.00  0.00    +0.176 A 
ATOM     23  N   UNL     1      10.781   4.792  -0.078  0.00  0.00    -0.304 N 
ATOM     24  S   UNL     1      13.411   5.530  -0.212  0.00  0.00    -0.011 S 
ATOM     25  H   UNL     1      12.957   2.567  -0.171  0.00  0.00    +0.191 HD
BRANCH  23  26
ATOM     26  C   UNL     1      10.251   6.158  -0.067  0.00  0.00    +0.091 C 
ATOM     27  C   UNL     1      11.228   7.292   0.249  0.00  0.00    +0.027 C 
ATOM     28  C   UNL     1      10.711   7.103  -1.178  0.00  0.00    +0.027 C 
ENDBRANCH  23  26
ENDBRANCH  18  19
ENDBRANCH  17  18
ENDBRANCH   3  17
TORSDOF 5
