REMARK  Name = ZINC19301117
REMARK  5 active torsions:
REMARK  status: ('A' for Active; 'I' for Inactive)
REMARK    1  A    between atoms: C_1  and  C_2
REMARK    2  A    between atoms: C_3  and  C_12
REMARK    3  A    between atoms: C_14  and  C_17
REMARK    4  A    between atoms: N_22  and  C_24
REMARK    5  A    between atoms: C_24  and  C_25
REMARK                            x       y       z     vdW  Elec       q    Type
REMARK                         _______ _______ _______ _____ _____    ______ ____
ROOT
ATOM      1  C   UNL     1       6.237   8.132   3.249  0.00  0.00    +0.204 A 
ATOM      2  N   UNL     1       5.628   6.938   3.433  0.00  0.00    -0.191 NA
ATOM      3  C   UNL     1       4.425   7.076   2.934  0.00  0.00    +0.232 A 
ATOM      4  O   UNL     1       4.330   8.328   2.476  0.00  0.00    -0.337 OA
ATOM      5  N   UNL     1       5.373   8.919   2.663  0.00  0.00    -0.056 NA
ENDROOT
BRANCH   1   8
ATOM      6  C   UNL     1       7.914   6.162   4.552  0.00  0.00    +0.066 C 
ATOM      7  C   UNL     1       8.441   7.546   4.271  0.00  0.00    +0.049 A 
ATOM      8  C   UNL     1       7.623   8.484   3.645  0.00  0.00    +0.047 A 
ATOM      9  C   UNL     1       8.128   9.765   3.400  0.00  0.00    -0.034 A 
ATOM     10  C   UNL     1       9.421  10.049   3.785  0.00  0.00    -0.043 A 
ATOM     11  C   UNL     1      10.174   9.058   4.397  0.00  0.00    +0.113 A 
ATOM     12  N   UNL     1       9.673   7.859   4.616  0.00  0.00    -0.259 NA
ATOM     13  C   UNL     1      10.035  11.404   3.562  0.00  0.00    -0.045 C 
ATOM     14  N   UNL     1       9.266  12.156   2.564  0.00  0.00    +0.382 N 
ATOM     15  C   UNL     1       7.841  12.186   2.932  0.00  0.00    -0.077 C 
ATOM     16  C   UNL     1       7.255  10.788   2.727  0.00  0.00    +0.017 C 
ATOM     17  H   UNL     1       9.644  13.187   2.510  0.00  0.00    -0.085 HD
ATOM     18  H   UNL     1       9.372  11.674   1.581  0.00  0.00    -0.085 HD
ENDBRANCH   1   8
BRANCH   3  19
ATOM     19  C   UNL     1       3.348   6.022   2.890  0.00  0.00    +0.092 C 
ATOM     20  C   UNL     1       2.122   6.513   3.665  0.00  0.00    +0.015 C 
ATOM     21  C   UNL     1       1.012   5.463   3.566  0.00  0.00    +0.016 C 
ATOM     22  C   UNL     1       0.685   5.212   2.092  0.00  0.00    +0.085 C 
ATOM     23  N   UNL     1       1.889   4.744   1.395  0.00  0.00    -0.294 NA
ATOM     24  C   UNL     1       2.953   5.755   1.436  0.00  0.00    +0.097 C 
BRANCH  23  25
ATOM     25  C   UNL     1       1.581   4.361   0.010  0.00  0.00    +0.158 C 
BRANCH  25  26
ATOM     26  C   UNL     1       0.671   3.160   0.012  0.00  0.00    +0.119 A 
ATOM     27  C   UNL     1      -0.673   3.191   0.025  0.00  0.00    +0.046 A 
ATOM     28  C   UNL     1      -1.114   1.848   0.017  0.00  0.00    +0.041 A 
ATOM     29  C   UNL     1      -0.013   1.076   0.008  0.00  0.00    +0.195 A 
ATOM     30  O   UNL     1       1.066   1.876   0.002  0.00  0.00    -0.467 OA
ENDBRANCH  25  26
ENDBRANCH  23  25
ENDBRANCH   3  19
TORSDOF 4
