REMARK  Name = ZINC64873806
REMARK  6 active torsions:
REMARK  status: ('A' for Active; 'I' for Inactive)
REMARK    1  A    between atoms: C_1  and  N_2
REMARK    2  A    between atoms: C_10  and  N_14
REMARK    3  A    between atoms: C_17  and  C_20
REMARK    4  A    between atoms: N_22  and  C_23
REMARK    5  A    between atoms: C_23  and  C_24
REMARK    6  A    between atoms: C_24  and  C_25
REMARK                            x       y       z     vdW  Elec       q    Type
REMARK                         _______ _______ _______ _____ _____    ______ ____
ROOT
ATOM      1  N   UNL     1       1.289  -2.593  -1.473  0.00  0.00    +0.398 N 
ATOM      2  C   UNL     1       0.104  -2.098  -2.186  0.00  0.00    -0.075 C 
ATOM      3  C   UNL     1       0.199  -2.477  -3.665  0.00  0.00    -0.006 C 
ATOM      4  C   UNL     1       0.273  -4.001  -3.792  0.00  0.00    +0.071 C 
ATOM      5  C   UNL     1       1.469  -4.513  -2.984  0.00  0.00    -0.006 C 
ATOM      6  C   UNL     1       1.328  -4.059  -1.530  0.00  0.00    -0.075 C 
ATOM      7  H   UNL     1       2.120  -2.218  -1.906  0.00  0.00    -0.078 HD
ENDROOT
BRANCH   1  17
ATOM      8  C   UNL     1      -0.018   1.461   0.010  0.00  0.00    +0.138 C 
ATOM      9  N   UNL     1       0.002  -0.004   0.002  0.00  0.00    -0.273 N 
ATOM     10  C   UNL     1      -1.205  -0.713   0.004  0.00  0.00    +0.057 A 
ATOM     11  C   UNL     1      -2.402  -0.075  -0.279  0.00  0.00    +0.025 A 
ATOM     12  C   UNL     1      -3.584  -0.793  -0.267  0.00  0.00    +0.002 A 
ATOM     13  C   UNL     1      -3.579  -2.144   0.025  0.00  0.00    +0.002 A 
ATOM     14  C   UNL     1      -2.388  -2.790   0.307  0.00  0.00    +0.025 A 
ATOM     15  C   UNL     1      -1.201  -2.079   0.294  0.00  0.00    +0.048 A 
ATOM     16  N   UNL     1       0.023  -2.707   0.564  0.00  0.00    -0.348 N 
ATOM     17  C   UNL     1       1.231  -2.159  -0.071  0.00  0.00    +0.105 C 
ATOM     18  C   UNL     1       1.181  -0.654  -0.013  0.00  0.00    +0.223 C 
ATOM     19  O   UNL     1       2.215  -0.021   0.025  0.00  0.00    -0.275 OA
ATOM     20  H   UNL     1       0.071  -3.477   1.151  0.00  0.00    +0.145 HD
ENDBRANCH   1  17
BRANCH   4  21
ATOM     21  C   UNL     1       0.445  -4.378  -5.241  0.00  0.00    +0.216 C 
ATOM     22  O   UNL     1       0.503  -3.514  -6.090  0.00  0.00    -0.276 OA
ATOM     23  N   UNL     1       0.535  -5.676  -5.593  0.00  0.00    -0.315 N 
ATOM     24  H   UNL     1       0.489  -6.367  -4.914  0.00  0.00    +0.149 HD
BRANCH  23  25
ATOM     25  C   UNL     1       0.702  -6.043  -7.002  0.00  0.00    +0.108 C 
BRANCH  25  26
ATOM     26  C   UNL     1       0.776  -7.566  -7.127  0.00  0.00    +0.052 C 
BRANCH  26  27
ATOM     27  C   UNL     1       0.948  -7.943  -8.576  0.00  0.00    -0.040 C 
ATOM     28  C   UNL     1       2.111  -8.201  -9.216  0.00  0.00    -0.001 A 
ATOM     29  C   UNL     1       3.510  -8.205  -8.774  0.00  0.00    +0.010 A 
ATOM     30  C   UNL     1       4.480  -8.509  -9.666  0.00  0.00    +0.001 A 
ATOM     31  C   UNL     1       4.183  -8.819 -11.001  0.00  0.00    +0.002 A 
ATOM     32  C   UNL     1       2.921  -8.835 -11.482  0.00  0.00    +0.026 A 
ATOM     33  C   UNL     1       1.823  -8.531 -10.631  0.00  0.00    +0.043 A 
ATOM     34  N   UNL     1       0.533  -8.480 -10.855  0.00  0.00    -0.380 N 
ATOM     35  C   UNL     1      -0.145  -8.117  -9.606  0.00  0.00    +0.144 C 
ATOM     36  H   UNL     1       0.099  -8.657 -11.704  0.00  0.00    +0.160 HD
ENDBRANCH  26  27
ENDBRANCH  25  26
ENDBRANCH  23  25
ENDBRANCH   4  21
TORSDOF 5
