REMARK  Name = ZINC07132310
REMARK  6 active torsions:
REMARK  status: ('A' for Active; 'I' for Inactive)
REMARK    1  A    between atoms: C_1  and  C_2
REMARK    2  A    between atoms: C_15  and  C_17
REMARK    3  A    between atoms: C_17  and  C_18
REMARK    4  A    between atoms: C_18  and  C_19
REMARK    5  A    between atoms: N_21  and  C_22
REMARK    6  A    between atoms: C_22  and  C_23
REMARK                            x       y       z     vdW  Elec       q    Type
REMARK                         _______ _______ _______ _____ _____    ______ ____
ROOT
ATOM      1  C   UNL     1       1.397   3.572   0.259  0.00  0.00    +0.008 C 
ATOM      2  C   UNL     1       1.415   2.064  -0.000  0.00  0.00    -0.009 C 
ATOM      3  C   UNL     1      -0.019   1.524   0.010  0.00  0.00    +0.008 C 
ATOM      4  C   UNL     1       0.002  -0.004   0.002  0.00  0.00    +0.037 C 
ATOM      5  C   UNL     1       0.873  -0.481  -1.158  0.00  0.00    -0.023 A 
ATOM      6  C   UNL     1       1.763   0.357  -1.738  0.00  0.00    -0.004 A 
ATOM      7  S   UNL     1       2.538  -0.601  -3.016  0.00  0.00    -0.073 S 
ATOM      8  C   UNL     1       1.671  -2.118  -2.769  0.00  0.00    +0.116 A 
ATOM      9  C   UNL     1       0.801  -1.828  -1.695  0.00  0.00    +0.075 A 
ATOM     10  C   UNL     1      -0.058  -2.888  -1.248  0.00  0.00    +0.260 A 
ATOM     11  O   UNL     1      -0.845  -2.741  -0.329  0.00  0.00    -0.267 OA
ATOM     12  N   UNL     1       0.063  -4.061  -1.913  0.00  0.00    -0.310 N 
ATOM     13  H   UNL     1      -0.561  -4.921  -1.628  0.00  0.00    +0.170 HD
ATOM     14  C   UNL     1       0.930  -4.245  -2.937  0.00  0.00    +0.111 A 
ATOM     15  N   UNL     1       1.732  -3.300  -3.375  0.00  0.00    -0.227 NA
ATOM     16  C   UNL     1       2.034   1.785  -1.377  0.00  0.00    +0.046 C 
ENDROOT
BRANCH  14  17
ATOM     17  C   UNL     1       0.978  -5.595  -3.605  0.00  0.00    +0.083 C 
BRANCH  17  18
ATOM     18  C   UNL     1       2.021  -5.573  -4.725  0.00  0.00    +0.103 C 
BRANCH  18  19
ATOM     19  C   UNL     1       2.069  -6.923  -5.393  0.00  0.00    +0.214 C 
ATOM     20  O   UNL     1       1.341  -7.815  -5.011  0.00  0.00    -0.276 OA
ATOM     21  N   UNL     1       2.921  -7.139  -6.415  0.00  0.00    -0.311 N 
ATOM     22  H   UNL     1       3.581  -6.330  -6.761  0.00  0.00    +0.149 HD
BRANCH  21  23
ATOM     23  C   UNL     1       2.968  -8.452  -7.064  0.00  0.00    +0.139 C 
BRANCH  23  24
ATOM     24  C   UNL     1       3.994  -8.430  -8.167  0.00  0.00    -0.030 A 
ATOM     25  C   UNL     1       3.623  -8.072  -9.450  0.00  0.00    +0.005 A 
ATOM     26  C   UNL     1       4.566  -8.047 -10.460  0.00  0.00    +0.000 A 
ATOM     27  C   UNL     1       5.878  -8.391 -10.191  0.00  0.00    +0.000 A 
ATOM     28  C   UNL     1       6.247  -8.754  -8.909  0.00  0.00    +0.000 A 
ATOM     29  C   UNL     1       5.306  -8.774  -7.897  0.00  0.00    +0.005 A 
ENDBRANCH  23  24
ENDBRANCH  21  23
ENDBRANCH  18  19
ENDBRANCH  17  18
ENDBRANCH  14  17
TORSDOF 5
