REMARK  Name = ZINC03670933
REMARK  10 active torsions:
REMARK  status: ('A' for Active; 'I' for Inactive)
REMARK    1  A    between atoms: C_1  and  C_2
REMARK    2  A    between atoms: C_4  and  C_35
REMARK    3  A    between atoms: C_6  and  S_8
REMARK    4  A    between atoms: S_8  and  C_9
REMARK    5  A    between atoms: C_13  and  S_15
REMARK    6  A    between atoms: S_15  and  C_16
REMARK    7  A    between atoms: C_18  and  C_23
REMARK    8  A    between atoms: C_20  and  C_22
REMARK    9  A    between atoms: N_24  and  C_25
REMARK   10  A    between atoms: C_30  and  C_31
REMARK                            x       y       z     vdW  Elec       q    Type
REMARK                         _______ _______ _______ _____ _____    ______ ____
ROOT
ATOM      1  C   UNL     1       0.350   0.039  -0.034  0.00  0.00    +0.201 A 
ATOM      2  N   UNL     1       0.138   1.349   0.038  0.00  0.00    -0.188 NA
ATOM      3  C   UNL     1       1.169   2.188   0.068  0.00  0.00    +0.224 A 
ATOM      4  N   UNL     1       2.411   1.717   0.026  0.00  0.00    -0.188 NA
ATOM      5  C   UNL     1       2.623   0.406  -0.046  0.00  0.00    +0.201 A 
ATOM      6  N   UNL     1       1.592  -0.433  -0.076  0.00  0.00    -0.195 NA
ATOM      7  N   UNL     1       0.949   3.550   0.142  0.00  0.00    -0.283 N 
ATOM      8  H   UNL     1       0.049   3.890   0.260  0.00  0.00    +0.155 HD
ENDROOT
BRANCH   7   9
ATOM      9  C   UNL     1       2.025   4.438   0.048  0.00  0.00    +0.045 A 
ATOM     10  C   UNL     1       3.112   4.132  -0.761  0.00  0.00    +0.024 A 
ATOM     11  C   UNL     1       4.170   5.013  -0.856  0.00  0.00    +0.002 A 
ATOM     12  C   UNL     1       4.155   6.195  -0.138  0.00  0.00    +0.001 A 
ATOM     13  C   UNL     1       3.077   6.501   0.672  0.00  0.00    +0.014 A 
ATOM     14  C   UNL     1       2.013   5.626   0.768  0.00  0.00    +0.076 A 
BRANCH  14  15
ATOM     15  C   UNL     1       0.839   5.959   1.652  0.00  0.00    +0.419 C 
ATOM     16  F   UNL     1       1.056   7.197   2.268  0.00  0.00    -0.166 F 
ATOM     17  F   UNL     1      -0.325   6.021   0.878  0.00  0.00    -0.166 F 
ATOM     18  F   UNL     1       0.696   4.970   2.631  0.00  0.00    -0.166 F 
ENDBRANCH  14  15
ENDBRANCH   7   9
BRANCH   1  19
ATOM     19  S   UNL     1      -1.017  -1.073  -0.074  0.00  0.00    -0.010 S 
BRANCH  19  25
ATOM     20  C   UNL     1      -2.752   3.717   0.403  0.00  0.00    +0.066 C 
ATOM     21  C   UNL     1      -3.056   2.241   0.369  0.00  0.00    +0.043 A 
ATOM     22  C   UNL     1      -4.357   1.788   0.521  0.00  0.00    +0.046 A 
ATOM     23  C   UNL     1      -4.593   0.423   0.483  0.00  0.00    +0.043 A 
ATOM     24  N   UNL     1      -3.575  -0.403   0.304  0.00  0.00    -0.227 NA
ATOM     25  C   UNL     1      -2.343   0.063   0.162  0.00  0.00    +0.196 A 
ATOM     26  N   UNL     1      -2.083   1.361   0.198  0.00  0.00    -0.227 NA
ATOM     27  C   UNL     1      -5.991  -0.115   0.645  0.00  0.00    +0.066 C 
ENDBRANCH  19  25
ENDBRANCH   1  19
BRANCH   5  28
ATOM     28  S   UNL     1       4.269  -0.219  -0.101  0.00  0.00    -0.010 S 
BRANCH  28  29
ATOM     29  C   UNL     1       3.942  -1.949  -0.025  0.00  0.00    +0.196 A 
ATOM     30  N   UNL     1       2.687  -2.372  -0.056  0.00  0.00    -0.227 NA
ATOM     31  C   UNL     1       2.408  -3.664  -0.007  0.00  0.00    +0.043 A 
ATOM     32  C   UNL     1       3.446  -4.577   0.089  0.00  0.00    +0.046 A 
ATOM     33  C   UNL     1       4.747  -4.100   0.124  0.00  0.00    +0.043 A 
ATOM     34  N   UNL     1       4.958  -2.795   0.066  0.00  0.00    -0.227 NA
ATOM     35  C   UNL     1       5.907  -5.056   0.229  0.00  0.00    +0.066 C 
ATOM     36  C   UNL     1       0.977  -4.136  -0.048  0.00  0.00    +0.066 C 
ENDBRANCH  28  29
ENDBRANCH   5  28
TORSDOF 6
