REMARK  Name = ZINC39691006
REMARK  6 active torsions:
REMARK  status: ('A' for Active; 'I' for Inactive)
REMARK    1  A    between atoms: C_1  and  C_2
REMARK    2  A    between atoms: C_2  and  C_4
REMARK    3  A    between atoms: C_4  and  N_5
REMARK    4  A    between atoms: C_6  and  C_8
REMARK    5  A    between atoms: C_19  and  C_21
REMARK    6  A    between atoms: C_24  and  C_26
REMARK                            x       y       z     vdW  Elec       q    Type
REMARK                         _______ _______ _______ _____ _____    ______ ____
ROOT
ATOM      1  C   UNL     1      -3.044  -1.708  -3.422  0.00  0.00    +0.100 C 
ATOM      2  C   UNL     1      -3.825  -2.664  -2.492  0.00  0.00    +0.121 C 
ATOM      3  N   UNL     1      -4.700  -3.440  -3.402  0.00  0.00    -0.294 N 
ATOM      4  C   UNL     1      -3.855  -3.700  -4.593  0.00  0.00    +0.115 C 
ATOM      5  C   UNL     1      -3.066  -2.392  -4.799  0.00  0.00    -0.004 C 
ATOM      6  C   UNL     1      -3.772  -1.504  -5.819  0.00  0.00    -0.010 C 
ATOM      7  C   UNL     1      -3.731  -2.180  -7.192  0.00  0.00    -0.082 C 
ATOM      8  N   UNL     1      -2.335  -2.400  -7.589  0.00  0.00    +0.379 N 
ATOM      9  C   UNL     1      -1.688  -3.329  -6.654  0.00  0.00    -0.082 C 
ATOM     10  C   UNL     1      -1.644  -2.701  -5.258  0.00  0.00    -0.010 C 
ATOM     11  C   UNL     1      -5.975  -3.823  -3.195  0.00  0.00    +0.282 C 
ATOM     12  O   UNL     1      -6.565  -4.463  -4.047  0.00  0.00    -0.267 OA
ATOM     13  H   UNL     1      -2.309  -2.789  -8.520  0.00  0.00    -0.086 HD
ATOM     14  H   UNL     1      -1.842  -1.520  -7.582  0.00  0.00    -0.086 HD
ENDROOT
BRANCH  11  15
ATOM     15  C   UNL     1      -6.653  -3.469  -1.945  0.00  0.00    +0.190 A 
ATOM     16  C   UNL     1      -7.946  -3.800  -1.604  0.00  0.00    +0.055 A 
ATOM     17  C   UNL     1      -8.178  -3.264  -0.333  0.00  0.00    +0.050 A 
ATOM     18  C   UNL     1      -7.030  -2.633   0.052  0.00  0.00    +0.136 A 
ATOM     19  O   UNL     1      -6.117  -2.767  -0.924  0.00  0.00    -0.450 OA
BRANCH  18  20
ATOM     20  C   UNL     1      -6.824  -1.924   1.331  0.00  0.00    +0.017 A 
ATOM     21  C   UNL     1      -7.854  -1.864   2.273  0.00  0.00    +0.011 A 
ATOM     22  C   UNL     1      -7.655  -1.200   3.466  0.00  0.00    +0.001 A 
ATOM     23  C   UNL     1      -6.439  -0.596   3.731  0.00  0.00    +0.000 A 
ATOM     24  C   UNL     1      -5.415  -0.651   2.802  0.00  0.00    +0.001 A 
ATOM     25  C   UNL     1      -5.598  -1.315   1.607  0.00  0.00    +0.011 A 
ENDBRANCH  18  20
ENDBRANCH  11  15
BRANCH   1  27
ATOM     26  N   UNL     1      -0.954  -0.407  -3.188  0.00  0.00    -0.311 N 
ATOM     27  C   UNL     1      -1.626  -1.548  -2.937  0.00  0.00    +0.218 C 
ATOM     28  O   UNL     1      -1.090  -2.445  -2.322  0.00  0.00    -0.275 OA
ATOM     29  H   UNL     1      -1.383   0.311  -3.679  0.00  0.00    +0.149 HD
BRANCH  26  30
ATOM     30  C   UNL     1       0.425  -0.251  -2.717  0.00  0.00    +0.134 C 
BRANCH  30  32
ATOM     31  C   UNL     1       1.542   1.302  -4.493  0.00  0.00    +0.040 C 
ATOM     32  C   UNL     1       0.944   1.104  -3.124  0.00  0.00    -0.063 C 
ATOM     33  C   UNL     1       0.876   2.110  -2.287  0.00  0.00    +0.009 C 
ENDBRANCH  30  32
ENDBRANCH  26  30
ENDBRANCH   1  27
TORSDOF 5
