REMARK  Name = ZINC09461857
REMARK  9 active torsions:
REMARK  status: ('A' for Active; 'I' for Inactive)
REMARK    1  A    between atoms: C_1  and  C_2
REMARK    2  A    between atoms: C_2  and  O_3
REMARK    3  A    between atoms: O_3  and  C_4
REMARK    4  A    between atoms: C_6  and  C_11
REMARK    5  A    between atoms: C_9  and  O_10
REMARK    6  A    between atoms: C_21  and  C_23
REMARK    7  A    between atoms: C_23  and  O_24
REMARK    8  A    between atoms: O_24  and  C_25
REMARK    9  A    between atoms: C_30  and  C_31
REMARK                            x       y       z     vdW  Elec       q    Type
REMARK                         _______ _______ _______ _____ _____    ______ ____
ROOT
ATOM      1  C   UNL     1      -0.206  -4.962   0.438  0.00  0.00    +0.024 C 
ATOM      2  C   UNL     1      -0.187  -6.321   0.218  0.00  0.00    +0.081 C 
ATOM      3  C   UNL     1      -0.849  -7.277   1.151  0.00  0.00    +0.153 C 
ATOM      4  N   UNL     1      -1.938  -6.993   1.814  0.00  0.00    -0.283 NA
ATOM      5  N   UNL     1      -0.184  -8.518   1.246  0.00  0.00    -0.152 N 
ATOM      6  C   UNL     1       0.620  -8.892   0.191  0.00  0.00    +0.181 C 
ATOM      7  N   UNL     1       0.926  -8.186  -0.869  0.00  0.00    -0.152 NA
ATOM      8  C   UNL     1       0.488  -6.913  -0.964  0.00  0.00    +0.273 C 
ATOM      9  O   UNL     1       0.644  -6.266  -1.987  0.00  0.00    -0.268 OA
ATOM     10  S   UNL     1       1.123 -10.524   0.667  0.00  0.00    -0.035 S 
ATOM     11  C   UNL     1       0.322 -10.559   2.265  0.00  0.00    +0.137 C 
ATOM     12  N   UNL     1      -0.274  -9.402   2.300  0.00  0.00    -0.166 NA
ATOM     13  H   UNL     1      -2.329  -7.652   2.409  0.00  0.00    +0.188 HD
ENDROOT
BRANCH   1  16
ATOM     14  C   UNL     1       0.888  -1.980  -1.550  0.00  0.00    +0.162 A 
ATOM     15  C   UNL     1       0.118  -2.811  -0.763  0.00  0.00    +0.057 A 
ATOM     16  C   UNL     1       0.606  -4.074  -0.398  0.00  0.00    -0.021 A 
ATOM     17  C   UNL     1       1.874  -4.483  -0.834  0.00  0.00    +0.012 A 
ATOM     18  C   UNL     1       2.635  -3.646  -1.618  0.00  0.00    +0.050 A 
ATOM     19  C   UNL     1       2.147  -2.397  -1.984  0.00  0.00    +0.158 A 
BRANCH  19  20
ATOM     20  O   UNL     1       2.900  -1.579  -2.763  0.00  0.00    -0.503 OA
ATOM     21  H   UNL     1       3.484  -0.990  -2.265  0.00  0.00    +0.292 HD
ENDBRANCH  19  20
BRANCH  14  22
ATOM     22  O   UNL     1       0.418  -0.755  -1.907  0.00  0.00    -0.489 OA
BRANCH  22  24
ATOM     23  C   UNL     1      -1.233   1.009  -1.928  0.00  0.00    +0.048 C 
ATOM     24  C   UNL     1      -0.878  -0.392  -1.427  0.00  0.00    +0.226 C 
ENDBRANCH  22  24
ENDBRANCH  14  22
ENDBRANCH   1  16
BRANCH  11  25
ATOM     25  C   UNL     1       0.335 -11.649   3.306  0.00  0.00    +0.293 C 
BRANCH  25  26
ATOM     26  O   UNL     1      -0.446 -11.241   4.431  0.00  0.00    -0.485 OA
BRANCH  26  27
ATOM     27  C   UNL     1      -0.538 -12.116   5.467  0.00  0.00    +0.124 A 
ATOM     28  C   UNL     1       0.114 -13.339   5.404  0.00  0.00    +0.046 A 
ATOM     29  C   UNL     1       0.019 -14.226   6.458  0.00  0.00    +0.004 A 
ATOM     30  C   UNL     1      -0.726 -13.897   7.576  0.00  0.00    +0.000 A 
ATOM     31  C   UNL     1      -1.377 -12.679   7.641  0.00  0.00    +0.007 A 
ATOM     32  C   UNL     1      -1.280 -11.786   6.592  0.00  0.00    -0.009 A 
ATOM     33  C   UNL     1      -1.985 -10.456   6.666  0.00  0.00    +0.047 C 
ENDBRANCH  26  27
ENDBRANCH  25  26
ENDBRANCH  11  25
TORSDOF 7
