REMARK  Name = ZINC04045295
REMARK  7 active torsions:
REMARK  status: ('A' for Active; 'I' for Inactive)
REMARK    1  A    between atoms: C_1  and  O_2
REMARK    2  A    between atoms: O_2  and  C_3
REMARK    3  A    between atoms: C_10  and  C_32
REMARK    4  A    between atoms: C_18  and  S_21
REMARK    5  A    between atoms: S_21  and  C_22
REMARK    6  A    between atoms: C_27  and  N_28
REMARK    7  A    between atoms: C_35  and  N_38
REMARK                            x       y       z     vdW  Elec       q    Type
REMARK                         _______ _______ _______ _____ _____    ______ ____
ROOT
ATOM      1  C   UNL     1      -3.515  -0.923  -0.768  0.00  0.00    +0.141 A 
ATOM      2  C   UNL     1      -4.746  -1.002  -0.146  0.00  0.00    +0.047 A 
ATOM      3  C   UNL     1      -4.867  -0.697   1.197  0.00  0.00    +0.004 A 
ATOM      4  C   UNL     1      -3.751  -0.306   1.913  0.00  0.00    +0.006 A 
ATOM      5  C   UNL     1      -2.518  -0.220   1.298  0.00  0.00    -0.018 A 
ATOM      6  C   UNL     1      -2.375  -0.536  -0.052  0.00  0.00    +0.073 A 
ATOM      7  N   UNL     1      -1.161  -0.516  -0.739  0.00  0.00    -0.334 N 
ATOM      8  C   UNL     1       0.002  -0.004   0.002  0.00  0.00    +0.104 C 
ATOM      9  C   UNL     1      -0.102  -0.529   1.419  0.00  0.00    +0.024 C 
ATOM     10  C   UNL     1      -1.313   0.214   2.053  0.00  0.00    +0.045 C 
ATOM     11  C   UNL     1      -1.197  -0.135   3.527  0.00  0.00    +0.101 C 
ATOM     12  C   UNL     1       0.324  -0.312   3.779  0.00  0.00    +0.070 C 
ATOM     13  C   UNL     1       1.017  -0.160   2.394  0.00  0.00    +0.022 C 
ATOM     14 CL   UNL     1      -1.850   1.203   4.544  0.00  0.00    -0.120 Cl
ATOM     15  H   UNL     1      -1.256  -0.050  -1.629  0.00  0.00    +0.147 HD
ENDROOT
BRANCH   8  16
ATOM     16  C   UNL     1      -0.018   1.503   0.010  0.00  0.00    -0.027 A 
ATOM     17  C   UNL     1      -1.217   2.179  -0.125  0.00  0.00    +0.008 A 
ATOM     18  C   UNL     1      -1.236   3.561  -0.112  0.00  0.00    +0.033 A 
ATOM     19  C   UNL     1      -0.056   4.267   0.025  0.00  0.00    +0.126 A 
ATOM     20  C   UNL     1       1.143   3.591   0.154  0.00  0.00    +0.033 A 
ATOM     21  C   UNL     1       1.162   2.209   0.147  0.00  0.00    +0.008 A 
BRANCH  19  22
ATOM     22  N   UNL     1      -0.076   5.747   0.032  0.00  0.00    +0.056 N 
ATOM     23  O   UNL     1       0.964   6.370   0.152  0.00  0.00    -0.126 OA
ATOM     24  O   UNL     1      -1.132   6.343  -0.082  0.00  0.00    -0.126 OA
ENDBRANCH  19  22
ENDBRANCH   8  16
BRANCH   1  26
ATOM     25  C   UNL     1      -4.607  -1.612  -2.766  0.00  0.00    +0.277 C 
ATOM     26  O   UNL     1      -3.409  -1.224  -2.091  0.00  0.00    -0.493 OA
ENDBRANCH   1  26
BRANCH  12  27
ATOM     27  S   UNL     1       0.921   0.968   4.918  0.00  0.00    -0.118 S 
BRANCH  27  28
ATOM     28  C   UNL     1       0.158   0.562   6.453  0.00  0.00    +0.038 A 
ATOM     29  C   UNL     1      -0.685  -0.539   6.542  0.00  0.00    +0.017 A 
ATOM     30  C   UNL     1      -1.276  -0.858   7.749  0.00  0.00    +0.001 A 
ATOM     31  C   UNL     1      -1.039  -0.076   8.865  0.00  0.00    +0.002 A 
ATOM     32  C   UNL     1      -0.205   1.023   8.779  0.00  0.00    +0.034 A 
ATOM     33  C   UNL     1       0.395   1.345   7.577  0.00  0.00    +0.140 A 
BRANCH  33  34
ATOM     34  N   UNL     1       1.287   2.522   7.486  0.00  0.00    +0.058 N 
ATOM     35  O   UNL     1       1.493   3.208   8.471  0.00  0.00    -0.126 OA
ATOM     36  O   UNL     1       1.815   2.805   6.425  0.00  0.00    -0.126 OA
ENDBRANCH  33  34
ENDBRANCH  27  28
ENDBRANCH  12  27
TORSDOF 6
