REMARK  Name = ZINC39751426
REMARK  13 active torsions:
REMARK  status: ('A' for Active; 'I' for Inactive)
REMARK    1  A    between atoms: C_1  and  C_2
REMARK    2  A    between atoms: C_2  and  C_4
REMARK    3  A    between atoms: C_2  and  N_27
REMARK    4  A    between atoms: C_7  and  S_12
REMARK    5  A    between atoms: N_8  and  C_9
REMARK    6  A    between atoms: C_9  and  C_10
REMARK    7  A    between atoms: S_12  and  C_13
REMARK    8  A    between atoms: C_13  and  C_15
REMARK    9  A    between atoms: C_13  and  C_16
REMARK   10  A    between atoms: C_22  and  C_24
REMARK   11  A    between atoms: C_28  and  C_30
REMARK   12  A    between atoms: C_33  and  O_36
REMARK   13  A    between atoms: O_36  and  C_37
REMARK                            x       y       z     vdW  Elec       q    Type
REMARK                         _______ _______ _______ _____ _____    ______ ____
ROOT
ATOM      1  C   UNL     1       0.731  -0.503   1.223  0.00  0.00    +0.155 A 
ATOM      2  N   UNL     1       0.272  -0.523   2.442  0.00  0.00    -0.132 NA
ATOM      3  N   UNL     1       1.154  -1.013   3.238  0.00  0.00    -0.122 NA
ATOM      4  C   UNL     1       2.233  -1.336   2.563  0.00  0.00    +0.193 A 
ATOM      5  N   UNL     1       1.994  -1.025   1.255  0.00  0.00    -0.301 N 
ENDROOT
BRANCH   1   7
ATOM      6  C   UNL     1      -0.019   1.526   0.010  0.00  0.00    +0.036 C 
ATOM      7  C   UNL     1       0.002  -0.004   0.002  0.00  0.00    +0.138 C 
BRANCH   7   8
ATOM      8  N   UNL     1      -1.372  -0.511   0.012  0.00  0.00    -0.302 N 
ATOM      9  C   UNL     1      -2.051  -0.643  -1.145  0.00  0.00    +0.245 C 
ATOM     10  O   UNL     1      -1.522  -0.341  -2.197  0.00  0.00    -0.270 OA
ATOM     11  H   UNL     1      -1.794  -0.752   0.852  0.00  0.00    +0.150 HD
BRANCH   9  12
ATOM     12  C   UNL     1      -3.436  -1.154  -1.134  0.00  0.00    +0.037 A 
ATOM     13  C   UNL     1      -4.047  -1.496   0.075  0.00  0.00    +0.016 A 
ATOM     14  C   UNL     1      -5.339  -1.972   0.081  0.00  0.00    +0.046 A 
ATOM     15  C   UNL     1      -6.035  -2.112  -1.114  0.00  0.00    +0.120 A 
ATOM     16  C   UNL     1      -5.431  -1.773  -2.319  0.00  0.00    +0.046 A 
ATOM     17  C   UNL     1      -4.141  -1.291  -2.333  0.00  0.00    +0.016 A 
BRANCH  15  18
ATOM     18  O   UNL     1      -7.308  -2.582  -1.105  0.00  0.00    -0.495 OA
ATOM     19  C   UNL     1      -7.965  -2.702  -2.368  0.00  0.00    +0.277 C 
ENDBRANCH  15  18
ENDBRANCH   9  12
ENDBRANCH   7   8
ENDBRANCH   1   7
BRANCH   5  20
ATOM     20  C   UNL     1       2.905  -1.210   0.122  0.00  0.00    +0.152 C 
BRANCH  20  21
ATOM     21  C   UNL     1       3.748   0.027  -0.051  0.00  0.00    -0.013 C 
ATOM     22  C   UNL     1       5.055  -0.068  -0.061  0.00  0.00    +0.005 C 
ENDBRANCH  20  21
ENDBRANCH   5  20
BRANCH   4  23
ATOM     23  S   UNL     1       3.707  -2.043   3.221  0.00  0.00    -0.074 S 
BRANCH  23  24
ATOM     24  C   UNL     1       3.364  -2.203   4.995  0.00  0.00    +0.137 C 
ATOM     25  C   UNL     1       2.229  -3.207   5.206  0.00  0.00    +0.029 C 
BRANCH  24  26
ATOM     26  C   UNL     1       4.602  -2.688   5.704  0.00  0.00    +0.232 C 
ATOM     27  O   UNL     1       5.481  -3.243   5.079  0.00  0.00    -0.274 OA
ATOM     28  N   UNL     1       4.732  -2.505   7.033  0.00  0.00    -0.262 N 
ATOM     29  C   UNL     1       5.875  -2.952   7.688  0.00  0.00    +0.188 A 
ATOM     30  N   UNL     1       6.931  -3.565   7.191  0.00  0.00    -0.126 NA
ATOM     31  N   UNL     1       7.904  -3.915   7.919  0.00  0.00    -0.144 NA
ATOM     32  C   UNL     1       7.861  -3.660   9.211  0.00  0.00    +0.107 A 
ATOM     33  S   UNL     1       6.274  -2.846   9.322  0.00  0.00    -0.035 S 
ATOM     34  H   UNL     1       4.029  -2.061   7.533  0.00  0.00    +0.157 HD
BRANCH  32  35
ATOM     35  C   UNL     1       8.869  -3.965  10.290  0.00  0.00    +0.047 C 
ATOM     36  C   UNL     1      10.237  -4.490   9.850  0.00  0.00    +0.011 C 
ATOM     37  C   UNL     1       9.235  -5.432  10.521  0.00  0.00    +0.011 C 
ENDBRANCH  32  35
ENDBRANCH  24  26
ENDBRANCH  23  24
ENDBRANCH   4  23
TORSDOF 10
