REMARK  Name = ZINC26772137
REMARK  9 active torsions:
REMARK  status: ('A' for Active; 'I' for Inactive)
REMARK    1  A    between atoms: C_1  and  C_2
REMARK    2  A    between atoms: C_3  and  C_33
REMARK    3  A    between atoms: C_9  and  C_32
REMARK    4  A    between atoms: C_10  and  C_16
REMARK    5  A    between atoms: C_16  and  C_17
REMARK    6  A    between atoms: N_19  and  CA_20
REMARK    7  A    between atoms: CA_20  and  CB_22
REMARK    8  A    between atoms: CA_20  and  C_29
REMARK    9  A    between atoms: CB_22  and  CG_23
REMARK                            x       y       z     vdW  Elec       q    Type
REMARK                         _______ _______ _______ _____ _____    ______ ____
ROOT
ATOM      1  C   UNK A   0       5.580   8.742  -7.895  0.00  0.00    +0.048 C 
ATOM      2  C   UNK A   0       6.074   7.318  -7.916  0.00  0.00    -0.002 A 
ATOM      3  C   UNK A   0       6.661   6.686  -8.940  0.00  0.00    +0.106 A 
ATOM      4  O   UNK A   0       6.968   5.423  -8.594  0.00  0.00    -0.460 OA
ATOM      5  C   UNK A   0       6.596   5.167  -7.324  0.00  0.00    +0.139 A 
ATOM      6  C   UNK A   0       6.009   6.345  -6.817  0.00  0.00    +0.024 A 
ATOM      7  C   UNK A   0       5.524   6.386  -5.518  0.00  0.00    +0.023 A 
ATOM      8  C   UNK A   0       5.621   5.249  -4.715  0.00  0.00    +0.022 A 
ATOM      9  C   UNK A   0       5.118   5.258  -3.338  0.00  0.00    -0.029 A 
ATOM     10  C   UNK A   0       5.239   4.123  -2.604  0.00  0.00    +0.049 A 
ATOM     11  C   UNK A   0       5.842   2.981  -3.172  0.00  0.00    +0.341 A 
ATOM     12  O   UNK A   0       5.948   1.971  -2.500  0.00  0.00    -0.245 OA
ATOM     13  O   UNK A   0       6.296   2.975  -4.435  0.00  0.00    -0.422 OA
ATOM     14  C   UNK A   0       6.208   4.071  -5.222  0.00  0.00    +0.143 A 
ATOM     15  C   UNK A   0       6.689   4.040  -6.520  0.00  0.00    +0.093 A 
ATOM     16  C   UNK A   0       4.484   6.494  -2.754  0.00  0.00    +0.045 C 
ATOM     17  C   UNK A   0       6.938   7.302 -10.287  0.00  0.00    +0.086 C 
ENDROOT
BRANCH  10  18
ATOM     18  C   UNK A   0       4.736   4.085  -1.184  0.00  0.00    +0.138 C 
BRANCH  18  19
ATOM     19  C   UNK A   0       3.297   3.638  -1.173  0.00  0.00    +0.218 C 
ATOM     20  O   UNK A   0       2.735   3.376  -2.215  0.00  0.00    -0.275 OA
ATOM     21  N   PHE A   1       2.634   3.529  -0.004  0.00  0.00    -0.302 N 
ATOM     22  H   PHE A   1       3.144   3.766   0.941  0.00  0.00    +0.150 HD
BRANCH  21  23
ATOM     23  CA  PHE A   1       1.235   3.094   0.007  0.00  0.00    +0.191 C 
BRANCH  23  24
ATOM     24  C   PHE A   1       1.177   1.588  -0.001  0.00  0.00    +0.376 C 
ATOM     25  O   PHE A   1       2.199   0.944  -0.014  0.00  0.00    -0.244 OA
ATOM     26  OXT PHE A   1      -0.011   0.963   0.007  0.00  0.00    -0.244 OA
ENDBRANCH  23  24
BRANCH  23  27
ATOM     27  CB  PHE A   1       0.546   3.625   1.266  0.00  0.00    +0.069 C 
BRANCH  27  28
ATOM     28  CG  PHE A   1       0.496   5.130   1.214  0.00  0.00    -0.045 A 
ATOM     29  CD2 PHE A   1       1.528   5.875   1.752  0.00  0.00    +0.004 A 
ATOM     30  CE2 PHE A   1       1.484   7.256   1.700  0.00  0.00    +0.000 A 
ATOM     31  CZ  PHE A   1       0.403   7.892   1.119  0.00  0.00    +0.000 A 
ATOM     32  CE1 PHE A   1      -0.632   7.147   0.587  0.00  0.00    +0.000 A 
ATOM     33  CD1 PHE A   1      -0.586   5.766   0.634  0.00  0.00    +0.004 A 
ENDBRANCH  27  28
ENDBRANCH  23  27
ENDBRANCH  21  23
ENDBRANCH  18  19
ENDBRANCH  10  18
TORSDOF 6
