REMARK  Name = ZINC64491493
REMARK  11 active torsions:
REMARK  status: ('A' for Active; 'I' for Inactive)
REMARK    1  A    between atoms: C_1  and  O_2
REMARK    2  A    between atoms: O_2  and  C_3
REMARK    3  A    between atoms: C_6  and  N_9
REMARK    4  A    between atoms: C_10  and  C_12
REMARK    5  A    between atoms: C_16  and  C_19
REMARK    6  A    between atoms: C_19  and  C_20
REMARK    7  A    between atoms: C_20  and  C_21
REMARK    8  A    between atoms: C_21  and  C_22
REMARK    9  A    between atoms: N_24  and  C_25
REMARK   10  A    between atoms: C_25  and  C_26
REMARK   11  A    between atoms: C_26  and  C_27
REMARK                            x       y       z     vdW  Elec       q    Type
REMARK                         _______ _______ _______ _____ _____    ______ ____
ROOT
ATOM      1  C   UNL     1       1.850  -9.095   6.606  0.00  0.00    +0.012 C 
ENDROOT
BRANCH   1   2
ATOM      2  C   UNL     1       1.778  -7.779   7.382  0.00  0.00    +0.040 C 
BRANCH   2   6
ATOM      3  C   UNL     1       3.106  -4.522   5.545  0.00  0.00    +0.272 C 
ATOM      4  N   UNL     1       2.225  -4.383   6.727  0.00  0.00    -0.167 NA
ATOM      5  N   UNL     1       1.549  -5.318   7.109  0.00  0.00    -0.177 NA
ATOM      6  C   UNL     1       1.589  -6.619   6.403  0.00  0.00    +0.187 C 
ATOM      7  S   UNL     1       3.097  -6.361   5.362  0.00  0.00    -0.095 S 
BRANCH   3   9
ATOM      8  N   UNL     1       2.540  -2.503   4.231  0.00  0.00    -0.283 N 
ATOM      9  C   UNL     1       2.513  -3.847   4.335  0.00  0.00    +0.254 C 
ATOM     10  O   UNL     1       2.010  -4.513   3.455  0.00  0.00    -0.272 OA
ATOM     11  H   UNL     1       3.009  -1.975   4.896  0.00  0.00    +0.155 HD
BRANCH   8  15
ATOM     12  C   UNL     1       0.610  -0.617   1.052  0.00  0.00    +0.120 A 
ATOM     13  C   UNL     1       0.087  -1.786   1.587  0.00  0.00    +0.047 A 
ATOM     14  C   UNL     1       0.726  -2.411   2.639  0.00  0.00    +0.027 A 
ATOM     15  C   UNL     1       1.892  -1.870   3.163  0.00  0.00    +0.034 A 
ATOM     16  C   UNL     1       2.416  -0.700   2.628  0.00  0.00    +0.027 A 
ATOM     17  C   UNL     1       1.779  -0.079   1.572  0.00  0.00    +0.047 A 
BRANCH  12  19
ATOM     18  C   UNL     1      -1.218  -0.611  -0.469  0.00  0.00    +0.277 C 
ATOM     19  O   UNL     1      -0.019  -0.002   0.016  0.00  0.00    -0.495 OA
ENDBRANCH  12  19
ENDBRANCH   8  15
ENDBRANCH   3   9
ENDBRANCH   2   6
ENDBRANCH   1   2
BRANCH   1  20
ATOM     20  C   UNL     1       2.039 -10.256   7.585  0.00  0.00    +0.096 C 
BRANCH  20  21
ATOM     21  C   UNL     1       2.109 -11.552   6.820  0.00  0.00    +0.213 C 
ATOM     22  O   UNL     1       2.017 -11.549   5.611  0.00  0.00    -0.276 OA
ATOM     23  N   UNL     1       2.275 -12.716   7.480  0.00  0.00    -0.315 N 
ATOM     24  H   UNL     1       2.348 -12.719   8.447  0.00  0.00    +0.149 HD
BRANCH  23  25
ATOM     25  C   UNL     1       2.343 -13.976   6.737  0.00  0.00    +0.108 C 
BRANCH  25  26
ATOM     26  C   UNL     1       2.532 -15.136   7.716  0.00  0.00    +0.052 C 
BRANCH  26  27
ATOM     27  C   UNL     1       2.603 -16.433   6.951  0.00  0.00    -0.040 C 
ATOM     28  C   UNL     1       3.720 -17.076   6.543  0.00  0.00    +0.000 A 
ATOM     29  C   UNL     1       5.149 -16.773   6.683  0.00  0.00    +0.030 A 
ATOM     30  C   UNL     1       6.056 -17.628   6.156  0.00  0.00    +0.042 A 
ATOM     31  C   UNL     1       5.665 -18.793   5.480  0.00  0.00    +0.022 A 
ATOM     32  C   UNL     1       4.371 -19.138   5.311  0.00  0.00    +0.027 A 
ATOM     33  C   UNL     1       3.334 -18.313   5.826  0.00  0.00    +0.043 A 
ATOM     34  N   UNL     1       2.028 -18.429   5.792  0.00  0.00    -0.380 N 
ATOM     35  C   UNL     1       1.438 -17.281   6.491  0.00  0.00    +0.144 C 
ATOM     36 CL   UNL     1       7.748 -17.273   6.319  0.00  0.00    -0.084 Cl
ATOM     37  H   UNL     1       1.535 -19.154   5.378  0.00  0.00    +0.160 HD
ENDBRANCH  26  27
ENDBRANCH  25  26
ENDBRANCH  23  25
ENDBRANCH  20  21
ENDBRANCH   1  20
TORSDOF 10
