REMARK  Name = ZINC33031024
REMARK  5 active torsions:
REMARK  status: ('A' for Active; 'I' for Inactive)
REMARK    1  A    between atoms: C_1  and  C_2
REMARK    2  A    between atoms: C_7  and  S_12
REMARK    3  A    between atoms: C_9  and  C_11
REMARK    4  A    between atoms: S_12  and  C_13
REMARK    5  A    between atoms: C_13  and  C_14
REMARK                            x       y       z     vdW  Elec       q    Type
REMARK                         _______ _______ _______ _____ _____    ______ ____
ROOT
ATOM      1  C   UNL     1       5.308   0.819   1.949  0.00  0.00    +0.226 C 
ATOM      2  O   UNL     1       5.191   0.487   0.788  0.00  0.00    -0.275 OA
ATOM      3  N   UNL     1       6.521   0.803   2.535  0.00  0.00    -0.296 N 
ATOM      4  C   UNL     1       6.686   1.201   3.942  0.00  0.00    +0.114 C 
ATOM      5  C   UNL     1       7.160  -0.010   4.753  0.00  0.00    +0.072 C 
ATOM      6  C   UNL     1       8.272  -0.702   4.001  0.00  0.00    +0.023 A 
ATOM      7  C   UNL     1       8.518  -0.529   2.684  0.00  0.00    -0.002 A 
ATOM      8  C   UNL     1       9.650  -1.364   2.346  0.00  0.00    +0.005 A 
ATOM      9  C   UNL     1      10.338  -1.592   1.150  0.00  0.00    +0.010 A 
ATOM     10  C   UNL     1      11.392  -2.471   1.197  0.00  0.00    +0.001 A 
ATOM     11  C   UNL     1      11.765  -3.109   2.369  0.00  0.00    +0.002 A 
ATOM     12  C   UNL     1      11.103  -2.902   3.566  0.00  0.00    +0.026 A 
ATOM     13  C   UNL     1      10.029  -2.014   3.548  0.00  0.00    +0.047 A 
ATOM     14  N   UNL     1       9.177  -1.589   4.526  0.00  0.00    -0.358 N 
ATOM     15  H   UNL     1       9.134  -1.852   5.593  0.00  0.00    +0.166 HD
ATOM     16  C   UNL     1       7.719   0.379   1.788  0.00  0.00    +0.145 C 
ENDROOT
BRANCH   1  17
ATOM     17  C   UNL     1       4.097   1.250   2.735  0.00  0.00    +0.173 C 
BRANCH  17  18
ATOM     18  S   UNL     1       2.627   1.165   1.675  0.00  0.00    -0.076 S 
BRANCH  18  25
ATOM     19  C   UNL     1      -4.174   2.410   2.194  0.00  0.00    +0.066 C 
ATOM     20  C   UNL     1      -2.685   2.200   2.289  0.00  0.00    +0.044 A 
ATOM     21  C   UNL     1      -2.044   2.450   3.461  0.00  0.00    +0.071 A 
ATOM     22  C   UNL     1      -0.649   2.245   3.520  0.00  0.00    +0.165 A 
ATOM     23  N   UNL     1       0.267   2.380   4.455  0.00  0.00    -0.128 NA
ATOM     24  N   UNL     1       1.420   2.054   3.984  0.00  0.00    -0.122 NA
ATOM     25  C   UNL     1       1.313   1.692   2.725  0.00  0.00    +0.198 A 
ATOM     26  N   UNL     1      -0.001   1.799   2.382  0.00  0.00    -0.258 N 
ATOM     27  C   UNL     1      -0.718   1.572   1.248  0.00  0.00    +0.114 A 
ATOM     28  N   UNL     1      -2.006   1.774   1.218  0.00  0.00    -0.239 NA
ATOM     29  C   UNL     1      -0.013   1.086   0.008  0.00  0.00    +0.086 C 
ENDBRANCH  18  25
ENDBRANCH  17  18
ENDBRANCH   1  17
TORSDOF 3
