REMARK  Name = ZINC05344507
REMARK  4 active torsions:
REMARK  status: ('A' for Active; 'I' for Inactive)
REMARK    1  A    between atoms: C_6  and  C_7
REMARK    2  A    between atoms: C_10  and  C_12
REMARK    3  A    between atoms: N_13  and  C_14
REMARK    4  A    between atoms: C_17  and  C_20
REMARK                            x       y       z     vdW  Elec       q    Type
REMARK                         _______ _______ _______ _____ _____    ______ ____
ROOT
ATOM      1  C   UNL     1      -1.264  -0.762   0.011  0.00  0.00    +0.136 A 
ATOM      2  C   UNL     1      -1.379  -2.134   0.010  0.00  0.00    +0.050 A 
ATOM      3  C   UNL     1      -2.745  -2.429   0.020  0.00  0.00    +0.051 A 
ATOM      4  C   UNL     1      -3.415  -1.220   0.027  0.00  0.00    +0.147 A 
ATOM      5  O   UNL     1      -2.498  -0.229   0.026  0.00  0.00    -0.454 OA
ENDROOT
BRANCH   1  11
ATOM      6  C   UNL     1      -0.017   1.393   0.010  0.00  0.00    +0.013 A 
ATOM      7  C   UNL     1       1.170   2.095   0.002  0.00  0.00    +0.021 A 
ATOM      8  C   UNL     1       2.378   1.419  -0.013  0.00  0.00    +0.041 A 
ATOM      9  C   UNL     1       2.404   0.034  -0.021  0.00  0.00    +0.021 A 
ATOM     10  C   UNL     1       1.225  -0.680  -0.013  0.00  0.00    +0.013 A 
ATOM     11  C   UNL     1       0.002  -0.004   0.002  0.00  0.00    +0.017 A 
ATOM     12 CL   UNL     1       3.868   2.311  -0.024  0.00  0.00    -0.084 Cl
ENDBRANCH   1  11
BRANCH   4  13
ATOM     13  C   UNL     1      -4.818  -1.051   0.038  0.00  0.00    +0.157 C 
ATOM     14  N   UNL     1      -5.332   0.155   0.043  0.00  0.00    -0.252 NA
BRANCH  14  15
ATOM     15  C   UNL     1      -6.685   0.319   0.054  0.00  0.00    +0.064 A 
ATOM     16  C   UNL     1      -7.490  -0.452  -0.794  0.00  0.00    +0.028 A 
ATOM     17  C   UNL     1      -8.844  -0.289  -0.783  0.00  0.00    +0.017 A 
ATOM     18  C   UNL     1      -9.430   0.649   0.076  0.00  0.00    +0.063 A 
ATOM     19  C   UNL     1      -8.624   1.420   0.924  0.00  0.00    +0.017 A 
ATOM     20  C   UNL     1      -7.271   1.253   0.917  0.00  0.00    +0.028 A 
BRANCH  18  21
ATOM     21  C   UNL     1     -10.890   0.825   0.088  0.00  0.00    +0.387 C 
ATOM     22  O   UNL     1     -11.594   0.152  -0.653  0.00  0.00    -0.241 OA
ATOM     23  O   UNL     1     -11.401   1.645   0.839  0.00  0.00    -0.241 OA
ENDBRANCH  18  21
ENDBRANCH  14  15
ENDBRANCH   4  13
TORSDOF 4
