REMARK  Name = ZINC12699026
REMARK  4 active torsions:
REMARK  status: ('A' for Active; 'I' for Inactive)
REMARK    1  A    between atoms: C_1  and  C_2
REMARK    2  A    between atoms: C_6  and  C_10
REMARK    3  A    between atoms: C_10  and  C_12
REMARK    4  A    between atoms: C_13  and  C_14
REMARK                            x       y       z     vdW  Elec       q    Type
REMARK                         _______ _______ _______ _____ _____    ______ ____
ROOT
ATOM      1  C   UNL     1       1.373  -4.884  -0.140  0.00  0.00    +0.053 C 
ATOM      2  C   UNL     1       1.419  -6.234  -0.249  0.00  0.00    +0.020 C 
ENDROOT
BRANCH   2   3
ATOM      3  C   UNL     1       2.668  -6.894  -0.366  0.00  0.00    +0.032 A 
ATOM      4  C   UNL     1       2.918  -8.240  -0.492  0.00  0.00    +0.063 A 
ATOM      5  C   UNL     1       4.247  -8.691  -0.595  0.00  0.00    +0.008 A 
ATOM      6  C   UNL     1       4.710 -10.026  -0.730  0.00  0.00    +0.010 A 
ATOM      7  C   UNL     1       6.038 -10.295  -0.817  0.00  0.00    +0.001 A 
ATOM      8  C   UNL     1       6.990  -9.284  -0.779  0.00  0.00    +0.001 A 
ATOM      9  C   UNL     1       6.583  -7.971  -0.649  0.00  0.00    +0.016 A 
ATOM     10  C   UNL     1       5.238  -7.682  -0.559  0.00  0.00    +0.021 A 
ATOM     11  S   UNL     1       4.304  -6.182  -0.395  0.00  0.00    -0.087 S 
ATOM     12 CL   UNL     1       1.604  -9.375  -0.522  0.00  0.00    -0.082 Cl
ENDBRANCH   2   3
BRANCH   1  13
ATOM     13  C   UNL     1       0.124  -4.224  -0.022  0.00  0.00    +0.197 C 
ATOM     14  O   UNL     1      -0.903  -4.875   0.073  0.00  0.00    -0.287 OA
BRANCH  13  20
ATOM     15  C   UNL     1      -0.019   1.503   0.002  0.00  0.00    +0.086 C 
ATOM     16  C   UNL     1       0.001  -0.004  -0.004  0.00  0.00    +0.110 A 
ATOM     17  C   UNL     1      -1.167  -0.678  -0.022  0.00  0.00    +0.093 A 
ATOM     18  C   UNL     1      -1.167  -2.086  -0.029  0.00  0.00    +0.200 A 
ATOM     19  O   UNL     1      -2.328  -2.776  -0.047  0.00  0.00    -0.287 OA
ATOM     20  C   UNL     1       0.066  -2.756  -0.017  0.00  0.00    +0.152 A 
ATOM     21  C   UNL     1       1.254  -1.984   0.002  0.00  0.00    +0.352 A 
ATOM     22  O   UNL     1       2.340  -2.535   0.013  0.00  0.00    -0.244 OA
ATOM     23  O   UNL     1       1.180  -0.641   0.003  0.00  0.00    -0.427 OA
ENDBRANCH  13  20
ENDBRANCH   1  13
TORSDOF 3
