REMARK  Name = ZINC37659391
REMARK  6 active torsions:
REMARK  status: ('A' for Active; 'I' for Inactive)
REMARK    1  A    between atoms: C_6  and  C_7
REMARK    2  A    between atoms: C_9  and  N_11
REMARK    3  A    between atoms: N_11  and  C_12
REMARK    4  A    between atoms: C_12  and  C_13
REMARK    5  A    between atoms: C_13  and  C_14
REMARK    6  A    between atoms: C_14  and  C_15
REMARK                            x       y       z     vdW  Elec       q    Type
REMARK                         _______ _______ _______ _____ _____    ______ ____
ROOT
ATOM      1  C   UNL     1      -1.293  -0.775   0.010  0.00  0.00    +0.016 C 
ATOM      2  C   UNL     1      -1.258  -2.046  -0.855  0.00  0.00    -0.008 C 
ATOM      3  C   UNL     1      -2.060  -2.734   0.263  0.00  0.00    -0.071 C 
ATOM      4  C   UNL     1      -1.450  -1.702   1.227  0.00  0.00    -0.008 C 
ENDROOT
BRANCH   1  10
ATOM      5  C   UNL     1      -0.017   1.378   0.010  0.00  0.00    +0.005 A 
ATOM      6  C   UNL     1       1.171   2.086   0.002  0.00  0.00    +0.015 A 
ATOM      7  C   UNL     1       2.378   1.411  -0.013  0.00  0.00    +0.018 A 
ATOM      8  C   UNL     1       2.396   0.027  -0.021  0.00  0.00    +0.015 A 
ATOM      9  C   UNL     1       1.208  -0.679  -0.013  0.00  0.00    +0.005 A 
ATOM     10  C   UNL     1       0.002  -0.004   0.002  0.00  0.00    -0.044 A 
ATOM     11 BR   UNL     1       4.003   2.378  -0.024  0.00  0.00    -0.050 Br
ENDBRANCH   1  10
BRANCH   3  12
ATOM     12  N   UNL     1      -1.632  -4.113   0.531  0.00  0.00    +0.381 N 
ATOM     13  H   UNL     1      -1.665  -4.648  -0.325  0.00  0.00    -0.086 HD
ATOM     14  H   UNL     1      -0.688  -4.110   0.888  0.00  0.00    -0.086 HD
BRANCH  12  15
ATOM     15  C   UNL     1      -2.529  -4.721   1.523  0.00  0.00    -0.082 C 
BRANCH  15  16
ATOM     16  C   UNL     1      -2.083  -6.157   1.802  0.00  0.00    -0.010 C 
BRANCH  16  17
ATOM     17  C   UNL     1      -3.017  -6.790   2.836  0.00  0.00    +0.094 C 
BRANCH  17  18
ATOM     18  C   UNL     1      -2.578  -8.205   3.110  0.00  0.00    +0.210 C 
ATOM     19  O   UNL     1      -1.613  -8.663   2.535  0.00  0.00    -0.276 OA
ATOM     20  N   UNL     1      -3.258  -8.962   3.994  0.00  0.00    -0.329 N 
ATOM     21  H   UNL     1      -4.029  -8.596   4.453  0.00  0.00    +0.145 HD
ATOM     22  H   UNL     1      -2.975  -9.873   4.170  0.00  0.00    +0.145 HD
ENDBRANCH  17  18
ENDBRANCH  16  17
ENDBRANCH  15  16
ENDBRANCH  12  15
ENDBRANCH   3  12
TORSDOF 6
