REMARK  Name = ZINC39499647
REMARK  5 active torsions:
REMARK  status: ('A' for Active; 'I' for Inactive)
REMARK    1  A    between atoms: C_1  and  C_2
REMARK    2  A    between atoms: C_2  and  O_3
REMARK    3  A    between atoms: O_3  and  N_4
REMARK    4  A    between atoms: C_9  and  O_20
REMARK    5  A    between atoms: C_13  and  C_14
REMARK                            x       y       z     vdW  Elec       q    Type
REMARK                         _______ _______ _______ _____ _____    ______ ____
ROOT
ATOM      1  N   UNL     1      -1.256  -1.990   0.001  0.00  0.00    -0.248 N 
ATOM      2  C   UNL     1      -1.668  -2.758  -1.180  0.00  0.00    +0.184 C 
ATOM      3  C   UNL     1      -2.353  -4.000  -0.668  0.00  0.00    -0.014 A 
ATOM      4  C   UNL     1      -2.936  -5.073  -1.307  0.00  0.00    +0.048 A 
ATOM      5  C   UNL     1      -3.505  -6.096  -0.567  0.00  0.00    +0.165 A 
ATOM      6  C   UNL     1      -3.488  -6.045   0.823  0.00  0.00    +0.153 A 
ATOM      7  C   UNL     1      -2.904  -4.973   1.471  0.00  0.00    +0.058 A 
ATOM      8  C   UNL     1      -2.330  -3.938   0.727  0.00  0.00    +0.009 A 
ATOM      9  C   UNL     1      -1.646  -2.696   1.131  0.00  0.00    +0.073 C 
ATOM     10  C   UNL     1      -1.433  -2.303   2.406  0.00  0.00    +0.036 C 
ATOM     11  F   UNL     1      -4.077  -7.146  -1.196  0.00  0.00    -0.202 F 
ENDROOT
BRANCH  10  12
ATOM     12  C   UNL     1      -1.596  -3.264   3.509  0.00  0.00    -0.023 A 
ATOM     13  C   UNL     1      -1.081  -4.559   3.395  0.00  0.00    +0.008 A 
ATOM     14  C   UNL     1      -1.237  -5.453   4.433  0.00  0.00    +0.001 A 
ATOM     15  C   UNL     1      -1.902  -5.072   5.585  0.00  0.00    +0.000 A 
ATOM     16  C   UNL     1      -2.414  -3.792   5.706  0.00  0.00    +0.001 A 
ATOM     17  C   UNL     1      -2.262  -2.885   4.679  0.00  0.00    +0.008 A 
ENDBRANCH  10  12
BRANCH   6  18
ATOM     18  O   UNL     1      -4.047  -7.052   1.545  0.00  0.00    -0.504 OA
ATOM     19  H   UNL     1      -3.434  -7.769   1.761  0.00  0.00    +0.292 HD
ENDBRANCH   6  18
BRANCH   1  20
ATOM     20  O   UNL     1      -0.575  -0.749  -0.011  0.00  0.00    -0.271 OA
BRANCH  20  22
ATOM     21  C   UNL     1       1.477   0.527  -0.026  0.00  0.00    +0.037 C 
ATOM     22  C   UNL     1       0.849  -0.868  -0.013  0.00  0.00    +0.189 C 
ENDBRANCH  20  22
ENDBRANCH   1  20
TORSDOF 4
