REMARK  Name = ZINC09265509
REMARK  4 active torsions:
REMARK  status: ('A' for Active; 'I' for Inactive)
REMARK    1  A    between atoms: C_3  and  N_8
REMARK    2  A    between atoms: C_12  and  C_13
REMARK    3  A    between atoms: N_17  and  C_18
REMARK    4  A    between atoms: C_21  and  C_24
REMARK                            x       y       z     vdW  Elec       q    Type
REMARK                         _______ _______ _______ _____ _____    ______ ____
ROOT
ATOM      1  N   UNL     1      -1.587   3.400   1.402  0.00  0.00    -0.190 N 
ATOM      2  C   UNL     1      -0.772   3.963   0.486  0.00  0.00    +0.264 C 
ATOM      3  O   UNL     1      -1.091   4.987  -0.088  0.00  0.00    -0.269 OA
ATOM      4  C   UNL     1       0.514   3.305   0.200  0.00  0.00    +0.102 C 
ATOM      5  C   UNL     1       1.405   3.828  -0.732  0.00  0.00    +0.044 C 
ATOM      6  C   UNL     1       0.816   2.070   0.942  0.00  0.00    +0.257 C 
ATOM      7  O   UNL     1       1.859   1.470   0.760  0.00  0.00    -0.270 OA
ATOM      8  N   UNL     1      -0.094   1.621   1.830  0.00  0.00    -0.235 N 
ATOM      9  C   UNL     1      -1.250   2.268   2.037  0.00  0.00    +0.320 C 
ATOM     10  O   UNL     1      -2.030   1.809   2.848  0.00  0.00    -0.251 OA
ATOM     11  H   UNL     1       0.089   0.808   2.328  0.00  0.00    +0.159 HD
ENDROOT
BRANCH   1  14
ATOM     12  C   UNL     1      -5.179   4.189   1.326  0.00  0.00    +0.003 A 
ATOM     13  C   UNL     1      -3.968   3.589   1.040  0.00  0.00    +0.024 A 
ATOM     14  C   UNL     1      -2.816   4.007   1.691  0.00  0.00    +0.047 A 
ATOM     15  C   UNL     1      -2.884   5.024   2.633  0.00  0.00    +0.039 A 
ATOM     16  C   UNL     1      -4.097   5.626   2.911  0.00  0.00    +0.020 A 
ATOM     17  C   UNL     1      -5.244   5.206   2.261  0.00  0.00    +0.015 A 
ATOM     18 BR   UNL     1      -4.191   7.017   4.189  0.00  0.00    -0.050 Br
ENDBRANCH   1  14
BRANCH   5  19
ATOM     19  C   UNL     1       1.026   4.919  -1.530  0.00  0.00    +0.047 A 
ATOM     20  C   UNL     1       1.690   6.136  -1.631  0.00  0.00    +0.027 A 
ATOM     21  C   UNL     1       0.971   6.921  -2.531  0.00  0.00    +0.020 A 
ATOM     22  C   UNL     1      -0.097   6.200  -2.961  0.00  0.00    +0.092 A 
ATOM     23  N   UNL     1      -0.074   4.980  -2.366  0.00  0.00    -0.316 N 
BRANCH  23  24
ATOM     24  C   UNL     1      -1.006   3.959  -2.563  0.00  0.00    +0.047 A 
ATOM     25  C   UNL     1      -0.579   2.697  -2.964  0.00  0.00    +0.027 A 
ATOM     26  C   UNL     1      -1.495   1.687  -3.155  0.00  0.00    +0.017 A 
ATOM     27  C   UNL     1      -2.856   1.933  -2.955  0.00  0.00    +0.063 A 
ATOM     28  C   UNL     1      -3.282   3.204  -2.557  0.00  0.00    +0.017 A 
ATOM     29  C   UNL     1      -2.360   4.208  -2.363  0.00  0.00    +0.027 A 
BRANCH  27  30
ATOM     30  C   UNL     1      -3.841   0.855  -3.164  0.00  0.00    +0.387 C 
ATOM     31  O   UNL     1      -5.012   1.042  -2.901  0.00  0.00    -0.241 OA
ATOM     32  O   UNL     1      -3.442  -0.338  -3.648  0.00  0.00    -0.241 OA
ENDBRANCH  27  30
ENDBRANCH  23  24
ENDBRANCH   5  19
TORSDOF 4
