REMARK  Name = ZINC13032800
REMARK  10 active torsions:
REMARK  status: ('A' for Active; 'I' for Inactive)
REMARK    1  A    between atoms: C_1  and  C_2
REMARK    2  A    between atoms: C_5  and  C_39
REMARK    3  A    between atoms: C_9  and  C_14
REMARK    4  A    between atoms: C_14  and  N_66
REMARK    5  A    between atoms: C_15  and  C_16
REMARK    6  A    between atoms: C_15  and  N_66
REMARK    7  A    between atoms: C_25  and  C_26
REMARK    8  A    between atoms: C_25  and  N_66
REMARK    9  A    between atoms: N_30  and  C_31
REMARK   10  A    between atoms: C_31  and  C_32
REMARK                            x       y       z     vdW  Elec       q    Type
REMARK                         _______ _______ _______ _____ _____    ______ ____
ROOT
ATOM      1  N   UNL     1       1.604  -2.196  -0.667  0.00  0.00    +0.390 N 
ATOM      2  H   UNL     1       0.908  -1.964  -1.385  0.00  0.00    -0.080 HD
ENDROOT
BRANCH   1   3
ATOM      3  C   UNL     1       1.407  -3.597  -0.242  0.00  0.00    -0.036 C 
BRANCH   3  12
ATOM      4  C   UNL     1      -2.295  -5.483  -3.382  0.00  0.00    +0.044 C 
ATOM      5  C   UNL     1      -2.950  -5.151  -2.066  0.00  0.00    -0.041 A 
ATOM      6  C   UNL     1      -4.288  -5.367  -1.892  0.00  0.00    +0.004 A 
ATOM      7  C   UNL     1      -4.901  -5.065  -0.684  0.00  0.00    +0.005 A 
ATOM      8  C   UNL     1      -4.173  -4.541   0.363  0.00  0.00    -0.026 A 
ATOM      9  C   UNL     1      -2.810  -4.312   0.209  0.00  0.00    +0.052 A 
ATOM     10  C   UNL     1      -2.192  -4.620  -1.018  0.00  0.00    +0.002 A 
ATOM     11  C   UNL     1      -0.756  -4.376  -1.169  0.00  0.00    +0.017 A 
ATOM     12  C   UNL     1      -0.072  -3.860  -0.119  0.00  0.00    +0.001 A 
ATOM     13  C   UNL     1      -0.739  -3.574   1.092  0.00  0.00    +0.251 A 
ATOM     14  O   UNL     1      -0.104  -3.115   2.026  0.00  0.00    -0.268 OA
ATOM     15  N   UNL     1      -2.058  -3.790   1.240  0.00  0.00    -0.322 N 
ATOM     16  H   UNL     1      -2.485  -3.579   2.084  0.00  0.00    +0.169 HD
ATOM     17  C   UNL     1      -4.852  -4.217   1.669  0.00  0.00    +0.046 C 
ENDBRANCH   3  12
ENDBRANCH   1   3
BRANCH   1  18
ATOM     18  C   UNL     1       2.957  -2.027  -1.239  0.00  0.00    -0.042 C 
BRANCH  18  19
ATOM     19  C   UNL     1       2.992  -2.678  -2.598  0.00  0.00    -0.060 A 
ATOM     20  C   UNL     1       3.477  -3.966  -2.734  0.00  0.00    +0.005 A 
ATOM     21  C   UNL     1       3.507  -4.569  -3.978  0.00  0.00    +0.050 A 
ATOM     22  C   UNL     1       3.061  -3.879  -5.093  0.00  0.00    +0.166 A 
ATOM     23  C   UNL     1       2.577  -2.580  -4.957  0.00  0.00    +0.166 A 
ATOM     24  C   UNL     1       2.545  -1.984  -3.707  0.00  0.00    +0.051 A 
ATOM     25  O   UNL     1       2.203  -2.122  -6.188  0.00  0.00    -0.453 OA
ATOM     26  C   UNL     1       2.841  -3.000  -7.135  0.00  0.00    +0.466 C 
ATOM     27  O   UNL     1       2.990  -4.235  -6.409  0.00  0.00    -0.453 OA
ENDBRANCH  18  19
ENDBRANCH   1  18
BRANCH   1  28
ATOM     28  C   UNL     1       1.427  -1.288   0.485  0.00  0.00    +0.001 C 
BRANCH  28  29
ATOM     29  C   UNL     1       1.483   0.137  -0.004  0.00  0.00    +0.135 A 
ATOM     30  N   UNL     1       2.561   0.861  -0.181  0.00  0.00    -0.115 NA
ATOM     31  N   UNL     1       2.196   2.021  -0.607  0.00  0.00    -0.023 NA
ATOM     32  N   UNL     1       0.913   2.055  -0.707  0.00  0.00    -0.044 NA
ATOM     33  N   UNL     1       0.437   0.912  -0.344  0.00  0.00    -0.227 N 
BRANCH  33  34
ATOM     34  C   UNL     1      -0.977   0.530  -0.308  0.00  0.00    +0.182 C 
BRANCH  34  35
ATOM     35  C   UNL     1      -1.417   0.104  -1.685  0.00  0.00    -0.026 A 
ATOM     36  C   UNL     1      -1.833   1.051  -2.601  0.00  0.00    +0.008 A 
ATOM     37  C   UNL     1      -2.232   0.662  -3.866  0.00  0.00    +0.038 A 
ATOM     38  C   UNL     1      -2.225  -0.679  -4.211  0.00  0.00    +0.123 A 
ATOM     39  C   UNL     1      -1.813  -1.627  -3.291  0.00  0.00    +0.038 A 
ATOM     40  C   UNL     1      -1.410  -1.235  -2.029  0.00  0.00    +0.008 A 
ATOM     41  F   UNL     1      -2.620  -1.061  -5.446  0.00  0.00    -0.205 F 
ENDBRANCH  34  35
ENDBRANCH  33  34
ENDBRANCH  28  29
ENDBRANCH   1  28
TORSDOF 8
