REMARK  Name = ZINC25570762
REMARK  10 active torsions:
REMARK  status: ('A' for Active; 'I' for Inactive)
REMARK    1  A    between atoms: C_1  and  C_2
REMARK    2  A    between atoms: C_14  and  C_16
REMARK    3  A    between atoms: C_16  and  S_17
REMARK    4  A    between atoms: S_17  and  C_18
REMARK    5  A    between atoms: C_21  and  C_24
REMARK    6  A    between atoms: N_22  and  N_23
REMARK    7  A    between atoms: C_24  and  O_25
REMARK    8  A    between atoms: O_25  and  C_26
REMARK    9  A    between atoms: C_30  and  O_32
REMARK   10  A    between atoms: O_32  and  C_33
REMARK                            x       y       z     vdW  Elec       q    Type
REMARK                         _______ _______ _______ _____ _____    ______ ____
ROOT
ATOM      1  C   UNL     1       5.784  -5.086   1.109  0.00  0.00    +0.209 A 
ATOM      2  N   UNL     1       5.175  -5.501   2.196  0.00  0.00    -0.121 NA
ATOM      3  N   UNL     1       5.994  -6.166   2.929  0.00  0.00    -0.128 NA
ATOM      4  C   UNL     1       7.165  -6.216   2.359  0.00  0.00    +0.189 A 
ATOM      5  N   UNL     1       7.072  -5.535   1.177  0.00  0.00    -0.225 N 
ENDROOT
BRANCH   5   6
ATOM      6  N   UNL     1       8.062  -5.341   0.256  0.00  0.00    -0.295 N 
ATOM      7  H   UNL     1       8.578  -4.497   0.453  0.00  0.00    +0.163 HD
ATOM      8  H   UNL     1       8.678  -6.139   0.214  0.00  0.00    +0.163 HD
ENDBRANCH   5   6
BRANCH   1   9
ATOM      9  S   UNL     1       5.073  -4.137  -0.194  0.00  0.00    -0.075 S 
BRANCH   9  10
ATOM     10  C   UNL     1       3.356  -3.882   0.336  0.00  0.00    +0.173 C 
BRANCH  10  23
ATOM     11  C   UNL     1      -0.019   1.526   0.010  0.00  0.00    +0.019 C 
ATOM     12  C   UNL     1       0.002  -0.004   0.002  0.00  0.00    +0.050 C 
ATOM     13  C   UNL     1       0.709  -0.492  -1.253  0.00  0.00    +0.033 C 
ATOM     14  C   UNL     1       0.596  -1.969  -1.525  0.00  0.00    +0.115 C 
ATOM     15  N   UNL     1       1.327  -2.758  -0.522  0.00  0.00    -0.270 N 
ATOM     16  C   UNL     1       0.641  -3.176   0.626  0.00  0.00    +0.050 A 
ATOM     17  C   UNL     1       0.290  -4.514   0.771  0.00  0.00    +0.024 A 
ATOM     18  C   UNL     1      -0.428  -4.918   1.881  0.00  0.00    +0.002 A 
ATOM     19  C   UNL     1      -0.805  -4.005   2.849  0.00  0.00    +0.001 A 
ATOM     20  C   UNL     1      -0.445  -2.673   2.722  0.00  0.00    +0.016 A 
ATOM     21  C   UNL     1       0.292  -2.277   1.624  0.00  0.00    +0.030 A 
ATOM     22  S   UNL     1       0.875  -0.603   1.479  0.00  0.00    -0.120 S 
ATOM     23  C   UNL     1       2.625  -3.072  -0.704  0.00  0.00    +0.230 C 
ATOM     24  O   UNL     1       3.205  -2.703  -1.703  0.00  0.00    -0.274 OA
ENDBRANCH  10  23
ENDBRANCH   9  10
ENDBRANCH   1   9
BRANCH   4  25
ATOM     25  C   UNL     1       8.393  -6.903   2.900  0.00  0.00    +0.306 C 
BRANCH  25  26
ATOM     26  O   UNL     1       8.425  -8.255   2.438  0.00  0.00    -0.484 OA
BRANCH  26  27
ATOM     27  C   UNL     1       9.476  -9.018   2.837  0.00  0.00    +0.125 A 
ATOM     28  C   UNL     1      10.453  -8.479   3.663  0.00  0.00    +0.046 A 
ATOM     29  C   UNL     1      11.521  -9.255   4.069  0.00  0.00    +0.007 A 
ATOM     30  C   UNL     1      11.620 -10.569   3.655  0.00  0.00    +0.046 A 
ATOM     31  C   UNL     1      10.646 -11.113   2.830  0.00  0.00    +0.124 A 
ATOM     32  C   UNL     1       9.570 -10.339   2.426  0.00  0.00    +0.091 A 
BRANCH  31  33
ATOM     33  O   UNL     1      10.744 -12.406   2.424  0.00  0.00    -0.495 OA
ATOM     34  C   UNL     1      11.876 -13.147   2.884  0.00  0.00    +0.277 C 
ENDBRANCH  31  33
ENDBRANCH  26  27
ENDBRANCH  25  26
ENDBRANCH   4  25
TORSDOF 8
