REMARK  Name = ZINC04088575
REMARK  8 active torsions:
REMARK  status: ('A' for Active; 'I' for Inactive)
REMARK    1  A    between atoms: C_1  and  C_2
REMARK    2  A    between atoms: C_6  and  O_27
REMARK    3  A    between atoms: C_12  and  C_13
REMARK    4  A    between atoms: C_13  and  C_14
REMARK    5  A    between atoms: N_16  and  C_17
REMARK    6  A    between atoms: C_17  and  C_18
REMARK    7  A    between atoms: C_18  and  C_20
REMARK    8  A    between atoms: C_18  and  O_26
REMARK                            x       y       z     vdW  Elec       q    Type
REMARK                         _______ _______ _______ _____ _____    ______ ____
ROOT
ATOM      1  C   UNL     1       0.025   0.016   2.486  0.00  0.00    +0.138 C 
ENDROOT
BRANCH   1  13
ATOM      2  C   UNL     1      -0.018   1.503   0.010  0.00  0.00    +0.045 C 
ATOM      3  C   UNL     1       0.002  -0.004   0.002  0.00  0.00    -0.029 A 
ATOM      4  C   UNL     1      -0.006  -0.749  -1.258  0.00  0.00    +0.021 A 
ATOM      5  C   UNL     1      -0.021  -0.083  -2.489  0.00  0.00    +0.015 A 
ATOM      6  C   UNL     1      -0.022  -0.802  -3.649  0.00  0.00    +0.046 A 
ATOM      7  C   UNL     1      -0.003  -2.195  -3.616  0.00  0.00    +0.120 A 
ATOM      8  C   UNL     1       0.017  -2.871  -2.407  0.00  0.00    +0.092 A 
ATOM      9  C   UNL     1       0.019  -2.156  -1.219  0.00  0.00    +0.143 A 
ATOM     10  O   UNL     1       0.039  -2.795  -0.029  0.00  0.00    -0.422 OA
ATOM     11  C   UNL     1       0.041  -2.117   1.129  0.00  0.00    +0.341 A 
ATOM     12  O   UNL     1       0.059  -2.736   2.178  0.00  0.00    -0.245 OA
ATOM     13  C   UNL     1       0.023  -0.708   1.164  0.00  0.00    +0.049 A 
BRANCH   7  14
ATOM     14  O   UNL     1      -0.004  -2.896  -4.779  0.00  0.00    -0.507 OA
ATOM     15  H   UNL     1      -0.888  -3.111  -5.108  0.00  0.00    +0.292 HD
ENDBRANCH   7  14
ENDBRANCH   1  13
BRANCH   1  16
ATOM     16  C   UNL     1      -1.394   0.238   2.940  0.00  0.00    +0.218 C 
ATOM     17  O   UNL     1      -2.317  -0.153   2.257  0.00  0.00    -0.275 OA
ATOM     18  N   UNL     1      -1.638   0.871   4.104  0.00  0.00    -0.312 N 
ATOM     19  H   UNL     1      -0.900   1.183   4.650  0.00  0.00    +0.149 HD
BRANCH  18  20
ATOM     20  C   UNL     1      -3.018   1.086   4.546  0.00  0.00    +0.140 C 
BRANCH  20  21
ATOM     21  C   UNL     1      -3.016   1.821   5.888  0.00  0.00    +0.162 C 
BRANCH  21  22
ATOM     22  C   UNL     1      -4.428   1.934   6.401  0.00  0.00    -0.018 A 
ATOM     23  C   UNL     1      -5.265   2.918   5.910  0.00  0.00    +0.006 A 
ATOM     24  C   UNL     1      -6.562   3.019   6.378  0.00  0.00    +0.000 A 
ATOM     25  C   UNL     1      -7.019   2.143   7.344  0.00  0.00    +0.000 A 
ATOM     26  C   UNL     1      -6.180   1.162   7.839  0.00  0.00    +0.000 A 
ATOM     27  C   UNL     1      -4.884   1.058   7.368  0.00  0.00    +0.006 A 
ENDBRANCH  21  22
BRANCH  21  28
ATOM     28  O   UNL     1      -2.466   3.128   5.714  0.00  0.00    -0.386 OA
ATOM     29  H   UNL     1      -2.954   3.680   5.088  0.00  0.00    +0.210 HD
ENDBRANCH  21  28
ENDBRANCH  20  21
ENDBRANCH  18  20
ENDBRANCH   1  16
TORSDOF 7
