REMARK  Name = ZINC27551258
REMARK  5 active torsions:
REMARK  status: ('A' for Active; 'I' for Inactive)
REMARK    1  A    between atoms: C_1  and  C_2
REMARK    2  A    between atoms: C_6  and  C_8
REMARK    3  A    between atoms: C_8  and  O_9
REMARK    4  A    between atoms: O_9  and  C_10
REMARK    5  A    between atoms: C_15  and  C_16
REMARK                            x       y       z     vdW  Elec       q    Type
REMARK                         _______ _______ _______ _____ _____    ______ ____
ROOT
ATOM      1  C   UNL     1      -0.023   7.455  -1.537  0.00  0.00    +0.128 A 
ATOM      2  C   UNL     1       0.195   8.391  -0.538  0.00  0.00    +0.047 A 
ATOM      3  C   UNL     1       0.534   9.689  -0.867  0.00  0.00    +0.019 A 
ATOM      4  C   UNL     1       0.659  10.068  -2.195  0.00  0.00    +0.019 A 
ATOM      5  C   UNL     1       0.447   9.151  -3.203  0.00  0.00    +0.027 A 
ATOM      6  C   UNL     1       0.108   7.831  -2.883  0.00  0.00    +0.020 A 
ATOM      7 BR   UNL     1       1.123  11.850  -2.627  0.00  0.00    -0.050 Br
ENDROOT
BRANCH   6   8
ATOM      8  C   UNL     1      -0.113   6.847  -3.950  0.00  0.00    +0.040 C 
ATOM      9  C   UNL     1      -0.801   7.198  -5.066  0.00  0.00    +0.098 C 
ATOM     10  C   UNL     1      -1.525   8.455  -5.310  0.00  0.00    +0.266 C 
ATOM     11  O   UNL     1      -1.630   9.398  -4.547  0.00  0.00    -0.268 OA
ATOM     12  N   UNL     1      -2.047   8.354  -6.549  0.00  0.00    -0.235 N 
ATOM     13  C   UNL     1      -1.724   7.165  -7.083  0.00  0.00    +0.311 C 
ATOM     14  O   UNL     1      -2.062   6.794  -8.191  0.00  0.00    -0.252 OA
ATOM     15  N   UNL     1      -0.979   6.440  -6.231  0.00  0.00    -0.265 N 
ATOM     16  H   UNL     1      -2.636   9.183  -6.967  0.00  0.00    +0.159 HD
ATOM     17  H   UNL     1      -0.533   5.437  -6.308  0.00  0.00    +0.157 HD
ENDBRANCH   6   8
BRANCH   1  18
ATOM     18  O   UNL     1      -0.356   6.179  -1.214  0.00  0.00    -0.487 OA
BRANCH  18  19
ATOM     19  C   UNL     1      -0.466   5.869   0.177  0.00  0.00    +0.264 C 
BRANCH  19  25
ATOM     20  C   UNL     1      -3.967   2.317   0.585  0.00  0.00    +0.044 C 
ATOM     21  C   UNL     1      -2.516   2.720   0.536  0.00  0.00    -0.050 A 
ATOM     22  C   UNL     1      -1.528   1.758   0.641  0.00  0.00    +0.003 A 
ATOM     23  C   UNL     1      -0.197   2.126   0.591  0.00  0.00    +0.001 A 
ATOM     24  C   UNL     1       0.147   3.457   0.440  0.00  0.00    +0.007 A 
ATOM     25  C   UNL     1      -0.841   4.419   0.340  0.00  0.00    -0.010 A 
ATOM     26  C   UNL     1      -2.172   4.050   0.390  0.00  0.00    +0.010 A 
ENDBRANCH  19  25
ENDBRANCH  18  19
ENDBRANCH   1  18
TORSDOF 4
