REMARK  Name = ZINC39710264
REMARK  12 active torsions:
REMARK  status: ('A' for Active; 'I' for Inactive)
REMARK    1  A    between atoms: C_1  and  C_2
REMARK    2  A    between atoms: C_9  and  C_14
REMARK    3  A    between atoms: C_14  and  C_16
REMARK    4  A    between atoms: C_14  and  N_26
REMARK    5  A    between atoms: N_21  and  C_22
REMARK    6  A    between atoms: C_22  and  C_23
REMARK    7  A    between atoms: C_22  and  C_24
REMARK    8  A    between atoms: C_22  and  C_25
REMARK    9  A    between atoms: N_26  and  C_27
REMARK   10  A    between atoms: N_26  and  C_34
REMARK   11  A    between atoms: C_27  and  C_28
REMARK   12  A    between atoms: C_34  and  C_35
REMARK                            x       y       z     vdW  Elec       q    Type
REMARK                         _______ _______ _______ _____ _____    ______ ____
ROOT
ATOM      1  C   UNL     1      -1.232  -4.956   2.756  0.00  0.00    -0.008 C 
ENDROOT
BRANCH   1  10
ATOM      2  C   UNL     1       0.343   1.292  -0.323  0.00  0.00    +0.044 C 
ATOM      3  C   UNL     1       0.432  -0.207  -0.198  0.00  0.00    -0.050 A 
ATOM      4  C   UNL     1       0.784  -0.966  -1.314  0.00  0.00    +0.005 A 
ATOM      5  C   UNL     1       0.884  -2.320  -1.278  0.00  0.00    +0.024 A 
ATOM      6  C   UNL     1       0.631  -3.023  -0.086  0.00  0.00    +0.040 A 
ATOM      7  N   UNL     1       0.734  -4.352  -0.061  0.00  0.00    -0.285 N 
ATOM      8  C   UNL     1       0.509  -5.074   1.024  0.00  0.00    +0.223 C 
ATOM      9  O   UNL     1       0.618  -6.285   0.985  0.00  0.00    -0.275 OA
ATOM     10  C   UNL     1       0.118  -4.388   2.313  0.00  0.00    +0.088 C 
ATOM     11  C   UNL     1       0.001  -2.877   2.291  0.00  0.00    -0.006 C 
ATOM     12  C   UNL     1       0.257  -2.247   1.109  0.00  0.00    -0.007 A 
ATOM     13  C   UNL     1       0.173  -0.790   1.001  0.00  0.00    +0.012 A 
ATOM     14  H   UNL     1       0.984  -4.811  -0.878  0.00  0.00    +0.155 HD
ENDBRANCH   1  10
BRANCH   1  15
ATOM     15  C   UNL     1      -2.271  -4.718   1.658  0.00  0.00    +0.205 C 
ATOM     16  N   UNL     1      -1.825  -5.315   0.392  0.00  0.00    -0.152 NA
ATOM     17  N   UNL     1      -1.708  -4.423  -0.451  0.00  0.00    -0.070 NA
ATOM     18  N   UNL     1      -2.028  -3.160   0.048  0.00  0.00    -0.179 N 
ATOM     19  N   UNL     1      -2.391  -3.273   1.367  0.00  0.00    -0.183 NA
ATOM     20  H   UNL     1      -1.999  -2.333  -0.458  0.00  0.00    +0.191 HD
BRANCH  19  21
ATOM     21  C   UNL     1      -3.768  -2.807   1.578  0.00  0.00    +0.035 C 
ATOM     22  C   UNL     1      -4.171  -3.050   3.034  0.00  0.00    +0.029 C 
ATOM     23  C   UNL     1      -3.853  -1.311   1.268  0.00  0.00    +0.029 C 
ATOM     24  C   UNL     1      -4.714  -3.575   0.652  0.00  0.00    +0.029 C 
ENDBRANCH  19  21
ENDBRANCH   1  15
BRANCH   1  25
ATOM     25  N   UNL     1      -1.100  -6.399   3.000  0.00  0.00    +0.392 N 
ATOM     26  H   UNL     1      -0.893  -6.869   2.131  0.00  0.00    -0.080 HD
BRANCH  25  27
ATOM     27  C   UNL     1      -2.358  -6.919   3.551  0.00  0.00    -0.042 C 
BRANCH  27  28
ATOM     28  C   UNL     1      -2.295  -8.424   3.615  0.00  0.00    -0.064 A 
ATOM     29  C   UNL     1      -2.603  -9.176   2.497  0.00  0.00    +0.002 A 
ATOM     30  C   UNL     1      -2.545 -10.556   2.555  0.00  0.00    +0.000 A 
ATOM     31  C   UNL     1      -2.177 -11.183   3.731  0.00  0.00    +0.000 A 
ATOM     32  C   UNL     1      -1.868 -10.431   4.848  0.00  0.00    +0.000 A 
ATOM     33  C   UNL     1      -1.922  -9.051   4.789  0.00  0.00    +0.002 A 
ENDBRANCH  27  28
ENDBRANCH  25  27
BRANCH  25  34
ATOM     34  C   UNL     1      -0.011  -6.636   3.956  0.00  0.00    -0.002 C 
BRANCH  34  35
ATOM     35  C   UNL     1      -0.234  -5.799   5.190  0.00  0.00    +0.089 A 
ATOM     36  C   UNL     1      -0.842  -6.207   6.318  0.00  0.00    +0.042 A 
ATOM     37  C   UNL     1      -0.834  -5.109   7.208  0.00  0.00    +0.041 A 
ATOM     38  C   UNL     1      -0.222  -4.095   6.571  0.00  0.00    +0.195 A 
ATOM     39  O   UNL     1       0.144  -4.521   5.351  0.00  0.00    -0.470 OA
ENDBRANCH  34  35
ENDBRANCH  25  34
ENDBRANCH   1  25
TORSDOF 8
