REMARK  Name = ZINC03766507
REMARK  15 active torsions:
REMARK  status: ('A' for Active; 'I' for Inactive)
REMARK    1  A    between atoms: C_1  and  C_2
REMARK    2  A    between atoms: C_5  and  C_8
REMARK    3  A    between atoms: C_8  and  C_10
REMARK    4  A    between atoms: C_11  and  O_32
REMARK    5  A    between atoms: N_14  and  C_27
REMARK    6  A    between atoms: C_15  and  C_17
REMARK    7  A    between atoms: C_20  and  C_23
REMARK    8  A    between atoms: C_23  and  C_24
REMARK    9  A    between atoms: C_23  and  C_25
REMARK   10  A    between atoms: C_23  and  C_26
REMARK   11  A    between atoms: C_27  and  C_28
REMARK   12  A    between atoms: C_28  and  N_63
REMARK   13  A    between atoms: C_29  and  C_30
REMARK   14  A    between atoms: C_29  and  N_63
REMARK   15  A    between atoms: C_30  and  O_31
REMARK                            x       y       z     vdW  Elec       q    Type
REMARK                         _______ _______ _______ _____ _____    ______ ____
ROOT
ATOM      1  C   UNL     1      -2.076   1.672   3.166  0.00  0.00    +0.071 C 
ATOM      2  C   UNL     1      -1.372   2.692   2.621  0.00  0.00    +0.188 C 
ATOM      3  C   UNL     1      -0.525   2.168   1.529  0.00  0.00    +0.282 C 
ATOM      4  O   UNL     1       0.227   2.836   0.848  0.00  0.00    -0.267 OA
ATOM      5  N   UNL     1      -0.713   0.842   1.398  0.00  0.00    -0.285 N 
ATOM      6  C   UNL     1      -1.691   0.423   2.409  0.00  0.00    +0.144 C 
ENDROOT
BRANCH   6   7
ATOM      7  C   UNL     1      -1.069  -0.581   3.346  0.00  0.00    -0.022 A 
ATOM      8  C   UNL     1       0.217  -0.386   3.813  0.00  0.00    +0.006 A 
ATOM      9  C   UNL     1       0.785  -1.303   4.677  0.00  0.00    +0.004 A 
ATOM     10  C   UNL     1       0.070  -2.421   5.065  0.00  0.00    -0.042 A 
ATOM     11  C   UNL     1      -1.214  -2.619   4.593  0.00  0.00    +0.004 A 
ATOM     12  C   UNL     1      -1.784  -1.699   3.733  0.00  0.00    +0.006 A 
BRANCH  10  13
ATOM     13  C   UNL     1       0.692  -3.425   6.002  0.00  0.00    -0.013 C 
ATOM     14  C   UNL     1       0.756  -4.791   5.317  0.00  0.00    +0.015 C 
ATOM     15  C   UNL     1       2.106  -2.971   6.370  0.00  0.00    +0.015 C 
ATOM     16  C   UNL     1      -0.157  -3.530   7.271  0.00  0.00    +0.015 C 
ENDBRANCH  10  13
ENDBRANCH   6   7
BRANCH   1  17
ATOM     17  C   UNL     1      -3.029   1.762   4.277  0.00  0.00    +0.195 C 
ATOM     18  O   UNL     1      -2.645   2.096   5.382  0.00  0.00    -0.287 OA
BRANCH  17  23
ATOM     19  C   UNL     1      -8.584   0.534   3.410  0.00  0.00    +0.044 C 
ATOM     20  C   UNL     1      -7.129   0.856   3.637  0.00  0.00    -0.050 A 
ATOM     21  C   UNL     1      -6.674   1.122   4.917  0.00  0.00    +0.004 A 
ATOM     22  C   UNL     1      -5.344   1.417   5.131  0.00  0.00    +0.012 A 
ATOM     23  C   UNL     1      -4.456   1.446   4.054  0.00  0.00    +0.022 A 
ATOM     24  C   UNL     1      -4.923   1.182   2.765  0.00  0.00    +0.012 A 
ATOM     25  C   UNL     1      -6.255   0.884   2.565  0.00  0.00    +0.004 A 
ENDBRANCH  17  23
ENDBRANCH   1  17
BRANCH   2  26
ATOM     26  O   UNL     1      -1.431   3.984   3.017  0.00  0.00    -0.502 OA
ATOM     27  H   UNL     1      -0.815   4.534   2.453  0.00  0.00    +0.292 HD
ENDBRANCH   2  26
BRANCH   5  28
ATOM     28  C   UNL     1      -0.052  -0.030   0.423  0.00  0.00    +0.090 C 
BRANCH  28  29
ATOM     29  C   UNL     1      -0.893  -0.096  -0.853  0.00  0.00    -0.063 C 
BRANCH  29  30
ATOM     30  N   UNL     1      -0.221  -0.976  -1.829  0.00  0.00    +0.382 N 
ATOM     31  H   UNL     1      -0.123  -1.915  -1.427  0.00  0.00    -0.086 HD
ATOM     32  H   UNL     1       0.709  -0.596  -2.043  0.00  0.00    -0.086 HD
BRANCH  30  33
ATOM     33  C   UNL     1      -1.011  -1.058  -3.072  0.00  0.00    -0.054 C 
BRANCH  33  34
ATOM     34  C   UNL     1      -0.291  -1.976  -4.063  0.00  0.00    +0.137 C 
BRANCH  34  35
ATOM     35  O   UNL     1      -0.257  -3.306  -3.543  0.00  0.00    -0.397 OA
ATOM     36  H   UNL     1       0.185  -3.943  -4.120  0.00  0.00    +0.209 HD
ENDBRANCH  34  35
ENDBRANCH  33  34
ENDBRANCH  30  33
ENDBRANCH  29  30
ENDBRANCH  28  29
ENDBRANCH   5  28
TORSDOF 11
