REMARK  Name = ZINC13513581
REMARK  10 active torsions:
REMARK  status: ('A' for Active; 'I' for Inactive)
REMARK    1  A    between atoms: C_1  and  C_2
REMARK    2  A    between atoms: C_5  and  C_13
REMARK    3  A    between atoms: C_6  and  C_7
REMARK    4  A    between atoms: C_6  and  C_8
REMARK    5  A    between atoms: N_11  and  O_12
REMARK    6  A    between atoms: N_15  and  C_16
REMARK    7  A    between atoms: C_18  and  C_24
REMARK    8  A    between atoms: C_18  and  C_25
REMARK    9  A    between atoms: C_20  and  C_22
REMARK   10  A    between atoms: C_20  and  C_23
REMARK                            x       y       z     vdW  Elec       q    Type
REMARK                         _______ _______ _______ _____ _____    ______ ____
ROOT
ATOM      1  C   UNL     1       1.385  -3.187   1.598  0.00  0.00    +0.220 C 
ATOM      2  O   UNL     1       2.073  -2.901   2.555  0.00  0.00    -0.275 OA
ATOM      3  N   UNL     1       1.143  -4.480   1.305  0.00  0.00    -0.312 N 
ATOM      4  H   UNL     1       0.593  -4.709   0.539  0.00  0.00    +0.149 HD
ENDROOT
BRANCH   3   5
ATOM      5  C   UNL     1       1.711  -5.543   2.144  0.00  0.00    +0.070 C 
ATOM      6  C   UNL     1       3.117  -5.881   1.644  0.00  0.00    +0.009 C 
ATOM      7  C   UNL     1       3.718  -6.994   2.501  0.00  0.00    -0.072 C 
ATOM      8  N   UNL     1       2.853  -8.163   2.567  0.00  0.00    +0.386 N 
ATOM      9  C   UNL     1       1.440  -7.944   2.835  0.00  0.00    -0.072 C 
ATOM     10  C   UNL     1       0.845  -6.796   2.026  0.00  0.00    +0.009 C 
ATOM     11  C   UNL     1       1.175  -7.723   4.327  0.00  0.00    -0.010 C 
ATOM     12  C   UNL     1       0.685  -9.231   2.429  0.00  0.00    -0.010 C 
ATOM     13  C   UNL     1       4.071  -6.461   3.889  0.00  0.00    -0.010 C 
ATOM     14  C   UNL     1       5.039  -7.429   1.826  0.00  0.00    -0.010 C 
ATOM     15  H   UNL     1       2.937  -8.674   1.684  0.00  0.00    -0.084 HD
ATOM     16  H   UNL     1       3.222  -8.796   3.280  0.00  0.00    -0.084 HD
ENDBRANCH   3   5
BRANCH   1  21
ATOM     17  C   UNL     1       0.337   1.588  -0.026  0.00  0.00    +0.018 C 
ATOM     18  C   UNL     1       0.330   0.059  -0.006  0.00  0.00    +0.015 C 
ATOM     19  C   UNL     1      -1.067  -0.613   0.161  0.00  0.00    +0.014 C 
ATOM     20  C   UNL     1      -0.755  -2.043   0.659  0.00  0.00    +0.018 C 
ATOM     21  C   UNL     1       0.802  -2.097   0.736  0.00  0.00    +0.058 C 
ATOM     22  C   UNL     1       1.122  -0.621   1.166  0.00  0.00    -0.010 C 
ATOM     23  C   UNL     1       2.620  -0.315   1.101  0.00  0.00    +0.013 C 
ATOM     24  C   UNL     1       0.530  -0.279   2.534  0.00  0.00    +0.013 C 
ATOM     25  C   UNL     1       1.263  -2.058  -0.753  0.00  0.00    +0.071 C 
ATOM     26  C   UNL     1       0.967  -0.629  -1.222  0.00  0.00    +0.065 C 
ATOM     27  N   UNL     1       1.181  -0.121  -2.377  0.00  0.00    -0.096 NA
BRANCH  27  28
ATOM     28  O   UNL     1       1.783  -0.902  -3.393  0.00  0.00    -0.409 OA
ATOM     29  H   UNL     1       1.904  -0.433  -4.230  0.00  0.00    +0.328 HD
ENDBRANCH  27  28
ENDBRANCH   1  21
TORSDOF 3
