REMARK  Name = ZINC39682071
REMARK  8 active torsions:
REMARK  status: ('A' for Active; 'I' for Inactive)
REMARK    1  A    between atoms: C_1  and  C_2
REMARK    2  A    between atoms: C_4  and  C_7
REMARK    3  A    between atoms: C_7  and  N_8
REMARK    4  A    between atoms: C_9  and  C_11
REMARK    5  A    between atoms: C_22  and  C_24
REMARK    6  A    between atoms: C_24  and  C_26
REMARK    7  A    between atoms: C_24  and  O_27
REMARK    8  A    between atoms: O_27  and  C_28
REMARK                            x       y       z     vdW  Elec       q    Type
REMARK                         _______ _______ _______ _____ _____    ______ ____
ROOT
ATOM      1  C   UNL     1      -4.733  -4.627   3.289  0.00  0.00    +0.100 C 
ATOM      2  C   UNL     1      -3.435  -5.123   3.965  0.00  0.00    +0.121 C 
ATOM      3  N   UNL     1      -3.864  -6.269   4.802  0.00  0.00    -0.297 N 
ATOM      4  C   UNL     1      -4.872  -6.974   3.975  0.00  0.00    +0.115 C 
ATOM      5  C   UNL     1      -5.673  -5.844   3.297  0.00  0.00    -0.004 C 
ATOM      6  C   UNL     1      -6.037  -6.240   1.869  0.00  0.00    -0.010 C 
ATOM      7  C   UNL     1      -7.018  -7.415   1.904  0.00  0.00    -0.082 C 
ATOM      8  N   UNL     1      -8.223  -7.027   2.647  0.00  0.00    +0.379 N 
ATOM      9  C   UNL     1      -7.877  -6.738   4.045  0.00  0.00    -0.082 C 
ATOM     10  C   UNL     1      -6.933  -5.534   4.100  0.00  0.00    -0.010 C 
ATOM     11  C   UNL     1      -3.434  -6.596   6.037  0.00  0.00    +0.256 C 
ATOM     12  O   UNL     1      -3.885  -7.573   6.597  0.00  0.00    -0.272 OA
ATOM     13  H   UNL     1      -8.627  -6.205   2.225  0.00  0.00    -0.086 HD
ATOM     14  H   UNL     1      -8.892  -7.781   2.617  0.00  0.00    -0.086 HD
ENDROOT
BRANCH   1  16
ATOM     15  N   UNL     1      -5.227  -3.249   1.296  0.00  0.00    -0.309 N 
ATOM     16  C   UNL     1      -4.454  -4.189   1.875  0.00  0.00    +0.219 C 
ATOM     17  O   UNL     1      -3.533  -4.681   1.258  0.00  0.00    -0.275 OA
ATOM     18  H   UNL     1      -5.963  -2.855   1.789  0.00  0.00    +0.149 HD
BRANCH  15  19
ATOM     19  C   UNL     1      -4.955  -2.822  -0.080  0.00  0.00    +0.160 C 
BRANCH  19  23
ATOM     20  C   UNL     1      -9.391  -1.367  -1.881  0.00  0.00    +0.073 C 
ATOM     21  C   UNL     1      -8.005  -1.179  -1.319  0.00  0.00    +0.076 A 
ATOM     22  N   UNL     1      -7.139  -2.095  -0.967  0.00  0.00    -0.248 NA
ATOM     23  C   UNL     1      -5.955  -1.771  -0.486  0.00  0.00    +0.066 A 
ATOM     24  C   UNL     1      -5.678  -0.447  -0.374  0.00  0.00    +0.071 A 
ATOM     25  S   UNL     1      -7.194   0.261  -0.998  0.00  0.00    -0.080 S 
ENDBRANCH  19  23
ENDBRANCH  15  19
ENDBRANCH   1  16
BRANCH  11  26
ATOM     26  C   UNL     1      -2.394  -5.747   6.722  0.00  0.00    +0.256 C 
ATOM     27  C   UNL     1      -1.078  -5.827   5.946  0.00  0.00    +0.062 C 
BRANCH  26  28
ATOM     28  O   UNL     1      -2.191  -6.225   8.054  0.00  0.00    -0.480 OA
BRANCH  28  29
ATOM     29  C   UNL     1      -1.723  -5.332   8.965  0.00  0.00    +0.122 A 
ATOM     30  C   UNL     1      -1.370  -4.052   8.565  0.00  0.00    +0.045 A 
ATOM     31  C   UNL     1      -0.895  -3.146   9.494  0.00  0.00    +0.004 A 
ATOM     32  C   UNL     1      -0.770  -3.515  10.820  0.00  0.00    +0.000 A 
ATOM     33  C   UNL     1      -1.120  -4.791  11.221  0.00  0.00    +0.004 A 
ATOM     34  C   UNL     1      -1.602  -5.699  10.298  0.00  0.00    +0.045 A 
ENDBRANCH  28  29
ENDBRANCH  26  28
ENDBRANCH  11  26
TORSDOF 6
