REMARK  Name = ZINC32857803
REMARK  4 active torsions:
REMARK  status: ('A' for Active; 'I' for Inactive)
REMARK    1  A    between atoms: C_8  and  C_27
REMARK    2  A    between atoms: N_10  and  C_12
REMARK    3  A    between atoms: C_12  and  C_13
REMARK    4  A    between atoms: N_15  and  C_16
REMARK                            x       y       z     vdW  Elec       q    Type
REMARK                         _______ _______ _______ _____ _____    ______ ____
ROOT
ATOM      1  C   UNL     1      -0.315   3.433   9.925  0.00  0.00    +0.000 A 
ATOM      2  C   UNL     1      -0.559   4.460   9.033  0.00  0.00    +0.000 A 
ATOM      3  C   UNL     1      -1.649   4.393   8.189  0.00  0.00    +0.002 A 
ATOM      4  C   UNL     1      -2.502   3.300   8.231  0.00  0.00    -0.061 A 
ATOM      5  C   UNL     1      -2.257   2.275   9.119  0.00  0.00    -0.047 A 
ATOM      6  C   UNL     1      -1.162   2.344   9.968  0.00  0.00    +0.004 A 
ATOM      7  C   UNL     1      -3.149   1.063   9.194  0.00  0.00    +0.029 C 
ATOM      8  C   UNL     1      -4.484   1.354   8.508  0.00  0.00    +0.024 C 
ATOM      9  N   UNL     1      -4.213   1.913   7.174  0.00  0.00    +0.396 N 
ATOM     10  C   UNL     1      -3.681   3.275   7.293  0.00  0.00    -0.041 C 
ATOM     11  H   UNL     1      -3.454   1.288   6.681  0.00  0.00    -0.080 HD
ENDROOT
BRANCH   8  12
ATOM     12  C   UNL     1      -5.273   0.077   8.371  0.00  0.00    +0.197 C 
ATOM     13  O   UNL     1      -5.109  -0.636   7.404  0.00  0.00    -0.278 OA
ATOM     14  N   UNL     1      -6.161  -0.272   9.323  0.00  0.00    -0.331 N 
ATOM     15  H   UNL     1      -6.736  -1.204   9.223  0.00  0.00    +0.145 HD
ATOM     16  H   UNL     1      -6.310   0.375  10.200  0.00  0.00    +0.145 HD
ENDBRANCH   8  12
BRANCH   9  17
ATOM     17  C   UNL     1      -5.420   1.891   6.338  0.00  0.00    +0.020 C 
BRANCH  17  18
ATOM     18  C   UNL     1      -5.029   2.011   4.888  0.00  0.00    +0.201 C 
ATOM     19  O   UNL     1      -3.860   2.105   4.581  0.00  0.00    -0.278 OA
ATOM     20  N   UNL     1      -5.979   2.013   3.932  0.00  0.00    -0.286 N 
ATOM     21  H   UNL     1      -7.043   2.012   4.213  0.00  0.00    +0.155 HD
BRANCH  20  22
ATOM     22  C   UNL     1      -5.612   2.016   2.579  0.00  0.00    +0.051 A 
ATOM     23  C   UNL     1      -4.354   1.569   2.200  0.00  0.00    +0.073 A 
ATOM     24  C   UNL     1      -3.992   1.570   0.862  0.00  0.00    +0.164 A 
ATOM     25  C   UNL     1      -4.890   2.019  -0.099  0.00  0.00    +0.163 A 
ATOM     26  C   UNL     1      -6.146   2.467   0.283  0.00  0.00    +0.066 A 
ATOM     27  C   UNL     1      -6.507   2.466   1.617  0.00  0.00    +0.043 A 
ATOM     28 BR   UNL     1      -8.221   3.078   2.133  0.00  0.00    -0.048 Br
ATOM     29  O   UNL     1      -4.553   2.024  -1.419  0.00  0.00    -0.485 OA
ATOM     30  C   UNL     1      -3.159   1.920  -1.727  0.00  0.00    +0.270 C 
ATOM     31  C   UNL     1      -2.560   0.796  -0.871  0.00  0.00    +0.270 C 
ATOM     32  O   UNL     1      -2.752   1.131   0.507  0.00  0.00    -0.485 OA
ENDBRANCH  20  22
ENDBRANCH  17  18
ENDBRANCH   9  17
TORSDOF 4
