REMARK  Name = ZINC46076314
REMARK  7 active torsions:
REMARK  status: ('A' for Active; 'I' for Inactive)
REMARK    1  A    between atoms: C_1  and  O_2
REMARK    2  A    between atoms: O_2  and  C_3
REMARK    3  A    between atoms: C_6  and  C_9
REMARK    4  A    between atoms: C_18  and  C_20
REMARK    5  A    between atoms: C_23  and  O_27
REMARK    6  A    between atoms: C_24  and  O_26
REMARK    7  A    between atoms: O_27  and  C_28
REMARK                            x       y       z     vdW  Elec       q    Type
REMARK                         _______ _______ _______ _____ _____    ______ ____
ROOT
ATOM      1  C   UNL     1      -4.964  -2.620   0.035  0.00  0.00    +0.011 A 
ATOM      2  C   UNL     1      -5.929  -2.276   0.937  0.00  0.00    +0.055 A 
ATOM      3  S   UNL     1      -7.264  -3.386   0.520  0.00  0.00    -0.098 S 
ATOM      4  C   UNL     1      -6.485  -4.248  -0.812  0.00  0.00    +0.019 A 
ATOM      5  C   UNL     1      -5.254  -3.669  -0.915  0.00  0.00    +0.052 A 
ATOM      6  N   UNL     1      -4.362  -4.146  -1.917  0.00  0.00    -0.284 N 
ATOM      7  C   UNL     1      -4.833  -4.984  -2.857  0.00  0.00    +0.218 C 
ATOM      8  O   UNL     1      -4.041  -5.532  -3.594  0.00  0.00    -0.275 OA
ATOM      9  C   UNL     1      -6.297  -5.273  -3.035  0.00  0.00    +0.109 C 
ATOM     10  C   UNL     1      -6.998  -5.361  -1.667  0.00  0.00    +0.066 C 
ATOM     11  H   UNL     1      -3.432  -3.871  -1.922  0.00  0.00    +0.155 HD
ENDROOT
BRANCH   1  15
ATOM     12  C   UNL     1      -1.200  -0.638   0.010  0.00  0.00    +0.120 A 
ATOM     13  C   UNL     1      -2.374   0.104   0.019  0.00  0.00    +0.046 A 
ATOM     14  C   UNL     1      -3.596  -0.536   0.027  0.00  0.00    +0.012 A 
ATOM     15  C   UNL     1      -3.651  -1.929   0.026  0.00  0.00    -0.015 A 
ATOM     16  C   UNL     1      -2.471  -2.670   0.016  0.00  0.00    +0.012 A 
ATOM     17  C   UNL     1      -1.253  -2.025   0.003  0.00  0.00    +0.046 A 
BRANCH  12  19
ATOM     18  C   UNL     1      -0.017   1.425   0.010  0.00  0.00    +0.277 C 
ATOM     19  O   UNL     1       0.002  -0.004   0.002  0.00  0.00    -0.495 OA
ENDBRANCH  12  19
ENDBRANCH   1  15
BRANCH  10  20
ATOM     20  C   UNL     1      -8.485  -5.210  -1.860  0.00  0.00    -0.035 A 
ATOM     21  C   UNL     1      -8.991  -4.074  -2.464  0.00  0.00    +0.008 A 
ATOM     22  C   UNL     1     -10.354  -3.931  -2.643  0.00  0.00    +0.049 A 
ATOM     23  C   UNL     1     -11.217  -4.928  -2.216  0.00  0.00    +0.161 A 
ATOM     24  C   UNL     1     -10.708  -6.071  -1.608  0.00  0.00    +0.159 A 
ATOM     25  C   UNL     1      -9.340  -6.210  -1.437  0.00  0.00    +0.053 A 
BRANCH  24  26
ATOM     26  O   UNL     1     -11.551  -7.052  -1.188  0.00  0.00    -0.503 OA
ATOM     27  H   UNL     1     -11.732  -7.728  -1.856  0.00  0.00    +0.292 HD
ENDBRANCH  24  26
BRANCH  23  28
ATOM     28  O   UNL     1     -12.558  -4.788  -2.391  0.00  0.00    -0.491 OA
ATOM     29  C   UNL     1     -13.009  -3.588  -3.022  0.00  0.00    +0.277 C 
ENDBRANCH  23  28
ENDBRANCH  10  20
TORSDOF 5
