REMARK  Name = ZINC08691590
REMARK  8 active torsions:
REMARK  status: ('A' for Active; 'I' for Inactive)
REMARK    1  A    between atoms: C_1  and  C_2
REMARK    2  A    between atoms: C_2  and  O_3
REMARK    3  A    between atoms: O_3  and  C_4
REMARK    4  A    between atoms: C_4  and  C_6
REMARK    5  A    between atoms: C_6  and  C_19
REMARK    6  A    between atoms: C_15  and  C_17
REMARK    7  A    between atoms: C_15  and  C_18
REMARK    8  A    between atoms: N_21  and  C_22
REMARK                            x       y       z     vdW  Elec       q    Type
REMARK                         _______ _______ _______ _____ _____    ______ ____
ROOT
ATOM      1  C   UNL     1      -3.173  -2.931  -0.130  0.00  0.00    +0.142 C 
ATOM      2  C   UNL     1      -3.120  -4.125  -0.851  0.00  0.00    +0.054 C 
ATOM      3  C   UNL     1      -4.287  -4.630  -1.606  0.00  0.00    +0.000 A 
ATOM      4  C   UNL     1      -5.526  -3.998  -1.481  0.00  0.00    +0.010 A 
ATOM      5  C   UNL     1      -6.609  -4.471  -2.194  0.00  0.00    +0.001 A 
ATOM      6  C   UNL     1      -6.463  -5.566  -3.028  0.00  0.00    +0.000 A 
ATOM      7  C   UNL     1      -5.238  -6.196  -3.152  0.00  0.00    +0.004 A 
ATOM      8  C   UNL     1      -4.144  -5.738  -2.442  0.00  0.00    -0.036 A 
ATOM      9  C   UNL     1      -2.824  -6.448  -2.578  0.00  0.00    +0.061 C 
ATOM     10  C   UNL     1      -1.668  -5.527  -2.190  0.00  0.00    +0.031 C 
ATOM     11  N   UNL     1      -1.975  -4.890  -0.901  0.00  0.00    -0.337 N 
ATOM     12  C   UNL     1      -1.491  -4.449  -3.260  0.00  0.00    +0.031 C 
ATOM     13  C   UNL     1      -0.381  -6.345  -2.065  0.00  0.00    +0.031 C 
ATOM     14  H   UNL     1      -1.401  -5.004  -0.128  0.00  0.00    +0.147 HD
ENDROOT
BRANCH   1  15
ATOM     15  C   UNL     1      -4.243  -1.965  -0.390  0.00  0.00    +0.257 C 
ATOM     16  O   UNL     1      -5.131  -1.805   0.427  0.00  0.00    -0.270 OA
ATOM     17  N   UNL     1      -4.245  -1.253  -1.534  0.00  0.00    -0.281 N 
ATOM     18  H   UNL     1      -3.506  -1.335  -2.157  0.00  0.00    +0.155 HD
BRANCH  17  19
ATOM     19  C   UNL     1      -5.312  -0.397  -1.824  0.00  0.00    +0.034 A 
ATOM     20  C   UNL     1      -5.924   0.322  -0.805  0.00  0.00    +0.024 A 
ATOM     21  C   UNL     1      -6.978   1.167  -1.093  0.00  0.00    +0.017 A 
ATOM     22  C   UNL     1      -7.424   1.298  -2.397  0.00  0.00    +0.018 A 
ATOM     23  C   UNL     1      -6.816   0.583  -3.414  0.00  0.00    +0.017 A 
ATOM     24  C   UNL     1      -5.759  -0.259  -3.132  0.00  0.00    +0.024 A 
ATOM     25 BR   UNL     1      -8.866   2.456  -2.788  0.00  0.00    -0.050 Br
ENDBRANCH  17  19
ENDBRANCH   1  15
BRANCH   1  26
ATOM     26  C   UNL     1      -2.160  -2.645   0.887  0.00  0.00    +0.346 C 
ATOM     27  O   UNL     1      -1.332  -3.488   1.175  0.00  0.00    -0.245 OA
BRANCH  26  28
ATOM     28  O   UNL     1      -2.144  -1.445   1.504  0.00  0.00    -0.461 OA
BRANCH  28  30
ATOM     29  C   UNL     1      -1.268   0.172   3.072  0.00  0.00    +0.048 C 
ATOM     30  C   UNL     1      -1.127  -1.234   2.486  0.00  0.00    +0.229 C 
ENDBRANCH  28  30
ENDBRANCH  26  28
ENDBRANCH   1  26
TORSDOF 5
