REMARK  Name = ZINC05838513
REMARK  5 active torsions:
REMARK  status: ('A' for Active; 'I' for Inactive)
REMARK    1  A    between atoms: C_4  and  C_7
REMARK    2  A    between atoms: C_7  and  C_8
REMARK    3  A    between atoms: N_10  and  N_11
REMARK    4  A    between atoms: C_12  and  C_19
REMARK    5  A    between atoms: C_24  and  O_25
REMARK                            x       y       z     vdW  Elec       q    Type
REMARK                         _______ _______ _______ _____ _____    ______ ____
ROOT
ATOM      1  N   UNL     1      -1.163  -2.155  -0.491  0.00  0.00    -0.210 N 
ATOM      2  C   UNL     1      -1.199  -0.778   0.034  0.00  0.00    +0.157 C 
ATOM      3  C   UNL     1      -1.629  -1.400   1.373  0.00  0.00    +0.194 C 
ATOM      4  C   UNL     1      -1.541  -2.742   0.674  0.00  0.00    +0.252 C 
ATOM      5  O   UNL     1      -1.733  -3.889   1.020  0.00  0.00    -0.272 OA
ATOM      6 CL   UNL     1      -3.303  -0.953   1.874  0.00  0.00    -0.109 Cl
ENDROOT
BRANCH   2   7
ATOM      7  C   UNL     1       0.152  -0.112   0.082  0.00  0.00    +0.019 A 
ATOM      8  C   UNL     1       1.028  -0.399   1.112  0.00  0.00    +0.024 A 
ATOM      9  C   UNL     1       2.268   0.213   1.157  0.00  0.00    +0.018 A 
ATOM     10  C   UNL     1       2.634   1.112   0.171  0.00  0.00    +0.019 A 
ATOM     11  C   UNL     1       1.761   1.401  -0.860  0.00  0.00    +0.047 A 
ATOM     12  C   UNL     1       0.517   0.789  -0.907  0.00  0.00    +0.122 A 
ATOM     13 BR   UNL     1       3.465  -0.182   2.567  0.00  0.00    -0.050 Br
BRANCH  12  14
ATOM     14  O   UNL     1      -0.341   1.068  -1.923  0.00  0.00    -0.506 OA
ATOM     15  H   UNL     1      -0.936   1.809  -1.744  0.00  0.00    +0.292 HD
ENDBRANCH  12  14
ENDBRANCH   2   7
BRANCH   1  18
ATOM     16  C   UNL     1       0.334  -3.294  -1.951  0.00  0.00    +0.234 C 
ATOM     17  O   UNL     1       1.085  -3.479  -1.018  0.00  0.00    -0.274 OA
ATOM     18  N   UNL     1      -0.848  -2.676  -1.752  0.00  0.00    -0.231 N 
ATOM     19  H   UNL     1      -1.481  -2.594  -2.483  0.00  0.00    +0.173 HD
BRANCH  16  20
ATOM     20  C   UNL     1       0.721  -3.754  -3.333  0.00  0.00    +0.132 C 
BRANCH  20  24
ATOM     21  C   UNL     1       4.566  -5.608  -3.193  0.00  0.00    +0.000 A 
ATOM     22  C   UNL     1       3.426  -6.367  -3.008  0.00  0.00    +0.000 A 
ATOM     23  C   UNL     1       2.181  -5.767  -3.053  0.00  0.00    +0.004 A 
ATOM     24  C   UNL     1       2.077  -4.408  -3.283  0.00  0.00    -0.039 A 
ATOM     25  C   UNL     1       3.217  -3.650  -3.473  0.00  0.00    +0.004 A 
ATOM     26  C   UNL     1       4.462  -4.249  -3.422  0.00  0.00    +0.000 A 
ENDBRANCH  20  24
ENDBRANCH  16  20
ENDBRANCH   1  18
TORSDOF 5
