REMARK  Name = ZINC38999884
REMARK  10 active torsions:
REMARK  status: ('A' for Active; 'I' for Inactive)
REMARK    1  A    between atoms: C_1  and  C_2
REMARK    2  A    between atoms: C_2  and  C_3
REMARK    3  A    between atoms: C_3  and  C_5
REMARK    4  A    between atoms: C_3  and  C_6
REMARK    5  A    between atoms: C_9  and  N_12
REMARK    6  A    between atoms: C_13  and  C_15
REMARK    7  A    between atoms: C_15  and  S_16
REMARK    8  A    between atoms: S_16  and  C_17
REMARK    9  A    between atoms: C_20  and  C_24
REMARK   10  A    between atoms: N_22  and  N_23
REMARK                            x       y       z     vdW  Elec       q    Type
REMARK                         _______ _______ _______ _____ _____    ______ ____
ROOT
ATOM      1  C   UNL     1      -3.128 -10.541  -2.908  0.00  0.00    +0.189 C 
ATOM      2  N   UNL     1      -2.521 -11.229  -2.001  0.00  0.00    -0.161 NA
ATOM      3  N   UNL     1      -2.687 -12.605  -2.205  0.00  0.00    -0.243 N 
ATOM      4  C   UNL     1      -3.517 -12.743  -3.414  0.00  0.00    +0.222 C 
ATOM      5  N   UNL     1      -3.778 -11.353  -3.825  0.00  0.00    -0.223 N 
ATOM      6  H   UNL     1      -2.328 -13.322  -1.660  0.00  0.00    +0.170 HD
ENDROOT
BRANCH   4   7
ATOM      7  C   UNL     1      -2.756 -13.500  -4.504  0.00  0.00    +0.197 C 
ATOM      8  C   UNL     1      -2.458 -14.919  -4.065  0.00  0.00    -0.017 C 
ATOM      9  C   UNL     1      -1.129 -14.999  -4.053  0.00  0.00    +0.065 C 
ATOM     10  C   UNL     1      -0.701 -16.391  -3.624  0.00  0.00    +0.057 C 
ATOM     11  C   UNL     1      -1.953 -17.012  -2.966  0.00  0.00    +0.011 C 
ATOM     12  C   UNL     1      -3.091 -16.222  -3.651  0.00  0.00    +0.035 C 
ATOM     13  N   UNL     1      -0.590 -13.807  -4.428  0.00  0.00    -0.158 NA
ATOM     14  N   UNL     1      -1.413 -12.926  -4.697  0.00  0.00    -0.176 NA
ENDBRANCH   4   7
BRANCH   5  15
ATOM     15  N   UNL     1      -4.514 -10.944  -4.901  0.00  0.00    -0.250 NA
ATOM     16  H   UNL     1      -4.537  -9.937  -4.962  0.00  0.00    +0.141 HD
ATOM     17  H   UNL     1      -4.163 -11.351  -5.755  0.00  0.00    +0.141 HD
ENDBRANCH   5  15
BRANCH   1  18
ATOM     18  S   UNL     1      -3.137  -8.780  -2.969  0.00  0.00    -0.078 S 
BRANCH  18  19
ATOM     19  C   UNL     1      -2.137  -8.286  -1.538  0.00  0.00    +0.173 C 
BRANCH  19  21
ATOM     20  N   UNL     1      -1.368  -6.185  -0.484  0.00  0.00    -0.285 N 
ATOM     21  C   UNL     1      -2.063  -6.782  -1.472  0.00  0.00    +0.227 C 
ATOM     22  O   UNL     1      -2.628  -6.110  -2.309  0.00  0.00    -0.275 OA
ATOM     23  H   UNL     1      -0.853  -6.720   0.139  0.00  0.00    +0.155 HD
BRANCH  20  27
ATOM     24  C   UNL     1      -1.431  -2.036  -0.107  0.00  0.00    -0.044 A 
ATOM     25  C   UNL     1      -2.550  -2.704  -0.571  0.00  0.00    +0.006 A 
ATOM     26  C   UNL     1      -2.532  -4.079  -0.697  0.00  0.00    +0.023 A 
ATOM     27  C   UNL     1      -1.389  -4.791  -0.358  0.00  0.00    +0.033 A 
ATOM     28  C   UNL     1      -0.267  -4.118   0.107  0.00  0.00    +0.023 A 
ATOM     29  C   UNL     1      -0.290  -2.742   0.227  0.00  0.00    +0.006 A 
BRANCH  24  30
ATOM     30  C   UNL     1      -1.454  -0.535   0.030  0.00  0.00    +0.016 C 
ATOM     31  C   UNL     1      -1.730   0.097  -1.336  0.00  0.00    +0.012 C 
BRANCH  30  33
ATOM     32  C   UNL     1      -2.498   1.381   1.246  0.00  0.00    +0.004 C 
ATOM     33  C   UNL     1      -2.555  -0.129   1.011  0.00  0.00    +0.004 C 
ENDBRANCH  30  33
ENDBRANCH  24  30
ENDBRANCH  20  27
ENDBRANCH  19  21
ENDBRANCH  18  19
ENDBRANCH   1  18
TORSDOF 8
