REMARK  Name = ZINC40112773
REMARK  7 active torsions:
REMARK  status: ('A' for Active; 'I' for Inactive)
REMARK    1  A    between atoms: C_1  and  O_2
REMARK    2  A    between atoms: O_2  and  C_3
REMARK    3  A    between atoms: C_8  and  C_9
REMARK    4  A    between atoms: N_10  and  N_11
REMARK    5  A    between atoms: N_11  and  C_12
REMARK    6  A    between atoms: C_13  and  C_24
REMARK    7  A    between atoms: C_15  and  C_17
REMARK                            x       y       z     vdW  Elec       q    Type
REMARK                         _______ _______ _______ _____ _____    ______ ____
ROOT
ATOM      1  C   UNL     1      -1.690  -2.437   3.040  0.00  0.00    +0.244 A 
ATOM      2  C   UNL     1      -2.287  -3.074   4.119  0.00  0.00    +0.203 A 
ATOM      3  N   UNL     1      -2.763  -2.100   4.939  0.00  0.00    -0.196 NA
ATOM      4  C   UNL     1      -2.484  -0.936   4.410  0.00  0.00    +0.231 A 
ATOM      5  O   UNL     1      -1.823  -1.114   3.251  0.00  0.00    -0.419 OA
ENDROOT
BRANCH   4   6
ATOM      6  C   UNL     1      -2.836   0.373   4.999  0.00  0.00    +0.037 A 
ATOM      7  C   UNL     1      -2.490   1.554   4.338  0.00  0.00    +0.016 A 
ATOM      8  C   UNL     1      -2.821   2.772   4.892  0.00  0.00    +0.039 A 
ATOM      9  C   UNL     1      -3.495   2.827   6.101  0.00  0.00    +0.123 A 
ATOM     10  C   UNL     1      -3.840   1.658   6.762  0.00  0.00    +0.039 A 
ATOM     11  C   UNL     1      -3.520   0.434   6.215  0.00  0.00    +0.016 A 
ATOM     12  F   UNL     1      -3.817   4.024   6.639  0.00  0.00    -0.205 F 
ENDBRANCH   4   6
BRANCH   1  13
ATOM     13  N   UNL     1      -1.077  -3.041   1.966  0.00  0.00    -0.205 N 
ATOM     14  H   UNL     1      -1.036  -4.009   1.912  0.00  0.00    +0.177 HD
BRANCH  13  16
ATOM     15  C   UNL     1       0.067  -2.829  -0.062  0.00  0.00    +0.142 C 
ATOM     16  N   UNL     1      -0.512  -2.259   0.951  0.00  0.00    -0.187 NA
BRANCH  15  22
ATOM     17  C   UNL     1       0.606  -0.607  -1.055  0.00  0.00    +0.129 A 
ATOM     18  C   UNL     1       1.172   0.158  -2.061  0.00  0.00    +0.047 A 
ATOM     19  C   UNL     1       1.787  -0.456  -3.136  0.00  0.00    +0.019 A 
ATOM     20  C   UNL     1       1.840  -1.837  -3.218  0.00  0.00    +0.019 A 
ATOM     21  C   UNL     1       1.281  -2.614  -2.224  0.00  0.00    +0.028 A 
ATOM     22  C   UNL     1       0.662  -2.005  -1.129  0.00  0.00    +0.037 A 
ATOM     23 BR   UNL     1       2.683  -2.662  -4.696  0.00  0.00    -0.050 Br
BRANCH  17  25
ATOM     24  C   UNL     1      -0.017   1.425   0.010  0.00  0.00    +0.277 C 
ATOM     25  O   UNL     1       0.002  -0.004   0.002  0.00  0.00    -0.494 OA
ENDBRANCH  17  25
ENDBRANCH  15  22
ENDBRANCH  13  16
ENDBRANCH   1  13
BRANCH   2  26
ATOM     26  C   UNL     1      -2.383  -4.487   4.329  0.00  0.00    +0.124 C 
ATOM     27  N   UNL     1      -2.459  -5.608   4.496  0.00  0.00    -0.189 NA
ENDBRANCH   2  26
TORSDOF 6
