REMARK  Name = ZINC29553690
REMARK  10 active torsions:
REMARK  status: ('A' for Active; 'I' for Inactive)
REMARK    1  A    between atoms: C_1  and  C_2
REMARK    2  A    between atoms: C_5  and  C_30
REMARK    3  A    between atoms: C_6  and  S_8
REMARK    4  A    between atoms: S_8  and  C_11
REMARK    5  A    between atoms: C_11  and  C_16
REMARK    6  A    between atoms: C_16  and  O_18
REMARK    7  A    between atoms: O_18  and  C_19
REMARK    8  A    between atoms: C_19  and  C_20
REMARK    9  A    between atoms: N_26  and  C_27
REMARK   10  A    between atoms: N_26  and  C_28
REMARK                            x       y       z     vdW  Elec       q    Type
REMARK                         _______ _______ _______ _____ _____    ______ ____
ROOT
ATOM      1  C   UNL     1       2.692   4.129   1.554  0.00  0.00    +0.188 C 
ATOM      2  C   UNL     1       1.233   4.059   2.053  0.00  0.00    +0.041 C 
ATOM      3  C   UNL     1       1.298   4.617   3.496  0.00  0.00    +0.003 C 
ATOM      4  C   UNL     1       2.336   5.761   3.374  0.00  0.00    +0.003 C 
ATOM      5  C   UNL     1       3.393   5.210   2.395  0.00  0.00    +0.041 C 
ENDROOT
BRANCH   1   6
ATOM      6  S   UNL     1       2.727   4.585  -0.201  0.00  0.00    +0.013 S 
ATOM      7  O   UNL     1       4.070   4.653  -0.662  0.00  0.00    -0.168 OA
ATOM      8  O   UNL     1       1.822   5.653  -0.448  0.00  0.00    -0.168 OA
BRANCH   6  14
ATOM      9  C   UNL     1      -1.288   2.162  -2.508  0.00  0.00    +0.044 C 
ATOM     10  C   UNL     1       0.159   2.139  -2.088  0.00  0.00    -0.049 A 
ATOM     11  C   UNL     1       0.943   1.036  -2.370  0.00  0.00    +0.004 A 
ATOM     12  C   UNL     1       2.268   1.012  -1.981  0.00  0.00    +0.005 A 
ATOM     13  C   UNL     1       2.814   2.097  -1.320  0.00  0.00    -0.026 A 
ATOM     14  C   UNL     1       2.032   3.203  -1.043  0.00  0.00    +0.093 A 
ATOM     15  C   UNL     1       0.704   3.224  -1.428  0.00  0.00    +0.030 A 
ATOM     16  C   UNL     1       4.262   2.074  -0.901  0.00  0.00    +0.046 C 
ENDBRANCH   6  14
ENDBRANCH   1   6
BRANCH   1  17
ATOM     17  C   UNL     1       3.371   2.798   1.755  0.00  0.00    +0.336 C 
ATOM     18  O   UNL     1       4.471   2.751   2.252  0.00  0.00    -0.248 OA
BRANCH  17  19
ATOM     19  O   UNL     1       2.753   1.667   1.382  0.00  0.00    -0.455 OA
BRANCH  19  20
ATOM     20  C   UNL     1       3.435   0.418   1.670  0.00  0.00    +0.308 C 
BRANCH  20  21
ATOM     21  C   UNL     1       2.593  -0.737   1.191  0.00  0.00    +0.173 A 
ATOM     22  N   UNL     1       2.824  -1.274   0.006  0.00  0.00    -0.196 NA
ATOM     23  C   UNL     1       2.083  -2.294  -0.421  0.00  0.00    +0.217 A 
ATOM     24  N   UNL     1       1.110  -2.772   0.347  0.00  0.00    -0.181 NA
ATOM     25  C   UNL     1       0.880  -2.230   1.537  0.00  0.00    +0.222 A 
ATOM     26  N   UNL     1       1.629  -1.213   1.959  0.00  0.00    -0.196 NA
ATOM     27  N   UNL     1      -0.129  -2.723   2.338  0.00  0.00    -0.306 N 
ATOM     28  C   UNL     1      -0.949  -3.845   1.875  0.00  0.00    +0.132 C 
ATOM     29  C   UNL     1      -0.382  -2.124   3.651  0.00  0.00    +0.132 C 
ATOM     30  N   UNL     1       2.325  -2.853  -1.659  0.00  0.00    -0.327 N 
ATOM     31  H   UNL     1       1.712  -3.696  -2.011  0.00  0.00    +0.145 HD
ATOM     32  H   UNL     1       3.131  -2.456  -2.294  0.00  0.00    +0.145 HD
ENDBRANCH  20  21
ENDBRANCH  19  20
ENDBRANCH  17  19
ENDBRANCH   1  17
TORSDOF 6
