REMARK  Name = ZINC39674273
REMARK  8 active torsions:
REMARK  status: ('A' for Active; 'I' for Inactive)
REMARK    1  A    between atoms: C_1  and  C_2
REMARK    2  A    between atoms: C_4  and  C_9
REMARK    3  A    between atoms: C_5  and  C_8
REMARK    4  A    between atoms: C_9  and  C_11
REMARK    5  A    between atoms: C_9  and  N_12
REMARK    6  A    between atoms: C_13  and  C_15
REMARK    7  A    between atoms: C_26  and  C_28
REMARK    8  A    between atoms: C_31  and  C_35
REMARK                            x       y       z     vdW  Elec       q    Type
REMARK                         _______ _______ _______ _____ _____    ______ ____
ROOT
ATOM      1  C   UNL     1      -2.557  -1.599  -5.206  0.00  0.00    +0.100 C 
ATOM      2  C   UNL     1      -3.450  -2.736  -4.660  0.00  0.00    +0.121 C 
ATOM      3  N   UNL     1      -4.218  -3.207  -5.836  0.00  0.00    -0.296 N 
ATOM      4  C   UNL     1      -3.242  -3.174  -6.951  0.00  0.00    +0.115 C 
ATOM      5  C   UNL     1      -2.422  -1.891  -6.710  0.00  0.00    -0.004 C 
ATOM      6  C   UNL     1      -0.959  -2.124  -7.074  0.00  0.00    -0.010 C 
ATOM      7  C   UNL     1      -0.843  -2.354  -8.584  0.00  0.00    -0.082 C 
ATOM      8  N   UNL     1      -1.367  -1.185  -9.300  0.00  0.00    +0.379 N 
ATOM      9  C   UNL     1      -2.798  -1.023  -9.017  0.00  0.00    -0.082 C 
ATOM     10  C   UNL     1      -2.996  -0.737  -7.526  0.00  0.00    -0.010 C 
ATOM     11  C   UNL     1      -5.512  -3.579  -5.882  0.00  0.00    +0.247 C 
ATOM     12  O   UNL     1      -6.218  -3.446  -4.902  0.00  0.00    -0.270 OA
ATOM     13  H   UNL     1      -0.870  -0.359  -9.001  0.00  0.00    -0.086 HD
ATOM     14  H   UNL     1      -1.234  -1.313 -10.292  0.00  0.00    -0.086 HD
ENDROOT
BRANCH  11  15
ATOM     15  C   UNL     1      -6.074  -4.150  -7.125  0.00  0.00    +0.040 A 
ATOM     16  C   UNL     1      -5.227  -4.709  -8.084  0.00  0.00    +0.014 A 
ATOM     17  C   UNL     1      -5.756  -5.240  -9.242  0.00  0.00    +0.016 A 
ATOM     18  C   UNL     1      -7.123  -5.221  -9.455  0.00  0.00    +0.090 A 
ATOM     19  C   UNL     1      -7.970  -4.668  -8.508  0.00  0.00    +0.136 A 
ATOM     20  C   UNL     1      -7.452  -4.137  -7.342  0.00  0.00    +0.052 A 
ATOM     21  F   UNL     1      -9.303  -4.651  -8.723  0.00  0.00    -0.205 F 
BRANCH  18  22
ATOM     22  C   UNL     1      -7.693  -5.804 -10.723  0.00  0.00    +0.420 C 
ATOM     23  F   UNL     1      -6.654  -6.298 -11.518  0.00  0.00    -0.166 F 
ATOM     24  F   UNL     1      -8.572  -6.845 -10.403  0.00  0.00    -0.166 F 
ATOM     25  F   UNL     1      -8.384  -4.809 -11.424  0.00  0.00    -0.166 F 
ENDBRANCH  18  22
ENDBRANCH  11  15
BRANCH   1  27
ATOM     26  N   UNL     1      -0.458  -0.509  -4.481  0.00  0.00    -0.309 N 
ATOM     27  C   UNL     1      -1.204  -1.630  -4.543  0.00  0.00    +0.219 C 
ATOM     28  O   UNL     1      -0.787  -2.663  -4.063  0.00  0.00    -0.275 OA
ATOM     29  H   UNL     1      -0.792   0.317  -4.865  0.00  0.00    +0.149 HD
BRANCH  26  30
ATOM     30  C   UNL     1       0.857  -0.539  -3.836  0.00  0.00    +0.100 C 
ATOM     31  C   UNL     1       1.909  -1.008  -4.843  0.00  0.00    +0.033 C 
BRANCH  30  34
ATOM     32  C   UNL     1       2.228   2.066  -5.288  0.00  0.00    +0.039 C 
ATOM     33  C   UNL     1       1.219   2.140  -4.141  0.00  0.00    +0.154 C 
ATOM     34  C   UNL     1       1.209   0.844  -3.350  0.00  0.00    -0.001 C 
ATOM     35  C   UNL     1       1.585   1.213  -2.124  0.00  0.00    +0.063 C 
ATOM     36  N   UNL     1       1.816   2.544  -2.073  0.00  0.00    -0.159 NA
ATOM     37  N   UNL     1       1.637   3.139  -3.143  0.00  0.00    -0.180 NA
ATOM     38  C   UNL     1       1.731   0.274  -0.954  0.00  0.00    +0.067 C 
ENDBRANCH  30  34
ENDBRANCH  26  30
ENDBRANCH   1  27
TORSDOF 5
