REMARK  Name = ZINC59471785
REMARK  3 active torsions:
REMARK  status: ('A' for Active; 'I' for Inactive)
REMARK    1  A    between atoms: C_10  and  N_11
REMARK    2  A    between atoms: N_16  and  N_17
REMARK    3  A    between atoms: C_18  and  C_19
REMARK                            x       y       z     vdW  Elec       q    Type
REMARK                         _______ _______ _______ _____ _____    ______ ____
ROOT
ATOM      1  N   UNL     1       4.870   0.096  -0.046  0.00  0.00    -0.281 N 
ATOM      2  C   UNL     1       6.078  -0.575   0.044  0.00  0.00    +0.262 A 
ATOM      3  N   UNL     1       6.250  -1.880   0.044  0.00  0.00    -0.090 NA
ATOM      4  N   UNL     1       7.498  -2.169   0.140  0.00  0.00    -0.020 NA
ATOM      5  N   UNL     1       8.207  -1.095   0.207  0.00  0.00    -0.020 NA
ATOM      6  N   UNL     1       7.314  -0.011   0.143  0.00  0.00    -0.094 N 
ATOM      7  H   UNL     1       4.856   1.065  -0.097  0.00  0.00    +0.155 HD
ENDROOT
BRANCH   1  17
ATOM      8  C   UNL     1       0.018   1.304  -0.728  0.00  0.00    +0.001 A 
ATOM      9  C   UNL     1       1.202   2.039  -0.715  0.00  0.00    +0.001 A 
ATOM     10  C   UNL     1       2.401   1.431  -0.500  0.00  0.00    +0.010 A 
ATOM     11  C   UNL     1       2.449   0.045  -0.288  0.00  0.00    +0.003 A 
ATOM     12  C   UNL     1       1.246  -0.703  -0.300  0.00  0.00    -0.016 A 
ATOM     13  C   UNL     1       0.026  -0.041  -0.526  0.00  0.00    +0.008 A 
ATOM     14  C   UNL     1       1.292  -2.091  -0.088  0.00  0.00    +0.008 A 
ATOM     15  C   UNL     1       2.488  -2.707   0.128  0.00  0.00    +0.002 A 
ATOM     16  C   UNL     1       3.676  -1.983   0.143  0.00  0.00    +0.024 A 
ATOM     17  C   UNL     1       3.674  -0.619  -0.061  0.00  0.00    +0.041 A 
ENDBRANCH   1  17
BRANCH   6  18
ATOM     18  N   UNL     1       7.628   1.354   0.175  0.00  0.00    -0.149 NA
ATOM     19  C   UNL     1       8.869   1.734   0.273  0.00  0.00    +0.181 C 
BRANCH  19  20
ATOM     20  C   UNL     1       9.197   3.162   0.306  0.00  0.00    +0.147 A 
ATOM     21  C   UNL     1      10.451   3.695   0.401  0.00  0.00    +0.051 A 
ATOM     22  C   UNL     1      10.297   5.093   0.398  0.00  0.00    +0.042 A 
ATOM     23  C   UNL     1       8.975   5.346   0.304  0.00  0.00    +0.196 A 
ATOM     24  O   UNL     1       8.314   4.179   0.243  0.00  0.00    -0.462 OA
ENDBRANCH  19  20
ENDBRANCH   6  18
TORSDOF 3
