REMARK  Name = ZINC22150635
REMARK  8 active torsions:
REMARK  status: ('A' for Active; 'I' for Inactive)
REMARK    1  A    between atoms: C_1  and  C_2
REMARK    2  A    between atoms: C_2  and  C_4
REMARK    3  A    between atoms: C_2  and  N_11
REMARK    4  A    between atoms: C_12  and  C_14
REMARK    5  A    between atoms: C_14  and  S_15
REMARK    6  A    between atoms: S_15  and  C_16
REMARK    7  A    between atoms: C_19  and  C_22
REMARK    8  A    between atoms: N_20  and  C_21
REMARK                            x       y       z     vdW  Elec       q    Type
REMARK                         _______ _______ _______ _____ _____    ______ ____
ROOT
ATOM      1  C   UNL     1       0.632  -2.085   0.144  0.00  0.00    +0.192 A 
ATOM      2  N   UNL     1      -0.638  -2.018  -0.182  0.00  0.00    -0.122 NA
ATOM      3  N   UNL     1      -1.004  -0.788  -0.265  0.00  0.00    -0.130 NA
ATOM      4  C   UNL     1       0.002  -0.004   0.002  0.00  0.00    +0.178 A 
ATOM      5  N   UNL     1       1.081  -0.801   0.267  0.00  0.00    -0.306 N 
ATOM      6  C   UNL     1       2.437  -0.368   0.614  0.00  0.00    +0.153 C 
ENDROOT
BRANCH   4   7
ATOM      7  C   UNL     1      -0.018   1.503   0.010  0.00  0.00    +0.278 C 
ATOM      8  C   UNL     1      -0.749   2.004   1.264  0.00  0.00    +0.281 C 
ATOM      9  O   UNL     1      -0.761   3.435   1.233  0.00  0.00    -0.484 OA
ATOM     10  C   UNL     1      -1.110   4.018   0.054  0.00  0.00    +0.162 A 
ATOM     11  C   UNL     1      -1.491   5.352   0.040  0.00  0.00    +0.049 A 
ATOM     12  C   UNL     1      -1.845   5.959  -1.150  0.00  0.00    +0.004 A 
ATOM     13  C   UNL     1      -1.820   5.239  -2.330  0.00  0.00    +0.004 A 
ATOM     14  C   UNL     1      -1.441   3.910  -2.324  0.00  0.00    +0.049 A 
ATOM     15  C   UNL     1      -1.086   3.294  -1.132  0.00  0.00    +0.163 A 
ATOM     16  O   UNL     1      -0.722   1.982  -1.141  0.00  0.00    -0.474 OA
ENDBRANCH   4   7
BRANCH   1  17
ATOM     17  S   UNL     1       1.578  -3.553   0.374  0.00  0.00    -0.077 S 
BRANCH  17  18
ATOM     18  C   UNL     1       0.311  -4.800   0.037  0.00  0.00    +0.173 C 
BRANCH  18  20
ATOM     19  N   UNL     1       0.147  -7.268  -0.028  0.00  0.00    -0.308 N 
ATOM     20  C   UNL     1       0.910  -6.176   0.178  0.00  0.00    +0.224 C 
ATOM     21  O   UNL     1       2.078  -6.301   0.478  0.00  0.00    -0.275 OA
ATOM     22  H   UNL     1      -0.913  -7.154  -0.300  0.00  0.00    +0.149 HD
BRANCH  19  24
ATOM     23  C   UNL     1       1.401  -9.006  -1.206  0.00  0.00    +0.033 C 
ATOM     24  C   UNL     1       0.729  -8.605   0.109  0.00  0.00    +0.100 C 
BRANCH  24  25
ATOM     25  C   UNL     1      -0.358  -9.595   0.440  0.00  0.00    -0.027 A 
ATOM     26  C   UNL     1      -1.593  -9.496  -0.175  0.00  0.00    +0.008 A 
ATOM     27  C   UNL     1      -2.589 -10.406   0.124  0.00  0.00    +0.038 A 
ATOM     28  C   UNL     1      -2.354 -11.410   1.048  0.00  0.00    +0.123 A 
ATOM     29  C   UNL     1      -1.119 -11.505   1.667  0.00  0.00    +0.038 A 
ATOM     30  C   UNL     1      -0.123 -10.597   1.363  0.00  0.00    +0.008 A 
ATOM     31  F   UNL     1      -3.329 -12.297   1.345  0.00  0.00    -0.205 F 
ENDBRANCH  24  25
ENDBRANCH  19  24
ENDBRANCH  18  20
ENDBRANCH  17  18
ENDBRANCH   1  17
TORSDOF 6
