REMARK  Name = ZINC09951969
REMARK  4 active torsions:
REMARK  status: ('A' for Active; 'I' for Inactive)
REMARK    1  A    between atoms: C_6  and  S_11
REMARK    2  A    between atoms: S_11  and  N_14
REMARK    3  A    between atoms: C_17  and  C_20
REMARK    4  A    between atoms: C_24  and  C_33
REMARK                            x       y       z     vdW  Elec       q    Type
REMARK                         _______ _______ _______ _____ _____    ______ ____
ROOT
ATOM      1  N   UNL     1       5.707   4.111   1.577  0.00  0.00    -0.177 NA
ATOM      2  C   UNL     1       4.872   5.209   2.082  0.00  0.00    +0.110 C 
ATOM      3  C   UNL     1       4.207   4.755   3.390  0.00  0.00    +0.030 C 
ATOM      4  C   UNL     1       5.287   4.285   4.368  0.00  0.00    +0.078 C 
ATOM      5  C   UNL     1       6.036   3.093   3.770  0.00  0.00    +0.030 C 
ATOM      6  C   UNL     1       6.718   3.524   2.468  0.00  0.00    +0.110 C 
ENDROOT
BRANCH   4   7
ATOM      7  C   UNL     1       4.643   3.873   5.667  0.00  0.00    +0.223 C 
ATOM      8  O   UNL     1       4.390   2.706   5.875  0.00  0.00    -0.275 OA
ATOM      9  N   UNL     1       4.348   4.803   6.598  0.00  0.00    -0.264 N 
ATOM     10  C   UNL     1       4.556   6.237   6.335  0.00  0.00    +0.168 C 
ATOM     11  C   UNL     1       5.159   6.858   7.603  0.00  0.00    +0.276 C 
ATOM     12  O   UNL     1       4.265   6.633   8.696  0.00  0.00    -0.476 OA
ATOM     13  C   UNL     1       3.803   5.370   8.886  0.00  0.00    +0.143 A 
ATOM     14  C   UNL     1       3.826   4.438   7.850  0.00  0.00    +0.078 A 
ATOM     15  C   UNL     1       3.352   3.154   8.059  0.00  0.00    +0.027 A 
ATOM     16  C   UNL     1       2.847   2.798   9.296  0.00  0.00    +0.002 A 
ATOM     17  C   UNL     1       2.821   3.721  10.325  0.00  0.00    +0.004 A 
ATOM     18  C   UNL     1       3.296   5.003  10.124  0.00  0.00    +0.047 A 
BRANCH  11  19
ATOM     19  C   UNL     1       5.349   8.339   7.399  0.00  0.00    +0.253 C 
ATOM     20  O   UNL     1       4.716   9.130   8.066  0.00  0.00    -0.272 OA
ATOM     21  N   UNL     1       6.224   8.785   6.475  0.00  0.00    -0.326 N 
ATOM     22  H   UNL     1       6.731   8.153   5.942  0.00  0.00    +0.145 HD
ATOM     23  H   UNL     1       6.346   9.738   6.344  0.00  0.00    +0.145 HD
ENDBRANCH  11  19
ENDBRANCH   4   7
BRANCH   1  24
ATOM     24  S   UNL     1       5.518   3.550   0.030  0.00  0.00    +0.061 S 
ATOM     25  O   UNL     1       6.753   2.951  -0.339  0.00  0.00    -0.153 OA
ATOM     26  O   UNL     1       4.931   4.607  -0.716  0.00  0.00    -0.153 OA
BRANCH  24  32
ATOM     27  C   UNL     1       0.215  -0.559   0.071  0.00  0.00    +0.001 A 
ATOM     28  C   UNL     1      -0.209   0.753  -0.130  0.00  0.00    +0.001 A 
ATOM     29  C   UNL     1       0.684   1.778  -0.181  0.00  0.00    +0.008 A 
ATOM     30  C   UNL     1       2.056   1.514  -0.023  0.00  0.00    -0.016 A 
ATOM     31  C   UNL     1       3.008   2.546  -0.069  0.00  0.00    +0.037 A 
ATOM     32  C   UNL     1       4.328   2.252   0.089  0.00  0.00    +0.106 A 
ATOM     33  C   UNL     1       4.751   0.941   0.295  0.00  0.00    +0.029 A 
ATOM     34  C   UNL     1       3.857  -0.084   0.346  0.00  0.00    +0.010 A 
ATOM     35  C   UNL     1       2.486   0.180   0.187  0.00  0.00    -0.018 A 
ATOM     36  C   UNL     1       1.534  -0.852   0.233  0.00  0.00    +0.008 A 
ENDBRANCH  24  32
ENDBRANCH   1  24
TORSDOF 4
