REMARK  Name = ZINC63486278
REMARK  9 active torsions:
REMARK  status: ('A' for Active; 'I' for Inactive)
REMARK    1  A    between atoms: C_1  and  C_2
REMARK    2  A    between atoms: C_4  and  C_29
REMARK    3  A    between atoms: C_10  and  C_12
REMARK    4  A    between atoms: C_12  and  C_13
REMARK    5  A    between atoms: N_15  and  C_16
REMARK    6  A    between atoms: C_16  and  C_17
REMARK    7  A    between atoms: C_17  and  C_18
REMARK    8  A    between atoms: C_21  and  O_27
REMARK    9  A    between atoms: O_27  and  C_28
REMARK                            x       y       z     vdW  Elec       q    Type
REMARK                         _______ _______ _______ _____ _____    ______ ____
ROOT
ATOM      1  C   UNL     1      -2.795  -2.420   3.980  0.00  0.00    +0.220 C 
ATOM      2  O   UNL     1      -3.145  -2.514   2.823  0.00  0.00    -0.275 OA
ATOM      3  N   UNL     1      -3.668  -2.688   4.972  0.00  0.00    -0.315 N 
ATOM      4  H   UNL     1      -3.388  -2.614   5.897  0.00  0.00    +0.149 HD
ENDROOT
BRANCH   1   5
ATOM      5  C   UNL     1      -1.385  -2.004   4.310  0.00  0.00    +0.166 C 
BRANCH   5  14
ATOM      6  C   UNL     1      -0.018   1.503   0.010  0.00  0.00    +0.062 C 
ATOM      7  C   UNL     1       0.002  -0.004   0.002  0.00  0.00    +0.028 C 
ATOM      8  C   UNL     1       0.007  -0.732  -1.149  0.00  0.00    +0.042 C 
ATOM      9  C   UNL     1       0.037  -2.142  -1.079  0.00  0.00    +0.038 C 
ATOM     10  N   UNL     1       0.319  -2.797   0.007  0.00  0.00    -0.244 NA
ATOM     11  C   UNL     1       0.664  -2.076   1.234  0.00  0.00    +0.309 C 
ATOM     12  N   UNL     1       0.023  -0.748   1.149  0.00  0.00    -0.214 N 
ATOM     13  N   UNL     1      -0.557  -0.553   2.397  0.00  0.00    -0.250 N 
ATOM     14  C   UNL     1      -0.620  -1.765   3.034  0.00  0.00    +0.096 C 
ATOM     15  N   UNL     1       0.054  -2.692   2.417  0.00  0.00    -0.338 N 
ATOM     16  C   UNL     1      -0.274  -2.927  -2.327  0.00  0.00    +0.065 C 
ATOM     17  H   UNL     1      -0.863   0.295   2.756  0.00  0.00    +0.171 HD
ATOM     18  H   UNL     1       0.146  -3.620   2.685  0.00  0.00    +0.164 HD
ENDBRANCH   5  14
ENDBRANCH   1   5
BRANCH   3  19
ATOM     19  C   UNL     1      -5.039  -3.093   4.651  0.00  0.00    +0.108 C 
BRANCH  19  20
ATOM     20  C   UNL     1      -5.815  -3.336   5.947  0.00  0.00    +0.052 C 
BRANCH  20  21
ATOM     21  C   UNL     1      -7.226  -3.752   5.617  0.00  0.00    -0.040 C 
ATOM     22  C   UNL     1      -7.700  -5.014   5.527  0.00  0.00    +0.002 A 
ATOM     23  C   UNL     1      -7.073  -6.329   5.701  0.00  0.00    +0.055 A 
ATOM     24  C   UNL     1      -7.817  -7.450   5.543  0.00  0.00    +0.121 A 
ATOM     25  C   UNL     1      -9.183  -7.403   5.215  0.00  0.00    +0.047 A 
ATOM     26  C   UNL     1      -9.849  -6.243   5.035  0.00  0.00    +0.029 A 
ATOM     27  C   UNL     1      -9.140  -4.967   5.182  0.00  0.00    +0.043 A 
ATOM     28  N   UNL     1      -9.539  -3.725   5.063  0.00  0.00    -0.380 N 
ATOM     29  C   UNL     1      -8.398  -2.841   5.327  0.00  0.00    +0.144 C 
ATOM     30  H   UNL     1     -10.438  -3.438   4.842  0.00  0.00    +0.160 HD
BRANCH  24  31
ATOM     31  O   UNL     1      -7.222  -8.661   5.707  0.00  0.00    -0.495 OA
ATOM     32  C   UNL     1      -8.044  -9.816   5.531  0.00  0.00    +0.277 C 
ENDBRANCH  24  31
ENDBRANCH  20  21
ENDBRANCH  19  20
ENDBRANCH   3  19
TORSDOF 6
