REMARK  Name = ZINC13197786
REMARK  5 active torsions:
REMARK  status: ('A' for Active; 'I' for Inactive)
REMARK    1  A    between atoms: C_3  and  O_26
REMARK    2  A    between atoms: C_4  and  C_24
REMARK    3  A    between atoms: C_6  and  S_7
REMARK    4  A    between atoms: S_7  and  N_10
REMARK    5  A    between atoms: C_13  and  C_16
REMARK                            x       y       z     vdW  Elec       q    Type
REMARK                         _______ _______ _______ _____ _____    ______ ____
ROOT
ATOM      1  S   UNL     1       3.158  -5.526   4.712  0.00  0.00    +0.061 S 
ATOM      2  O   UNL     1       4.565  -5.503   4.515  0.00  0.00    -0.153 OA
ATOM      3  O   UNL     1       2.566  -5.940   5.935  0.00  0.00    -0.153 OA
ENDROOT
BRANCH   1   9
ATOM      4  C   UNL     1       1.267  -7.183   3.648  0.00  0.00    +0.032 A 
ATOM      5  C   UNL     1       0.730  -7.994   2.667  0.00  0.00    +0.048 A 
ATOM      6  C   UNL     1       1.420  -8.201   1.482  0.00  0.00    +0.131 A 
ATOM      7  C   UNL     1       2.661  -7.579   1.283  0.00  0.00    +0.106 A 
ATOM      8  C   UNL     1       3.189  -6.757   2.282  0.00  0.00    +0.047 A 
ATOM      9  C   UNL     1       2.490  -6.563   3.453  0.00  0.00    +0.106 A 
BRANCH   7  10
ATOM     10  C   UNL     1       3.403  -7.791   0.027  0.00  0.00    +0.390 C 
ATOM     11  O   UNL     1       2.940  -8.506  -0.839  0.00  0.00    -0.240 OA
ATOM     12  O   UNL     1       4.595  -7.190  -0.160  0.00  0.00    -0.240 OA
ENDBRANCH   7  10
BRANCH   6  13
ATOM     13  O   UNL     1       0.897  -9.002   0.521  0.00  0.00    -0.506 OA
ATOM     14  H   UNL     1       1.152  -9.931   0.601  0.00  0.00    +0.292 HD
ENDBRANCH   6  13
ENDBRANCH   1   9
BRANCH   1  15
ATOM     15  N   UNL     1       2.614  -3.989   4.419  0.00  0.00    -0.177 NA
ATOM     16  C   UNL     1       1.354  -3.516   5.008  0.00  0.00    +0.110 C 
ATOM     17  C   UNL     1       0.458  -2.977   3.888  0.00  0.00    +0.030 C 
ATOM     18  C   UNL     1       1.222  -1.912   3.098  0.00  0.00    +0.078 C 
ATOM     19  C   UNL     1       2.465  -2.539   2.462  0.00  0.00    +0.030 C 
ATOM     20  C   UNL     1       3.383  -3.073   3.566  0.00  0.00    +0.110 C 
BRANCH  18  21
ATOM     21  C   UNL     1       0.331  -1.356   2.016  0.00  0.00    +0.219 C 
ATOM     22  O   UNL     1      -0.615  -2.001   1.618  0.00  0.00    -0.275 OA
ATOM     23  N   UNL     1       0.587  -0.141   1.492  0.00  0.00    -0.301 N 
ATOM     24  C   UNL     1      -0.212   0.374   0.372  0.00  0.00    +0.108 C 
ATOM     25  C   UNL     1      -0.761   1.753   0.751  0.00  0.00    +0.019 C 
ATOM     26  C   UNL     1       0.397   2.663   1.167  0.00  0.00    +0.003 C 
ATOM     27  C   UNL     1       1.100   2.069   2.390  0.00  0.00    +0.019 C 
ATOM     28  C   UNL     1       1.670   0.694   2.030  0.00  0.00    +0.108 C 
ENDBRANCH  18  21
ENDBRANCH   1  15
TORSDOF 5
