REMARK  Name = ZINC65074686
REMARK  3 active torsions:
REMARK  status: ('A' for Active; 'I' for Inactive)
REMARK    1  A    between atoms: C_4  and  S_7
REMARK    2  A    between atoms: S_7  and  N_10
REMARK    3  A    between atoms: N_21  and  C_22
REMARK                            x       y       z     vdW  Elec       q    Type
REMARK                         _______ _______ _______ _____ _____    ______ ____
ROOT
ATOM      1  N   UNL     1       4.378  -1.079   1.536  0.00  0.00    -0.176 NA
ATOM      2  C   UNL     1       5.190  -0.084   2.249  0.00  0.00    +0.111 C 
ATOM      3  C   UNL     1       6.421  -0.782   2.836  0.00  0.00    +0.047 C 
ATOM      4  C   UNL     1       5.969  -1.961   3.703  0.00  0.00    +0.075 C 
ATOM      5  C   UNL     1       5.210  -2.969   2.835  0.00  0.00    +0.047 C 
ATOM      6  C   UNL     1       3.961  -2.293   2.249  0.00  0.00    +0.111 C 
ATOM      7  C   UNL     1       7.171  -2.626   4.311  0.00  0.00    +0.089 C 
ATOM      8  N   UNL     1       7.521  -2.475   5.532  0.00  0.00    -0.374 N 
ATOM      9  C   UNL     1       6.792  -1.648   6.488  0.00  0.00    +0.129 C 
ATOM     10  C   UNL     1       5.853  -0.693   5.748  0.00  0.00    +0.102 C 
ATOM     11  N   UNL     1       5.079  -1.469   4.764  0.00  0.00    -0.303 NA
ATOM     12  N   UNL     1       7.934  -3.439   3.515  0.00  0.00    -0.330 N 
ATOM     13  H   UNL     1       4.328  -0.916   4.379  0.00  0.00    +0.123 HD
ATOM     14  H   UNL     1       7.692  -3.573   2.585  0.00  0.00    +0.147 HD
ATOM     15  H   UNL     1       8.316  -2.937   5.841  0.00  0.00    +0.161 HD
ENDROOT
BRANCH  12  16
ATOM     16  C   UNL     1       9.115  -4.107   4.068  0.00  0.00    +0.071 C 
ATOM     17  C   UNL     1      10.315  -3.161   4.000  0.00  0.00    +0.022 C 
ATOM     18  C   UNL     1      11.548  -3.859   4.578  0.00  0.00    +0.002 C 
ATOM     19  C   UNL     1      11.847  -5.121   3.766  0.00  0.00    +0.000 C 
ATOM     20  C   UNL     1      10.647  -6.067   3.834  0.00  0.00    +0.002 C 
ATOM     21  C   UNL     1       9.414  -5.369   3.256  0.00  0.00    +0.022 C 
ENDBRANCH  12  16
BRANCH   1  22
ATOM     22  S   UNL     1       3.934  -0.832  -0.041  0.00  0.00    +0.061 S 
ATOM     23  O   UNL     1       3.674  -2.114  -0.595  0.00  0.00    -0.153 OA
ATOM     24  O   UNL     1       4.890   0.060  -0.597  0.00  0.00    -0.153 OA
BRANCH  22  28
ATOM     25  C   UNL     1      -0.017   1.378   0.010  0.00  0.00    +0.000 A 
ATOM     26  C   UNL     1       1.171   2.086   0.002  0.00  0.00    +0.002 A 
ATOM     27  C   UNL     1       2.377   1.411  -0.013  0.00  0.00    +0.028 A 
ATOM     28  C   UNL     1       2.396   0.029  -0.020  0.00  0.00    +0.105 A 
ATOM     29  C   UNL     1       1.208  -0.679  -0.012  0.00  0.00    +0.028 A 
ATOM     30  C   UNL     1       0.002  -0.004   0.002  0.00  0.00    +0.002 A 
ENDBRANCH  22  28
ENDBRANCH   1  22
TORSDOF 3
