REMARK  Name = ZINC36206348
REMARK  14 active torsions:
REMARK  status: ('A' for Active; 'I' for Inactive)
REMARK    1  A    between atoms: C_1  and  O_2
REMARK    2  A    between atoms: O_2  and  C_3
REMARK    3  A    between atoms: C_3  and  C_4
REMARK    4  A    between atoms: C_4  and  N_5
REMARK    5  A    between atoms: N_5  and  C_6
REMARK    6  A    between atoms: N_5  and  C_26
REMARK    7  A    between atoms: C_6  and  C_7
REMARK    8  A    between atoms: C_13  and  C_18
REMARK    9  A    between atoms: C_22  and  O_24
REMARK   10  A    between atoms: O_24  and  C_25
REMARK   11  A    between atoms: C_26  and  C_27
REMARK   12  A    between atoms: C_27  and  C_29
REMARK   13  A    between atoms: C_27  and  O_36
REMARK   14  A    between atoms: C_29  and  C_30
REMARK                            x       y       z     vdW  Elec       q    Type
REMARK                         _______ _______ _______ _____ _____    ______ ____
ROOT
ATOM      1  C   UNL     1      -0.691  -2.115   3.927  0.00  0.00    +0.094 A 
ATOM      2  N   UNL     1      -1.351  -1.827   5.079  0.00  0.00    -0.312 N 
ATOM      3  H   UNL     1      -2.277  -1.541   5.038  0.00  0.00    +0.170 HD
ATOM      4  C   UNL     1      -0.745  -1.930   6.276  0.00  0.00    +0.260 A 
ATOM      5  O   UNL     1      -1.351  -1.668   7.301  0.00  0.00    -0.267 OA
ATOM      6  C   UNL     1       0.622  -2.353   6.328  0.00  0.00    +0.080 A 
ATOM      7  C   UNL     1       1.486  -2.541   7.487  0.00  0.00    +0.004 A 
ATOM      8  C   UNL     1       2.761  -2.954   7.289  0.00  0.00    +0.056 A 
ATOM      9  S   UNL     1       2.872  -3.114   5.517  0.00  0.00    -0.076 S 
ATOM     10  C   UNL     1       1.221  -2.629   5.088  0.00  0.00    +0.116 A 
ATOM     11  N   UNL     1       0.554  -2.507   3.943  0.00  0.00    -0.229 NA
ENDROOT
BRANCH   7  12
ATOM     12  C   UNL     1       0.980  -2.285   8.856  0.00  0.00    -0.013 A 
ATOM     13  C   UNL     1       0.320  -1.091   9.146  0.00  0.00    +0.009 A 
ATOM     14  C   UNL     1      -0.151  -0.855  10.422  0.00  0.00    +0.004 A 
ATOM     15  C   UNL     1       0.030  -1.799  11.415  0.00  0.00    +0.045 A 
ATOM     16  C   UNL     1       0.686  -2.990  11.136  0.00  0.00    +0.121 A 
ATOM     17  C   UNL     1       1.156  -3.238   9.857  0.00  0.00    +0.054 A 
BRANCH  16  18
ATOM     18  O   UNL     1       0.862  -3.915  12.116  0.00  0.00    -0.495 OA
ATOM     19  C   UNL     1       0.346  -3.596  13.409  0.00  0.00    +0.277 C 
ENDBRANCH  16  18
ENDBRANCH   7  12
BRANCH   1  20
ATOM     20  C   UNL     1      -1.411  -1.984   2.610  0.00  0.00    -0.003 C 
BRANCH  20  21
ATOM     21  N   UNL     1      -0.551  -2.489   1.530  0.00  0.00    +0.388 N 
ATOM     22  H   UNL     1       0.347  -2.030   1.573  0.00  0.00    -0.081 HD
BRANCH  21  23
ATOM     23  C   UNL     1      -1.181  -2.212   0.233  0.00  0.00    -0.050 C 
BRANCH  23  24
ATOM     24  C   UNL     1      -1.241  -0.700   0.007  0.00  0.00    +0.141 C 
BRANCH  24  26
ATOM     25  C   UNL     1       0.147   1.244  -0.196  0.00  0.00    +0.193 C 
ATOM     26  O   UNL     1       0.087  -0.180  -0.095  0.00  0.00    -0.385 OA
ENDBRANCH  24  26
ENDBRANCH  23  24
ENDBRANCH  21  23
BRANCH  21  27
ATOM     27  C   UNL     1      -0.368  -3.938   1.687  0.00  0.00    -0.046 C 
BRANCH  27  28
ATOM     28  C   UNL     1       0.626  -4.443   0.639  0.00  0.00    +0.102 C 
BRANCH  28  29
ATOM     29  O   UNL     1       1.911  -3.870   0.887  0.00  0.00    -0.393 OA
ATOM     30  H   UNL     1       2.277  -4.088   1.755  0.00  0.00    +0.210 HD
ENDBRANCH  28  29
BRANCH  28  31
ATOM     31  C   UNL     1       0.722  -5.968   0.720  0.00  0.00    +0.064 C 
BRANCH  31  32
ATOM     32  C   UNL     1       1.605  -6.475  -0.391  0.00  0.00    -0.045 A 
ATOM     33  C   UNL     1       1.056  -6.800  -1.617  0.00  0.00    +0.004 A 
ATOM     34  C   UNL     1       1.866  -7.266  -2.636  0.00  0.00    +0.000 A 
ATOM     35  C   UNL     1       3.226  -7.405  -2.429  0.00  0.00    +0.000 A 
ATOM     36  C   UNL     1       3.775  -7.079  -1.203  0.00  0.00    +0.000 A 
ATOM     37  C   UNL     1       2.965  -6.609  -0.185  0.00  0.00    +0.004 A 
ENDBRANCH  31  32
ENDBRANCH  28  31
ENDBRANCH  27  28
ENDBRANCH  21  27
ENDBRANCH  20  21
ENDBRANCH   1  20
TORSDOF 12
