REMARK  Name = ZINC63254450
REMARK  8 active torsions:
REMARK  status: ('A' for Active; 'I' for Inactive)
REMARK    1  A    between atoms: C_1  and  C_2
REMARK    2  A    between atoms: C_9  and  N_12
REMARK    3  A    between atoms: C_13  and  C_15
REMARK    4  A    between atoms: C_15  and  C_17
REMARK    5  A    between atoms: C_15  and  N_27
REMARK    6  A    between atoms: C_17  and  C_18
REMARK    7  A    between atoms: C_28  and  O_30
REMARK    8  A    between atoms: O_30  and  C_31
REMARK                            x       y       z     vdW  Elec       q    Type
REMARK                         _______ _______ _______ _____ _____    ______ ____
ROOT
ATOM      1  C   UNL     1      -2.552  -7.222   3.134  0.00  0.00    +0.166 C 
ENDROOT
BRANCH   1   3
ATOM      2  N   UNL     1      -1.527  -5.177   2.193  0.00  0.00    -0.287 N 
ATOM      3  C   UNL     1      -1.471  -6.172   3.100  0.00  0.00    +0.236 C 
ATOM      4  O   UNL     1      -0.551  -6.223   3.888  0.00  0.00    -0.274 OA
ATOM      5  H   UNL     1      -2.263  -5.136   1.563  0.00  0.00    +0.151 HD
BRANCH   2  14
ATOM      6  C   UNL     1      -1.563   2.218   2.209  0.00  0.00    +0.044 C 
ATOM      7  C   UNL     1      -1.315   0.772   1.865  0.00  0.00    -0.049 A 
ATOM      8  C   UNL     1      -1.243   0.367   0.545  0.00  0.00    +0.005 A 
ATOM      9  C   UNL     1      -1.017  -0.950   0.217  0.00  0.00    +0.024 A 
ATOM     10  C   UNL     1      -0.853  -1.930   1.212  0.00  0.00    +0.043 A 
ATOM     11  C   UNL     1      -0.932  -1.489   2.537  0.00  0.00    +0.032 A 
ATOM     12  C   UNL     1      -1.151  -0.171   2.866  0.00  0.00    +0.020 A 
ATOM     13  S   UNL     1      -0.687  -2.946   3.527  0.00  0.00    -0.082 S 
ATOM     14  C   UNL     1      -0.477  -4.156   2.160  0.00  0.00    +0.224 C 
ATOM     15  N   UNL     1      -0.621  -3.286   0.985  0.00  0.00    -0.316 N 
ATOM     16  H   UNL     1      -0.558  -3.641   0.085  0.00  0.00    +0.149 HD
ENDBRANCH   2  14
ENDBRANCH   1   3
BRANCH   1  17
ATOM     17  N   UNL     1      -2.263  -8.185   4.200  0.00  0.00    -0.269 N 
ATOM     18  C   UNL     1      -3.272  -8.847   4.801  0.00  0.00    +0.406 C 
ATOM     19  O   UNL     1      -4.420  -8.645   4.459  0.00  0.00    -0.226 OA
ATOM     20  H   UNL     1      -1.347  -8.346   4.473  0.00  0.00    +0.153 HD
BRANCH  18  21
ATOM     21  O   UNL     1      -3.007  -9.732   5.781  0.00  0.00    -0.412 OA
BRANCH  21  22
ATOM     22  C   UNL     1      -4.058 -10.299   6.430  0.00  0.00    +0.133 A 
ATOM     23  C   UNL     1      -4.428  -9.841   7.686  0.00  0.00    +0.046 A 
ATOM     24  C   UNL     1      -5.497 -10.419   8.344  0.00  0.00    +0.004 A 
ATOM     25  C   UNL     1      -6.197 -11.454   7.751  0.00  0.00    +0.000 A 
ATOM     26  C   UNL     1      -5.830 -11.912   6.499  0.00  0.00    +0.004 A 
ATOM     27  C   UNL     1      -4.766 -11.333   5.835  0.00  0.00    +0.046 A 
ENDBRANCH  21  22
ENDBRANCH  18  21
ENDBRANCH   1  17
BRANCH   1  28
ATOM     28  C   UNL     1      -2.599  -7.950   1.789  0.00  0.00    +0.065 C 
BRANCH  28  29
ATOM     29  C   UNL     1      -1.286  -8.651   1.551  0.00  0.00    -0.039 C 
ATOM     30  C   UNL     1      -0.988  -9.938   1.839  0.00  0.00    -0.001 A 
ATOM     31  C   UNL     1      -1.765 -11.028   2.440  0.00  0.00    +0.010 A 
ATOM     32  C   UNL     1      -1.180 -12.236   2.607  0.00  0.00    +0.001 A 
ATOM     33  C   UNL     1       0.147 -12.472   2.222  0.00  0.00    +0.002 A 
ATOM     34  C   UNL     1       0.924 -11.520   1.664  0.00  0.00    +0.026 A 
ATOM     35  C   UNL     1       0.411 -10.213   1.441  0.00  0.00    +0.043 A 
ATOM     36  N   UNL     1       0.956  -9.137   0.926  0.00  0.00    -0.380 N 
ATOM     37  C   UNL     1      -0.038  -8.059   0.934  0.00  0.00    +0.144 C 
ATOM     38  H   UNL     1       1.864  -9.068   0.592  0.00  0.00    +0.160 HD
ENDBRANCH  28  29
ENDBRANCH   1  28
TORSDOF 7
