REMARK  Name = ZINC39631122
REMARK  12 active torsions:
REMARK  status: ('A' for Active; 'I' for Inactive)
REMARK    1  A    between atoms: C_1  and  C_2
REMARK    2  A    between atoms: C_5  and  C_8
REMARK    3  A    between atoms: C_12  and  C_21
REMARK    4  A    between atoms: N_23  and  C_24
REMARK    5  A    between atoms: C_24  and  C_26
REMARK    6  A    between atoms: C_24  and  C_27
REMARK    7  A    between atoms: C_27  and  C_28
REMARK    8  A    between atoms: C_28  and  C_29
REMARK    9  A    between atoms: C_29  and  C_30
REMARK   10  A    between atoms: C_30  and  C_31
REMARK   11  A    between atoms: C_30  and  C_32
REMARK   12  A    between atoms: C_30  and  O_33
REMARK                            x       y       z     vdW  Elec       q    Type
REMARK                         _______ _______ _______ _____ _____    ______ ____
ROOT
ATOM      1  C   UNL     1       0.058  -4.249  -0.021  0.00  0.00    +0.247 C 
ATOM      2  O   UNL     1      -0.047  -4.852  -1.071  0.00  0.00    -0.270 OA
ATOM      3  N   UNL     1       0.175  -4.928   1.137  0.00  0.00    -0.296 N 
ATOM      4  C   UNL     1       0.185  -4.380   2.515  0.00  0.00    +0.121 C 
ATOM      5  C   UNL     1      -0.633  -5.396   3.344  0.00  0.00    +0.100 C 
ATOM      6  C   UNL     1      -0.537  -6.713   2.557  0.00  0.00    -0.004 C 
ATOM      7  C   UNL     1       0.317  -6.392   1.322  0.00  0.00    +0.115 C 
ATOM      8  C   UNL     1      -1.926  -7.173   2.126  0.00  0.00    -0.010 C 
ATOM      9  C   UNL     1      -1.810  -8.514   1.395  0.00  0.00    -0.082 C 
ATOM     10  N   UNL     1      -1.199  -9.508   2.285  0.00  0.00    +0.379 N 
ATOM     11  C   UNL     1       0.172  -9.103   2.621  0.00  0.00    -0.082 C 
ATOM     12  C   UNL     1       0.140  -7.787   3.404  0.00  0.00    -0.010 C 
ATOM     13  H   UNL     1      -1.744  -9.580   3.131  0.00  0.00    -0.086 HD
ATOM     14  H   UNL     1      -1.179 -10.405   1.824  0.00  0.00    -0.086 HD
ENDROOT
BRANCH   1  19
ATOM     15  C   UNL     1       0.056   1.506   0.007  0.00  0.00    +0.044 C 
ATOM     16  C   UNL     1       0.057  -0.001  -0.001  0.00  0.00    -0.050 A 
ATOM     17  C   UNL     1      -0.548  -0.685  -1.040  0.00  0.00    +0.004 A 
ATOM     18  C   UNL     1      -0.551  -2.065  -1.052  0.00  0.00    +0.013 A 
ATOM     19  C   UNL     1       0.058  -2.770  -0.014  0.00  0.00    +0.037 A 
ATOM     20  C   UNL     1       0.667  -2.074   1.032  0.00  0.00    +0.013 A 
ATOM     21  C   UNL     1       0.667  -0.695   1.029  0.00  0.00    +0.004 A 
ENDBRANCH   1  19
BRANCH   5  22
ATOM     22  C   UNL     1      -0.032  -5.556   4.717  0.00  0.00    +0.218 C 
ATOM     23  O   UNL     1       1.144  -5.323   4.895  0.00  0.00    -0.275 OA
ATOM     24  N   UNL     1      -0.803  -5.960   5.746  0.00  0.00    -0.312 N 
ATOM     25  H   UNL     1      -1.744  -6.147   5.604  0.00  0.00    +0.149 HD
BRANCH  24  26
ATOM     26  C   UNL     1      -0.219  -6.116   7.081  0.00  0.00    +0.070 C 
ATOM     27  C   UNL     1       0.413  -7.504   7.201  0.00  0.00    +0.028 C 
BRANCH  26  28
ATOM     28  C   UNL     1      -1.314  -5.961   8.138  0.00  0.00    +0.022 C 
BRANCH  28  29
ATOM     29  C   UNL     1      -1.861  -4.533   8.100  0.00  0.00    +0.005 C 
BRANCH  29  30
ATOM     30  C   UNL     1      -2.956  -4.378   9.158  0.00  0.00    +0.034 C 
BRANCH  30  31
ATOM     31  C   UNL     1      -3.502  -2.949   9.120  0.00  0.00    +0.061 C 
ATOM     32  C   UNL     1      -4.508  -2.757  10.257  0.00  0.00    +0.041 C 
ATOM     33  C   UNL     1      -2.349  -1.957   9.286  0.00  0.00    +0.041 C 
BRANCH  31  34
ATOM     34  O   UNL     1      -4.151  -2.720   7.867  0.00  0.00    -0.389 OA
ATOM     35  H   UNL     1      -4.894  -3.315   7.694  0.00  0.00    +0.210 HD
ENDBRANCH  31  34
ENDBRANCH  30  31
ENDBRANCH  29  30
ENDBRANCH  28  29
ENDBRANCH  26  28
ENDBRANCH  24  26
ENDBRANCH   5  22
TORSDOF 8
