REMARK  Name = ZINC44714310
REMARK  9 active torsions:
REMARK  status: ('A' for Active; 'I' for Inactive)
REMARK    1  A    between atoms: C_1  and  C_2
REMARK    2  A    between atoms: C_5  and  C_8
REMARK    3  A    between atoms: C_8  and  C_9
REMARK    4  A    between atoms: C_13  and  C_22
REMARK    5  A    between atoms: N_24  and  C_25
REMARK    6  A    between atoms: C_25  and  C_27
REMARK    7  A    between atoms: C_25  and  C_28
REMARK    8  A    between atoms: C_29  and  C_35
REMARK    9  A    between atoms: C_33  and  C_34
REMARK                            x       y       z     vdW  Elec       q    Type
REMARK                         _______ _______ _______ _____ _____    ______ ____
ROOT
ATOM      1  C   UNL     1       1.437  -4.803   0.020  0.00  0.00    +0.220 C 
ATOM      2  O   UNL     1       2.351  -4.006   0.040  0.00  0.00    -0.275 OA
ATOM      3  N   UNL     1       1.696  -6.125   0.004  0.00  0.00    -0.300 N 
ATOM      4  C   UNL     1       0.722  -7.242  -0.027  0.00  0.00    +0.121 C 
ATOM      5  C   UNL     1       1.350  -8.282  -0.981  0.00  0.00    +0.100 C 
ATOM      6  C   UNL     1       2.858  -7.983  -0.950  0.00  0.00    -0.004 C 
ATOM      7  C   UNL     1       3.021  -6.792   0.006  0.00  0.00    +0.115 C 
ATOM      8  C   UNL     1       3.351  -7.604  -2.343  0.00  0.00    -0.010 C 
ATOM      9  C   UNL     1       4.863  -7.367  -2.297  0.00  0.00    -0.082 C 
ATOM     10  N   UNL     1       5.537  -8.585  -1.832  0.00  0.00    +0.379 N 
ATOM     11  C   UNL     1       5.127  -8.891  -0.456  0.00  0.00    -0.082 C 
ATOM     12  C   UNL     1       3.626  -9.192  -0.424  0.00  0.00    -0.010 C 
ATOM     13  H   UNL     1       5.290  -9.356  -2.434  0.00  0.00    -0.086 HD
ATOM     14  H   UNL     1       6.537  -8.447  -1.861  0.00  0.00    -0.086 HD
ENDROOT
BRANCH   5  15
ATOM     15  C   UNL     1       0.807  -8.109  -2.377  0.00  0.00    +0.219 C 
ATOM     16  O   UNL     1       0.380  -7.031  -2.732  0.00  0.00    -0.275 OA
ATOM     17  N   UNL     1       0.797  -9.152  -3.230  0.00  0.00    -0.308 N 
ATOM     18  H   UNL     1       1.139 -10.014  -2.946  0.00  0.00    +0.149 HD
BRANCH  17  19
ATOM     19  C   UNL     1       0.270  -8.984  -4.586  0.00  0.00    +0.104 C 
ATOM     20  C   UNL     1      -1.259  -9.040  -4.550  0.00  0.00    +0.033 C 
BRANCH  19  21
ATOM     21  C   UNL     1       0.792 -10.088  -5.469  0.00  0.00    +0.015 A 
ATOM     22  C   UNL     1       1.364  -9.932  -6.685  0.00  0.00    +0.038 A 
ATOM     23  N   UNL     1       1.693 -11.157  -7.145  0.00  0.00    -0.281 N 
ATOM     24  H   UNL     1       2.120 -11.352  -7.994  0.00  0.00    +0.189 HD
ATOM     25  N   UNL     1       1.312 -12.097  -6.179  0.00  0.00    -0.179 NA
ATOM     26  C   UNL     1       0.777 -11.455  -5.173  0.00  0.00    +0.065 A 
ATOM     27  C   UNL     1       0.235 -12.080  -3.913  0.00  0.00    +0.068 C 
ATOM     28  C   UNL     1       1.592  -8.624  -7.399  0.00  0.00    +0.065 C 
ENDBRANCH  19  21
ENDBRANCH  17  19
ENDBRANCH   5  15
BRANCH   1  29
ATOM     29  C   UNL     1       0.011  -4.314   0.015  0.00  0.00    +0.131 C 
BRANCH  29  34
ATOM     30  C   UNL     1      -0.048   1.464   0.097  0.00  0.00    +0.044 C 
ATOM     31  C   UNL     1      -0.032  -0.043   0.075  0.00  0.00    -0.050 A 
ATOM     32  C   UNL     1      -0.014  -0.717  -1.131  0.00  0.00    +0.003 A 
ATOM     33  C   UNL     1       0.001  -2.099  -1.151  0.00  0.00    +0.004 A 
ATOM     34  C   UNL     1      -0.003  -2.807   0.036  0.00  0.00    -0.039 A 
ATOM     35  C   UNL     1      -0.021  -2.133   1.243  0.00  0.00    +0.004 A 
ATOM     36  C   UNL     1      -0.031  -0.751   1.263  0.00  0.00    +0.003 A 
ENDBRANCH  29  34
ENDBRANCH   1  29
TORSDOF 5
