REMARK  Name = ZINC40161555
REMARK  9 active torsions:
REMARK  status: ('A' for Active; 'I' for Inactive)
REMARK    1  A    between atoms: C_1  and  C_2
REMARK    2  A    between atoms: C_5  and  C_9
REMARK    3  A    between atoms: C_7  and  C_8
REMARK    4  A    between atoms: C_9  and  C_11
REMARK    5  A    between atoms: C_9  and  N_17
REMARK    6  A    between atoms: N_17  and  C_18
REMARK    7  A    between atoms: C_18  and  C_19
REMARK    8  A    between atoms: N_21  and  C_22
REMARK    9  A    between atoms: C_22  and  C_23
REMARK                            x       y       z     vdW  Elec       q    Type
REMARK                         _______ _______ _______ _____ _____    ______ ____
ROOT
ATOM      1  N   UNL     1       0.950  -4.748  -1.090  0.00  0.00    +0.392 N 
ATOM      2  H   UNL     1       0.571  -4.481  -1.986  0.00  0.00    -0.084 HD
ATOM      3  H   UNL     1       1.863  -4.334  -0.974  0.00  0.00    -0.084 HD
ENDROOT
BRANCH   1   4
ATOM      4  C   UNL     1       0.059  -4.275  -0.021  0.00  0.00    -0.009 C 
BRANCH   4   9
ATOM      5  C   UNL     1      -0.018   1.503   0.010  0.00  0.00    +0.044 C 
ATOM      6  C   UNL     1       0.002  -0.004   0.002  0.00  0.00    -0.048 A 
ATOM      7  C   UNL     1       0.006  -0.689  -1.199  0.00  0.00    +0.004 A 
ATOM      8  C   UNL     1       0.025  -2.071  -1.207  0.00  0.00    +0.002 A 
ATOM      9  C   UNL     1       0.040  -2.768  -0.013  0.00  0.00    -0.057 A 
ATOM     10  C   UNL     1       0.037  -2.084   1.188  0.00  0.00    +0.006 A 
ATOM     11  C   UNL     1       0.023  -0.702   1.195  0.00  0.00    -0.047 A 
ATOM     12  C   UNL     1       0.025   0.045   2.504  0.00  0.00    +0.044 C 
ENDBRANCH   4   9
BRANCH   4  13
ATOM     13  C   UNL     1      -1.335  -4.794  -0.263  0.00  0.00    -0.057 A 
ATOM     14  C   UNL     1      -1.844  -4.834  -1.548  0.00  0.00    +0.002 A 
ATOM     15  C   UNL     1      -3.123  -5.310  -1.769  0.00  0.00    +0.000 A 
ATOM     16  C   UNL     1      -3.892  -5.747  -0.707  0.00  0.00    +0.000 A 
ATOM     17  C   UNL     1      -3.381  -5.709   0.577  0.00  0.00    +0.000 A 
ATOM     18  C   UNL     1      -2.101  -5.237   0.798  0.00  0.00    +0.002 A 
ENDBRANCH   4  13
ENDBRANCH   1   4
BRANCH   1  19
ATOM     19  C   UNL     1       1.063  -6.211  -1.022  0.00  0.00    +0.016 C 
BRANCH  19  20
ATOM     20  C   UNL     1       1.977  -6.695  -2.118  0.00  0.00    +0.196 C 
ATOM     21  O   UNL     1       2.484  -5.900  -2.881  0.00  0.00    -0.278 OA
ATOM     22  N   UNL     1       2.230  -8.012  -2.251  0.00  0.00    -0.313 N 
ATOM     23  H   UNL     1       1.825  -8.648  -1.641  0.00  0.00    +0.149 HD
BRANCH  22  24
ATOM     24  C   UNL     1       3.118  -8.483  -3.317  0.00  0.00    +0.139 C 
BRANCH  24  25
ATOM     25  C   UNL     1       3.234  -9.984  -3.248  0.00  0.00    -0.027 A 
ATOM     26  C   UNL     1       4.223 -10.565  -2.475  0.00  0.00    +0.009 A 
ATOM     27  C   UNL     1       4.333 -11.941  -2.408  0.00  0.00    +0.050 A 
ATOM     28  C   UNL     1       3.452 -12.743  -3.115  0.00  0.00    +0.166 A 
ATOM     29  C   UNL     1       2.455 -12.158  -3.893  0.00  0.00    +0.167 A 
ATOM     30  C   UNL     1       2.348 -10.778  -3.952  0.00  0.00    +0.054 A 
ATOM     31  O   UNL     1       1.726 -13.148  -4.484  0.00  0.00    -0.453 OA
ATOM     32  C   UNL     1       2.537 -14.334  -4.387  0.00  0.00    +0.466 C 
ATOM     33  O   UNL     1       3.346 -14.100  -3.219  0.00  0.00    -0.453 OA
ENDBRANCH  24  25
ENDBRANCH  22  24
ENDBRANCH  19  20
ENDBRANCH   1  19
TORSDOF 7
