REMARK  Name = ZINC39452222
REMARK  8 active torsions:
REMARK  status: ('A' for Active; 'I' for Inactive)
REMARK    1  A    between atoms: C_1  and  C_2
REMARK    2  A    between atoms: C_2  and  C_3
REMARK    3  A    between atoms: C_2  and  S_4
REMARK    4  A    between atoms: S_4  and  C_7
REMARK    5  A    between atoms: C_17  and  C_20
REMARK    6  A    between atoms: C_25  and  O_26
REMARK    7  A    between atoms: N_29  and  S_30
REMARK    8  A    between atoms: S_30  and  C_31
REMARK                            x       y       z     vdW  Elec       q    Type
REMARK                         _______ _______ _______ _____ _____    ______ ____
ROOT
ATOM      1  C   UNL     1       2.506   0.133  -1.319  0.00  0.00    +0.222 C 
ATOM      2  C   UNL     1       3.377  -0.281  -2.511  0.00  0.00    +0.127 C 
ATOM      3  C   UNL     1       3.660  -1.758  -2.433  0.00  0.00    +0.186 C 
ATOM      4  O   UNL     1       3.833  -2.392  -3.455  0.00  0.00    -0.290 OA
ATOM      5  C   UNL     1       3.726  -2.415  -1.184  0.00  0.00    +0.122 A 
ATOM      6  C   UNL     1       3.471  -1.708  -0.022  0.00  0.00    +0.083 A 
ATOM      7  C   UNL     1       3.547  -2.388   1.277  0.00  0.00    +0.099 A 
ATOM      8  C   UNL     1       3.873  -3.763   1.292  0.00  0.00    +0.068 A 
ATOM      9  C   UNL     1       3.951  -4.433   2.511  0.00  0.00    +0.025 A 
ATOM     10  C   UNL     1       3.700  -3.703   3.675  0.00  0.00    +0.004 A 
ATOM     11  C   UNL     1       3.384  -2.343   3.577  0.00  0.00    +0.120 A 
ATOM     12  N   UNL     1       3.317  -1.739   2.413  0.00  0.00    -0.252 NA
ATOM     13  C   UNL     1       4.121  -4.449   0.016  0.00  0.00    +0.271 A 
ATOM     14  O   UNL     1       4.400  -5.633   0.006  0.00  0.00    -0.266 OA
ATOM     15  N   UNL     1       4.040  -3.767  -1.142  0.00  0.00    -0.245 N 
ATOM     16  N   UNL     1       3.141  -0.367  -0.089  0.00  0.00    -0.319 N 
ATOM     17  H   UNL     1       3.322   0.229   0.654  0.00  0.00    +0.148 HD
ENDROOT
BRANCH  10  18
ATOM     18  C   UNL     1       3.768  -4.362   5.000  0.00  0.00    +0.025 A 
ATOM     19  C   UNL     1       3.090  -5.560   5.223  0.00  0.00    +0.012 A 
ATOM     20  C   UNL     1       3.157  -6.170   6.458  0.00  0.00    +0.001 A 
ATOM     21  C   UNL     1       3.896  -5.597   7.479  0.00  0.00    +0.004 A 
ATOM     22  C   UNL     1       4.572  -4.410   7.270  0.00  0.00    +0.046 A 
ATOM     23  C   UNL     1       4.518  -3.789   6.033  0.00  0.00    +0.125 A 
BRANCH  23  24
ATOM     24  O   UNL     1       5.186  -2.625   5.824  0.00  0.00    -0.506 OA
ATOM     25  H   UNL     1       4.670  -1.833   6.027  0.00  0.00    +0.292 HD
ENDBRANCH  23  24
ENDBRANCH  10  18
BRANCH   1  26
ATOM     26  S   UNL     1       0.851  -0.589  -1.490  0.00  0.00    -0.010 S 
ATOM     27  O   UNL     1       0.968  -2.003  -1.416  0.00  0.00    -0.172 OA
ATOM     28  O   UNL     1       0.222  -0.006  -2.623  0.00  0.00    -0.172 OA
BRANCH  26  30
ATOM     29  C   UNL     1      -0.019   1.526   0.010  0.00  0.00    +0.031 C 
ATOM     30  C   UNL     1       0.002  -0.004   0.002  0.00  0.00    +0.126 C 
ATOM     31  C   UNL     1      -1.433  -0.534   0.013  0.00  0.00    +0.031 C 
ENDBRANCH  26  30
ENDBRANCH   1  26
BRANCH  15  32
ATOM     32  S   UNL     1       4.322  -4.568  -2.563  0.00  0.00    -0.044 S 
ATOM     33  C   UNL     1       6.107  -4.380  -2.826  0.00  0.00    +0.110 C 
ENDBRANCH  15  32
TORSDOF 5
