REMARK  Name = ZINC40918465
REMARK  3 active torsions:
REMARK  status: ('A' for Active; 'I' for Inactive)
REMARK    1  A    between atoms: C_1  and  N_2
REMARK    2  A    between atoms: C_6  and  N_8
REMARK    3  A    between atoms: N_9  and  C_10
REMARK                            x       y       z     vdW  Elec       q    Type
REMARK                         _______ _______ _______ _____ _____    ______ ____
ROOT
ATOM      1  N   UNL     1       2.078  -1.813   2.344  0.00  0.00    -0.153 NA
ATOM      2  N   UNL     1       1.814  -1.128   3.405  0.00  0.00    -0.150 NA
ENDROOT
BRANCH   1   8
ATOM      3  C   UNL     1      -0.018   1.465   0.010  0.00  0.00    +0.106 C 
ATOM      4  N   UNL     1       0.002  -0.004   0.002  0.00  0.00    -0.400 NA
ATOM      5  C   UNL     1       0.646  -0.468  -1.231  0.00  0.00    +0.085 C 
ATOM      6  C   UNL     1       0.814  -1.991  -1.161  0.00  0.00    +0.023 C 
ATOM      7  C   UNL     1       1.831  -2.303  -0.056  0.00  0.00    +0.060 C 
ATOM      8  C   UNL     1       1.500  -1.481   1.161  0.00  0.00    +0.076 C 
ATOM      9  C   UNL     1       0.674  -0.454   1.129  0.00  0.00    +0.077 C 
ATOM     10  H   UNL     1      -0.947  -0.346   0.026  0.00  0.00    +0.126 HD
ENDBRANCH   1   8
BRANCH   2  11
ATOM     11  C   UNL     1       2.395  -1.462   4.595  0.00  0.00    +0.086 A 
ATOM     12  C   UNL     1       3.280  -2.541   4.666  0.00  0.00    +0.031 A 
ATOM     13  C   UNL     1       3.863  -2.873   5.871  0.00  0.00    +0.022 A 
ATOM     14  C   UNL     1       3.573  -2.138   7.009  0.00  0.00    +0.041 A 
ATOM     15  C   UNL     1       2.697  -1.067   6.946  0.00  0.00    +0.022 A 
ATOM     16  C   UNL     1       2.112  -0.721   5.747  0.00  0.00    +0.031 A 
ATOM     17 CL   UNL     1       4.311  -2.563   8.522  0.00  0.00    -0.084 Cl
ENDBRANCH   2  11
TORSDOF 2
