REMARK  Name = ZINC12054664
REMARK  4 active torsions:
REMARK  status: ('A' for Active; 'I' for Inactive)
REMARK    1  A    between atoms: C_6  and  C_7
REMARK    2  A    between atoms: C_7  and  N_8
REMARK    3  A    between atoms: C_9  and  C_11
REMARK    4  A    between atoms: C_11  and  C_12
REMARK                            x       y       z     vdW  Elec       q    Type
REMARK                         _______ _______ _______ _____ _____    ______ ____
ROOT
ATOM      1  C   UNL     1      -1.261  -3.960  -3.424  0.00  0.00    +0.007 A 
ATOM      2  C   UNL     1      -0.637  -2.898  -4.043  0.00  0.00    +0.026 A 
ATOM      3  C   UNL     1      -0.251  -1.792  -3.293  0.00  0.00    +0.047 A 
ATOM      4  C   UNL     1      -0.503  -1.775  -1.909  0.00  0.00    +0.003 A 
ATOM      5  C   UNL     1      -1.138  -2.861  -1.304  0.00  0.00    +0.015 A 
ATOM      6  C   UNL     1      -1.509  -3.937  -2.059  0.00  0.00    -0.030 A 
ATOM      7  C   UNL     1       0.018  -0.498  -1.421  0.00  0.00    -0.019 A 
ATOM      8  C   UNL     1       0.524   0.158  -2.480  0.00  0.00    +0.020 A 
ATOM      9  N   UNL     1       0.376  -0.607  -3.607  0.00  0.00    -0.358 N 
ATOM     10  H   UNL     1       0.669  -0.351  -4.495  0.00  0.00    +0.166 HD
ATOM     11  C   UNL     1       1.152   1.531  -2.429  0.00  0.00    +0.053 C 
ATOM     12  C   UNL     1       2.141   1.600  -1.264  0.00  0.00    +0.006 C 
ATOM     13  C   UNL     1       1.415   2.052  -0.000  0.00  0.00    +0.001 C 
ATOM     14  C   UNL     1      -0.019   1.526   0.010  0.00  0.00    +0.005 C 
ATOM     15  C   UNL     1       0.002  -0.004   0.002  0.00  0.00    +0.037 C 
ENDROOT
BRANCH   6  16
ATOM     16  C   UNL     1      -2.193  -5.110  -1.404  0.00  0.00    +0.139 C 
BRANCH  16  17
ATOM     17  N   UNL     1      -3.643  -4.903  -1.425  0.00  0.00    -0.311 N 
ATOM     18  C   UNL     1      -4.464  -5.829  -0.891  0.00  0.00    +0.218 C 
ATOM     19  O   UNL     1      -4.002  -6.833  -0.393  0.00  0.00    -0.275 OA
ATOM     20  H   UNL     1      -4.013  -4.099  -1.823  0.00  0.00    +0.149 HD
BRANCH  18  21
ATOM     21  C   UNL     1      -5.956  -5.616  -0.913  0.00  0.00    +0.134 C 
BRANCH  21  22
ATOM     22  C   UNL     1      -6.640  -6.788  -0.258  0.00  0.00    -0.002 A 
ATOM     23  C   UNL     1      -6.897  -6.780   1.119  0.00  0.00    +0.120 A 
ATOM     24  N   UNL     1      -7.494  -7.802   1.688  0.00  0.00    -0.219 NA
ATOM     25  C   UNL     1      -7.866  -8.867   0.969  0.00  0.00    +0.253 A 
ATOM     26  N   UNL     1      -8.471 -10.004   1.295  0.00  0.00    -0.197 NA
ATOM     27  C   UNL     1      -8.626 -10.756   0.214  0.00  0.00    +0.247 A 
ATOM     28  N   UNL     1      -8.130 -10.135  -0.830  0.00  0.00    -0.152 NA
ATOM     29  N   UNL     1      -7.630  -8.907  -0.377  0.00  0.00    -0.204 N 
ATOM     30  C   UNL     1      -7.019  -7.862  -0.997  0.00  0.00    +0.121 A 
ENDBRANCH  21  22
ENDBRANCH  18  21
ENDBRANCH  16  17
ENDBRANCH   6  16
TORSDOF 4
