REMARK  Name = ZINC59384807
REMARK  8 active torsions:
REMARK  status: ('A' for Active; 'I' for Inactive)
REMARK    1  A    between atoms: C_1  and  C_2
REMARK    2  A    between atoms: C_3  and  C_17
REMARK    3  A    between atoms: C_4  and  C_10
REMARK    4  A    between atoms: N_19  and  N_20
REMARK    5  A    between atoms: C_21  and  C_22
REMARK    6  A    between atoms: C_25  and  N_28
REMARK    7  A    between atoms: N_28  and  C_29
REMARK    8  A    between atoms: N_28  and  C_30
REMARK                            x       y       z     vdW  Elec       q    Type
REMARK                         _______ _______ _______ _____ _____    ______ ____
ROOT
ATOM      1  C   UNL     1      -1.541  -1.295   2.347  0.00  0.00    +0.061 C 
ATOM      2  C   UNL     1      -0.705  -1.305   1.093  0.00  0.00    +0.017 C 
ATOM      3  C   UNL     1      -1.172  -0.706  -0.022  0.00  0.00    +0.057 C 
ATOM      4  C   UNL     1      -0.298  -0.739  -1.260  0.00  0.00    +0.139 C 
ATOM      5  N   UNL     1       0.998  -1.428  -1.143  0.00  0.00    -0.315 N 
ATOM      6  C   UNL     1       1.326  -1.980   0.041  0.00  0.00    +0.135 C 
ATOM      7  S   UNL     1       2.830  -2.784   0.191  0.00  0.00    -0.019 S 
ATOM      8  N   UNL     1       0.517  -1.916   1.106  0.00  0.00    -0.300 N 
ATOM      9  H   UNL     1       1.601  -1.483  -1.901  0.00  0.00    +0.149 HD
ATOM     10  H   UNL     1       0.813  -2.330   1.932  0.00  0.00    +0.154 HD
ENDROOT
BRANCH   4  11
ATOM     11  C   UNL     1      -1.080  -1.405  -2.362  0.00  0.00    -0.023 A 
ATOM     12  C   UNL     1      -1.273  -2.774  -2.343  0.00  0.00    +0.007 A 
ATOM     13  C   UNL     1      -1.990  -3.386  -3.353  0.00  0.00    +0.020 A 
ATOM     14  C   UNL     1      -2.515  -2.628  -4.385  0.00  0.00    +0.041 A 
ATOM     15  C   UNL     1      -2.322  -1.258  -4.404  0.00  0.00    +0.020 A 
ATOM     16  C   UNL     1      -1.609  -0.647  -3.390  0.00  0.00    +0.007 A 
ATOM     17 CL   UNL     1      -3.415  -3.396  -5.655  0.00  0.00    -0.084 Cl
ENDBRANCH   4  11
BRANCH   3  18
ATOM     18  C   UNL     1      -2.436  -0.067  -0.035  0.00  0.00    +0.263 C 
ATOM     19  O   UNL     1      -2.507   1.145   0.055  0.00  0.00    -0.269 OA
ATOM     20  N   UNL     1      -3.561  -0.802  -0.147  0.00  0.00    -0.203 N 
ATOM     21  H   UNL     1      -3.510  -1.770  -0.143  0.00  0.00    +0.178 HD
BRANCH  20  22
ATOM     22  N   UNL     1      -4.803  -0.166  -0.268  0.00  0.00    -0.187 NA
ATOM     23  C   UNL     1      -5.886  -0.874  -0.376  0.00  0.00    +0.138 C 
BRANCH  23  24
ATOM     24  C   UNL     1      -7.194  -0.205  -0.504  0.00  0.00    -0.005 A 
ATOM     25  C   UNL     1      -7.269   1.191  -0.515  0.00  0.00    +0.011 A 
ATOM     26  C   UNL     1      -8.492   1.812  -0.635  0.00  0.00    +0.024 A 
ATOM     27  C   UNL     1      -9.652   1.053  -0.744  0.00  0.00    +0.029 A 
ATOM     28  C   UNL     1      -9.582  -0.336  -0.734  0.00  0.00    +0.024 A 
ATOM     29  C   UNL     1      -8.361  -0.965  -0.620  0.00  0.00    +0.011 A 
BRANCH  27  30
ATOM     30  N   UNL     1     -10.889   1.685  -0.865  0.00  0.00    -0.336 N 
ATOM     31  C   UNL     1     -10.966   3.148  -0.875  0.00  0.00    +0.129 C 
ATOM     32  C   UNL     1     -12.112   0.887  -0.980  0.00  0.00    +0.129 C 
ENDBRANCH  27  30
ENDBRANCH  23  24
ENDBRANCH  20  22
ENDBRANCH   3  18
TORSDOF 5
