REMARK  Name = ZINC43262337
REMARK  7 active torsions:
REMARK  status: ('A' for Active; 'I' for Inactive)
REMARK    1  A    between atoms: C_4  and  C_7
REMARK    2  A    between atoms: C_7  and  C_8
REMARK    3  A    between atoms: C_7  and  C_29
REMARK    4  A    between atoms: C_8  and  C_9
REMARK    5  A    between atoms: C_9  and  N_10
REMARK    6  A    between atoms: C_11  and  C_13
REMARK    7  A    between atoms: C_19  and  C_22
REMARK                            x       y       z     vdW  Elec       q    Type
REMARK                         _______ _______ _______ _____ _____    ______ ____
ROOT
ATOM      1  N   UNL     1       4.628  -3.135   2.724  0.00  0.00    -0.317 N 
ATOM      2  C   UNL     1       5.600  -3.979   3.125  0.00  0.00    +0.200 C 
ATOM      3  O   UNL     1       6.603  -4.111   2.455  0.00  0.00    -0.278 OA
ATOM      4  H   UNL     1       3.826  -3.030   3.260  0.00  0.00    +0.149 HD
ENDROOT
BRANCH   2   5
ATOM      5  C   UNL     1       5.440  -4.760   4.403  0.00  0.00    +0.029 C 
ATOM      6  C   UNL     1       5.282  -3.788   5.578  0.00  0.00    +0.097 C 
ATOM      7  S   UNL     1       5.024  -4.761   7.094  0.00  0.00    +0.020 S 
ATOM      8  O   UNL     1       3.776  -5.438   7.016  0.00  0.00    -0.257 OA
ATOM      9  C   UNL     1       6.378  -5.976   7.023  0.00  0.00    +0.092 C 
ATOM     10  C   UNL     1       6.372  -6.621   5.632  0.00  0.00    -0.027 C 
ATOM     11  N   UNL     1       6.621  -5.601   4.611  0.00  0.00    +0.392 N 
ATOM     12  H   UNL     1       6.860  -6.055   3.743  0.00  0.00    -0.084 HD
ATOM     13  H   UNL     1       7.393  -5.021   4.903  0.00  0.00    -0.084 HD
BRANCH  10  14
ATOM     14  C   UNL     1       7.450  -7.671   5.563  0.00  0.00    -0.060 A 
ATOM     15  C   UNL     1       8.765  -7.298   5.353  0.00  0.00    +0.003 A 
ATOM     16  C   UNL     1       9.755  -8.261   5.289  0.00  0.00    +0.020 A 
ATOM     17  C   UNL     1       9.430  -9.598   5.436  0.00  0.00    +0.041 A 
ATOM     18  C   UNL     1       8.114  -9.970   5.645  0.00  0.00    +0.020 A 
ATOM     19  C   UNL     1       7.126  -9.006   5.715  0.00  0.00    +0.003 A 
ATOM     20 CL   UNL     1      10.673 -10.807   5.355  0.00  0.00    -0.084 Cl
ENDBRANCH  10  14
ENDBRANCH   2   5
BRANCH   1  21
ATOM     21  C   UNL     1       4.784  -2.376   1.481  0.00  0.00    +0.105 C 
BRANCH  21  22
ATOM     22  C   UNL     1       3.549  -1.500   1.261  0.00  0.00    +0.031 C 
BRANCH  22  23
ATOM     23  C   UNL     1       3.711  -0.707  -0.038  0.00  0.00    +0.050 C 
BRANCH  23  27
ATOM     24  C   UNL     1       0.430   1.992  -0.479  0.00  0.00    +0.000 A 
ATOM     25  C   UNL     1       1.727   2.459  -0.578  0.00  0.00    +0.000 A 
ATOM     26  C   UNL     1       2.789   1.586  -0.435  0.00  0.00    +0.004 A 
ATOM     27  C   UNL     1       2.554   0.245  -0.193  0.00  0.00    -0.040 A 
ATOM     28  C   UNL     1       1.256  -0.222  -0.093  0.00  0.00    +0.004 A 
ATOM     29  C   UNL     1       0.195   0.652  -0.237  0.00  0.00    +0.000 A 
ENDBRANCH  23  27
BRANCH  23  30
ATOM     30  C   UNL     1       3.740  -1.658  -1.207  0.00  0.00    -0.040 A 
ATOM     31  C   UNL     1       2.732  -2.591  -1.363  0.00  0.00    +0.004 A 
ATOM     32  C   UNL     1       2.758  -3.463  -2.435  0.00  0.00    +0.000 A 
ATOM     33  C   UNL     1       3.791  -3.401  -3.351  0.00  0.00    +0.000 A 
ATOM     34  C   UNL     1       4.798  -2.467  -3.196  0.00  0.00    +0.000 A 
ATOM     35  C   UNL     1       4.770  -1.592  -2.126  0.00  0.00    +0.004 A 
ENDBRANCH  23  30
ENDBRANCH  22  23
ENDBRANCH  21  22
ENDBRANCH   1  21
TORSDOF 7
