REMARK  Name = ZINC00952977
REMARK  4 active torsions:
REMARK  status: ('A' for Active; 'I' for Inactive)
REMARK    1  A    between atoms: C_1  and  C_2
REMARK    2  A    between atoms: C_3  and  C_27
REMARK    3  A    between atoms: N_20  and  C_21
REMARK    4  A    between atoms: C_21  and  C_22
REMARK                            x       y       z     vdW  Elec       q    Type
REMARK                         _______ _______ _______ _____ _____    ______ ____
ROOT
ATOM      1  C   UNL     1      -0.018   1.503   0.010  0.00  0.00    +0.045 C 
ATOM      2  C   UNL     1       0.002  -0.004   0.002  0.00  0.00    -0.026 A 
ATOM      3  C   UNL     1       0.006  -0.676  -1.159  0.00  0.00    -0.008 A 
ATOM      4  S   UNL     1       0.031  -2.384  -0.651  0.00  0.00    -0.073 S 
ATOM      5  C   UNL     1       0.036  -2.148   1.108  0.00  0.00    +0.116 A 
ATOM      6  C   UNL     1       0.024  -0.745   1.251  0.00  0.00    +0.077 A 
ATOM      7  C   UNL     1       0.030  -0.257   2.592  0.00  0.00    +0.283 A 
ATOM      8  O   UNL     1       0.015   0.944   2.807  0.00  0.00    -0.265 OA
ATOM      9  N   UNL     1       0.052  -1.130   3.620  0.00  0.00    -0.175 N 
ATOM     10  C   UNL     1       0.067  -2.477   3.386  0.00  0.00    +0.167 A 
ATOM     11  N   UNL     1       0.052  -2.956   2.154  0.00  0.00    -0.220 NA
ATOM     12  C   UNL     1       0.091  -3.401   4.528  0.00  0.00    +0.030 A 
ATOM     13  C   UNL     1       0.108  -4.784   4.354  0.00  0.00    +0.012 A 
ATOM     14  C   UNL     1       0.131  -5.608   5.459  0.00  0.00    +0.001 A 
ATOM     15  C   UNL     1       0.135  -5.073   6.740  0.00  0.00    +0.001 A 
ATOM     16  C   UNL     1       0.119  -3.709   6.934  0.00  0.00    +0.012 A 
ATOM     17  C   UNL     1       0.096  -2.857   5.830  0.00  0.00    +0.027 A 
ATOM     18  C   UNL     1       0.078  -1.397   5.981  0.00  0.00    +0.148 A 
ATOM     19  N   UNL     1       0.057  -0.628   4.928  0.00  0.00    -0.146 NA
ATOM     20  N   UNL     1       0.083  -0.832   7.248  0.00  0.00    -0.320 N 
ATOM     21  C   UNL     1      -0.009  -0.119  -2.560  0.00  0.00    +0.052 C 
ATOM     22  H   UNL     1       0.098  -1.402   8.033  0.00  0.00    +0.148 HD
ENDROOT
BRANCH  20  23
ATOM     23  C   UNL     1       0.065   0.625   7.401  0.00  0.00    +0.177 C 
BRANCH  23  24
ATOM     24  C   UNL     1       0.075   0.976   8.867  0.00  0.00    +0.122 A 
ATOM     25  C   UNL     1       1.171   1.179   9.620  0.00  0.00    +0.046 A 
ATOM     26  C   UNL     1       0.720   1.482  10.925  0.00  0.00    +0.041 A 
ATOM     27  C   UNL     1      -0.624   1.446  10.892  0.00  0.00    +0.195 A 
ATOM     28  O   UNL     1      -1.010   1.145   9.641  0.00  0.00    -0.466 OA
ENDBRANCH  23  24
ENDBRANCH  20  23
TORSDOF 2
