REMARK  Name = ZINC65548238
REMARK  6 active torsions:
REMARK  status: ('A' for Active; 'I' for Inactive)
REMARK    1  A    between atoms: C_1  and  C_2
REMARK    2  A    between atoms: C_5  and  C_8
REMARK    3  A    between atoms: C_10  and  C_13
REMARK    4  A    between atoms: C_13  and  N_14
REMARK    5  A    between atoms: N_14  and  C_15
REMARK    6  A    between atoms: C_18  and  N_21
REMARK                            x       y       z     vdW  Elec       q    Type
REMARK                         _______ _______ _______ _____ _____    ______ ____
ROOT
ATOM      1  C   UNL     1       0.102  -7.482   1.642  0.00  0.00    +0.200 C 
ENDROOT
BRANCH   1   4
ATOM      2  C   UNL     1       0.059  -4.256  -0.021  0.00  0.00    +0.202 A 
ATOM      3  N   UNL     1       0.070  -5.047   1.067  0.00  0.00    -0.190 NA
ATOM      4  C   UNL     1       0.086  -6.299   0.708  0.00  0.00    +0.245 A 
ATOM      5  O   UNL     1       0.086  -6.357  -0.630  0.00  0.00    -0.336 OA
ATOM      6  N   UNL     1       0.064  -5.015  -1.090  0.00  0.00    -0.056 NA
BRANCH   2  11
ATOM      7  C   UNL     1      -0.018   1.503   0.010  0.00  0.00    +0.044 C 
ATOM      8  C   UNL     1       0.002  -0.004   0.002  0.00  0.00    -0.050 A 
ATOM      9  C   UNL     1       0.006  -0.686  -1.201  0.00  0.00    +0.004 A 
ATOM     10  C   UNL     1       0.024  -2.067  -1.214  0.00  0.00    +0.012 A 
ATOM     11  C   UNL     1       0.040  -2.772  -0.013  0.00  0.00    +0.022 A 
ATOM     12  C   UNL     1       0.036  -2.080   1.196  0.00  0.00    +0.012 A 
ATOM     13  C   UNL     1       0.023  -0.700   1.198  0.00  0.00    +0.004 A 
ENDBRANCH   2  11
ENDBRANCH   1   4
BRANCH   1  14
ATOM     14  N   UNL     1      -1.274  -7.883   1.946  0.00  0.00    -0.335 N 
ATOM     15  H   UNL     1      -2.018  -7.398   1.556  0.00  0.00    +0.147 HD
BRANCH  14  16
ATOM     16  C   UNL     1      -1.515  -8.965   2.797  0.00  0.00    +0.028 A 
ATOM     17  C   UNL     1      -0.450  -9.657   3.360  0.00  0.00    +0.025 A 
ATOM     18  C   UNL     1      -0.688 -10.725   4.201  0.00  0.00    +0.030 A 
ATOM     19  C   UNL     1      -1.992 -11.108   4.484  0.00  0.00    +0.069 A 
ATOM     20  C   UNL     1      -3.057 -10.418   3.922  0.00  0.00    +0.030 A 
ATOM     21  C   UNL     1      -2.820  -9.346   3.085  0.00  0.00    +0.025 A 
BRANCH  19  22
ATOM     22  N   UNL     1      -2.233 -12.194   5.340  0.00  0.00    -0.200 N 
ATOM     23  C   UNL     1      -3.431 -12.695   5.710  0.00  0.00    +0.250 A 
ATOM     24  N   UNL     1      -3.200 -13.701   6.513  0.00  0.00    -0.116 NA
ATOM     25  N   UNL     1      -1.937 -13.871   6.674  0.00  0.00    -0.023 NA
ATOM     26  N   UNL     1      -1.280 -12.998   5.989  0.00  0.00    -0.039 NA
ENDBRANCH  19  22
ENDBRANCH  14  16
ENDBRANCH   1  14
TORSDOF 5
