REMARK  Name = ZINC13033853
REMARK  9 active torsions:
REMARK  status: ('A' for Active; 'I' for Inactive)
REMARK    1  A    between atoms: C_1  and  C_2
REMARK    2  A    between atoms: C_5  and  C_8
REMARK    3  A    between atoms: C_8  and  N_67
REMARK    4  A    between atoms: C_9  and  C_10
REMARK    5  A    between atoms: C_9  and  N_67
REMARK    6  A    between atoms: C_26  and  C_27
REMARK    7  A    between atoms: C_26  and  N_67
REMARK    8  A    between atoms: N_31  and  C_32
REMARK    9  A    between atoms: C_32  and  C_33
REMARK                            x       y       z     vdW  Elec       q    Type
REMARK                         _______ _______ _______ _____ _____    ______ ____
ROOT
ATOM      1  N   UNL     1       1.434   1.756  -0.235  0.00  0.00    +0.390 N 
ATOM      2  H   UNL     1       1.653   1.394  -1.171  0.00  0.00    -0.080 HD
ENDROOT
BRANCH   1   3
ATOM      3  C   UNL     1      -0.014   1.594   0.016  0.00  0.00    -0.042 C 
BRANCH   3   8
ATOM      4  C   UNL     1      -1.499  -3.876  -1.112  0.00  0.00    +0.044 C 
ATOM      5  C   UNL     1      -1.112  -2.450  -0.818  0.00  0.00    -0.050 A 
ATOM      6  C   UNL     1      -0.843  -2.060   0.481  0.00  0.00    +0.003 A 
ATOM      7  C   UNL     1      -0.488  -0.752   0.751  0.00  0.00    +0.002 A 
ATOM      8  C   UNL     1      -0.401   0.167  -0.278  0.00  0.00    -0.064 A 
ATOM      9  C   UNL     1      -0.674  -0.221  -1.576  0.00  0.00    +0.002 A 
ATOM     10  C   UNL     1      -1.026  -1.530  -1.847  0.00  0.00    +0.003 A 
ENDBRANCH   3   8
ENDBRANCH   1   3
BRANCH   1  11
ATOM     11  C   UNL     1       2.209   0.995   0.767  0.00  0.00    -0.036 C 
BRANCH  11  12
ATOM     12  C   UNL     1       3.635   0.882   0.293  0.00  0.00    +0.001 A 
ATOM     13  C   UNL     1       4.572   1.748   0.756  0.00  0.00    +0.017 A 
ATOM     14  C   UNL     1       5.948   1.609   0.281  0.00  0.00    +0.002 A 
ATOM     15  C   UNL     1       6.957   2.470   0.727  0.00  0.00    +0.059 A 
ATOM     16  C   UNL     1       8.245   2.318   0.258  0.00  0.00    +0.163 A 
ATOM     17  C   UNL     1       8.544   1.308  -0.661  0.00  0.00    +0.164 A 
ATOM     18  C   UNL     1       7.553   0.452  -1.108  0.00  0.00    +0.075 A 
ATOM     19  C   UNL     1       6.251   0.592  -0.646  0.00  0.00    +0.053 A 
ATOM     20  N   UNL     1       5.250  -0.252  -1.082  0.00  0.00    -0.322 N 
ATOM     21  H   UNL     1       5.459  -0.952  -1.720  0.00  0.00    +0.169 HD
ATOM     22  C   UNL     1       3.989  -0.119  -0.634  0.00  0.00    +0.251 A 
ATOM     23  O   UNL     1       3.130  -0.883  -1.041  0.00  0.00    -0.268 OA
ATOM     24  O   UNL     1       9.813   1.148  -1.126  0.00  0.00    -0.485 OA
ATOM     25  C   UNL     1      10.707   2.252  -0.948  0.00  0.00    +0.270 C 
ATOM     26  C   UNL     1      10.571   2.755   0.495  0.00  0.00    +0.270 C 
ATOM     27  O   UNL     1       9.215   3.166   0.699  0.00  0.00    -0.485 OA
ENDBRANCH  11  12
ENDBRANCH   1  11
BRANCH   1  28
ATOM     28  C   UNL     1       1.799   3.187  -0.176  0.00  0.00    +0.001 C 
BRANCH  28  29
ATOM     29  C   UNL     1       1.166   3.899  -1.343  0.00  0.00    +0.135 A 
ATOM     30  N   UNL     1       1.688   4.066  -2.534  0.00  0.00    -0.115 NA
ATOM     31  N   UNL     1       0.841   4.720  -3.252  0.00  0.00    -0.023 NA
ATOM     32  N   UNL     1      -0.204   4.982  -2.546  0.00  0.00    -0.044 NA
ATOM     33  N   UNL     1      -0.042   4.492  -1.364  0.00  0.00    -0.229 N 
BRANCH  33  34
ATOM     34  C   UNL     1      -0.993   4.568  -0.253  0.00  0.00    +0.178 C 
BRANCH  34  35
ATOM     35  C   UNL     1      -0.723   5.833   0.564  0.00  0.00    +0.140 C 
ATOM     36  C   UNL     1      -1.644   5.863   1.803  0.00  0.00    +0.035 C 
ATOM     37  C   UNL     1      -2.032   7.365   1.889  0.00  0.00    +0.031 C 
ATOM     38  C   UNL     1      -2.081   7.743   0.387  0.00  0.00    +0.160 C 
ATOM     39  O   UNL     1      -1.019   6.993  -0.223  0.00  0.00    -0.375 OA
ENDBRANCH  34  35
ENDBRANCH  33  34
ENDBRANCH  28  29
ENDBRANCH   1  28
TORSDOF 8
