REMARK  Name = ZINC66673981
REMARK  8 active torsions:
REMARK  status: ('A' for Active; 'I' for Inactive)
REMARK    1  A    between atoms: C_1  and  C_2
REMARK    2  A    between atoms: C_2  and  C_4
REMARK    3  A    between atoms: C_2  and  N_15
REMARK    4  A    between atoms: C_7  and  S_10
REMARK    5  A    between atoms: S_10  and  N_13
REMARK    6  A    between atoms: N_13  and  C_14
REMARK    7  A    between atoms: C_16  and  C_18
REMARK    8  A    between atoms: C_24  and  C_26
REMARK                            x       y       z     vdW  Elec       q    Type
REMARK                         _______ _______ _______ _____ _____    ______ ____
ROOT
ATOM      1  C   UNL     1      -0.017   1.455   0.101  0.00  0.00    +0.033 C 
ATOM      2  C   UNL     1      -0.014  -0.075   0.065  0.00  0.00    +0.100 C 
ENDROOT
BRANCH   2   3
ATOM      3  C   UNL     1       0.700  -0.604   1.282  0.00  0.00    -0.027 A 
ATOM      4  C   UNL     1       0.039  -0.673   2.494  0.00  0.00    +0.007 A 
ATOM      5  C   UNL     1       0.694  -1.159   3.611  0.00  0.00    +0.029 A 
ATOM      6  C   UNL     1       2.008  -1.575   3.515  0.00  0.00    +0.105 A 
ATOM      7  C   UNL     1       2.668  -1.507   2.303  0.00  0.00    +0.029 A 
ATOM      8  C   UNL     1       2.013  -1.025   1.185  0.00  0.00    +0.007 A 
BRANCH   6   9
ATOM      9  S   UNL     1       2.843  -2.193   4.939  0.00  0.00    +0.058 S 
ATOM     10  O   UNL     1       4.232  -2.007   4.708  0.00  0.00    -0.153 OA
ATOM     11  O   UNL     1       2.178  -1.645   6.069  0.00  0.00    -0.153 OA
BRANCH   9  12
ATOM     12  N   UNL     1       2.586  -3.829   4.986  0.00  0.00    -0.193 NA
ATOM     13  C   UNL     1       3.129  -4.686   3.930  0.00  0.00    +0.127 C 
ATOM     14  H   UNL     1       2.076  -4.218   5.713  0.00  0.00    +0.148 HD
ENDBRANCH   9  12
ENDBRANCH   6   9
ENDBRANCH   2   3
BRANCH   2  15
ATOM     15  N   UNL     1      -1.394  -0.566   0.056  0.00  0.00    -0.309 N 
ATOM     16  C   UNL     1      -2.065  -0.669  -1.109  0.00  0.00    +0.217 C 
ATOM     17  O   UNL     1      -1.526  -0.355  -2.149  0.00  0.00    -0.275 OA
ATOM     18  H   UNL     1      -1.825  -0.817   0.887  0.00  0.00    +0.149 HD
BRANCH  16  19
ATOM     19  C   UNL     1      -3.484  -1.175  -1.119  0.00  0.00    +0.086 C 
ATOM     20  C   UNL     1      -3.589  -2.383  -2.051  0.00  0.00    +0.013 C 
ATOM     21  C   UNL     1      -3.185  -1.970  -3.468  0.00  0.00    +0.001 C 
ATOM     22  C   UNL     1      -4.118  -0.862  -3.962  0.00  0.00    +0.001 C 
ATOM     23  C   UNL     1      -4.013   0.346  -3.029  0.00  0.00    +0.013 C 
ATOM     24  C   UNL     1      -4.417  -0.067  -1.612  0.00  0.00    +0.105 C 
BRANCH  24  25
ATOM     25  C   UNL     1      -4.312   1.142  -0.680  0.00  0.00    +0.394 C 
ATOM     26  F   UNL     1      -3.031   1.695  -0.776  0.00  0.00    -0.170 F 
ATOM     27  F   UNL     1      -5.263   2.099  -1.048  0.00  0.00    -0.170 F 
ATOM     28  F   UNL     1      -4.547   0.735   0.638  0.00  0.00    -0.170 F 
ENDBRANCH  24  25
ENDBRANCH  16  19
ENDBRANCH   2  15
TORSDOF 6
