REMARK  Name = ZINC12186442
REMARK  6 active torsions:
REMARK  status: ('A' for Active; 'I' for Inactive)
REMARK    1  A    between atoms: C_1  and  C_2
REMARK    2  A    between atoms: C_5  and  C_19
REMARK    3  A    between atoms: N_11  and  C_13
REMARK    4  A    between atoms: C_19  and  N_51
REMARK    5  A    between atoms: C_20  and  C_21
REMARK    6  A    between atoms: C_20  and  N_51
REMARK                            x       y       z     vdW  Elec       q    Type
REMARK                         _______ _______ _______ _____ _____    ______ ____
ROOT
ATOM      1  C   UNL     1       0.357  12.426  -5.145  0.00  0.00    +0.068 C 
ATOM      2  C   UNL     1       1.583  12.107  -4.329  0.00  0.00    +0.070 A 
ATOM      3  C   UNL     1       1.605  11.373  -3.119  0.00  0.00    +0.040 A 
ATOM      4  C   UNL     1       0.601  10.752  -2.342  0.00  0.00    +0.020 A 
ATOM      5  C   UNL     1       0.953  10.107  -1.199  0.00  0.00    +0.001 A 
ATOM      6  C   UNL     1       2.302  10.068  -0.801  0.00  0.00    +0.252 A 
ATOM      7  O   UNL     1       2.609   9.490   0.229  0.00  0.00    -0.268 OA
ATOM      8  N   UNL     1       3.259  10.654  -1.545  0.00  0.00    -0.307 N 
ATOM      9  H   UNL     1       4.184  10.614  -1.257  0.00  0.00    +0.170 HD
ATOM     10  C   UNL     1       2.936  11.312  -2.700  0.00  0.00    +0.145 A 
ATOM     11  N   UNL     1       3.671  11.983  -3.625  0.00  0.00    -0.216 N 
ATOM     12  N   UNL     1       2.804  12.460  -4.615  0.00  0.00    -0.169 NA
ENDROOT
BRANCH  11  13
ATOM     13  C   UNL     1       5.060  12.167  -3.594  0.00  0.00    +0.068 A 
ATOM     14  C   UNL     1       5.711  12.341  -2.380  0.00  0.00    +0.028 A 
ATOM     15  C   UNL     1       7.081  12.517  -2.351  0.00  0.00    +0.002 A 
ATOM     16  C   UNL     1       7.802  12.531  -3.531  0.00  0.00    +0.000 A 
ATOM     17  C   UNL     1       7.156  12.362  -4.742  0.00  0.00    +0.002 A 
ATOM     18  C   UNL     1       5.787  12.181  -4.776  0.00  0.00    +0.028 A 
ENDBRANCH  11  13
BRANCH   5  19
ATOM     19  C   UNL     1      -0.101   9.438  -0.355  0.00  0.00    -0.041 C 
BRANCH  19  20
ATOM     20  N   UNL     1      -0.182   8.012  -0.723  0.00  0.00    +0.384 N 
ATOM     21  H   UNL     1       0.729   7.568  -0.560  0.00  0.00    -0.085 HD
ATOM     22  H   UNL     1      -0.428   7.932  -1.717  0.00  0.00    -0.085 HD
BRANCH  20  23
ATOM     23  C   UNL     1      -1.208   7.331   0.088  0.00  0.00    -0.034 C 
BRANCH  23  24
ATOM     24  C   UNL     1      -1.270   5.856  -0.315  0.00  0.00    +0.194 C 
ATOM     25  C   UNL     1      -2.417   5.163   0.432  0.00  0.00    +0.271 C 
ATOM     26  O   UNL     1      -2.437   3.785   0.043  0.00  0.00    -0.485 OA
ATOM     27  C   UNL     1      -1.241   3.136   0.031  0.00  0.00    +0.162 A 
ATOM     28  C   UNL     1      -1.219   1.749   0.017  0.00  0.00    +0.049 A 
ATOM     29  C   UNL     1      -0.013   1.076   0.008  0.00  0.00    +0.004 A 
ATOM     30  C   UNL     1       1.176   1.782   0.000  0.00  0.00    +0.004 A 
ATOM     31  C   UNL     1       1.161   3.164   0.009  0.00  0.00    +0.049 A 
ATOM     32  C   UNL     1      -0.046   3.846   0.026  0.00  0.00    +0.162 A 
ATOM     33  O   UNL     1      -0.045   5.207   0.043  0.00  0.00    -0.484 OA
ENDBRANCH  23  24
ENDBRANCH  20  23
ENDBRANCH  19  20
ENDBRANCH   5  19
TORSDOF 5
