REMARK  Name = ZINC39659151
REMARK  7 active torsions:
REMARK  status: ('A' for Active; 'I' for Inactive)
REMARK    1  A    between atoms: C_1  and  C_2
REMARK    2  A    between atoms: C_2  and  C_36
REMARK    3  A    between atoms: C_5  and  C_8
REMARK    4  A    between atoms: C_8  and  N_9
REMARK    5  A    between atoms: C_10  and  C_12
REMARK    6  A    between atoms: C_23  and  C_25
REMARK    7  A    between atoms: C_29  and  C_31
REMARK                            x       y       z     vdW  Elec       q    Type
REMARK                         _______ _______ _______ _____ _____    ______ ____
ROOT
ATOM      1  C   UNL     1       2.884  -3.474   4.842  0.00  0.00    +0.100 C 
ATOM      2  C   UNL     1       3.554  -4.675   4.138  0.00  0.00    +0.121 C 
ATOM      3  N   UNL     1       4.475  -5.237   5.154  0.00  0.00    -0.296 N 
ATOM      4  C   UNL     1       3.723  -5.140   6.428  0.00  0.00    +0.115 C 
ATOM      5  C   UNL     1       2.995  -3.783   6.344  0.00  0.00    -0.004 C 
ATOM      6  C   UNL     1       1.607  -3.890   6.967  0.00  0.00    -0.010 C 
ATOM      7  C   UNL     1       1.744  -4.140   8.471  0.00  0.00    -0.082 C 
ATOM      8  N   UNL     1       2.494  -3.038   9.086  0.00  0.00    +0.379 N 
ATOM      9  C   UNL     1       3.860  -3.000   8.548  0.00  0.00    -0.082 C 
ATOM     10  C   UNL     1       3.811  -2.702   7.047  0.00  0.00    -0.010 C 
ATOM     11  C   UNL     1       5.716  -5.727   4.963  0.00  0.00    +0.247 C 
ATOM     12  O   UNL     1       6.251  -5.621   3.877  0.00  0.00    -0.270 OA
ATOM     13  H   UNL     1       2.031  -2.164   8.884  0.00  0.00    -0.086 HD
ATOM     14  H   UNL     1       2.531  -3.174  10.085  0.00  0.00    -0.086 HD
ENDROOT
BRANCH  11  15
ATOM     15  C   UNL     1       6.428  -6.391   6.075  0.00  0.00    +0.038 A 
ATOM     16  C   UNL     1       5.711  -6.902   7.159  0.00  0.00    +0.016 A 
ATOM     17  C   UNL     1       6.380  -7.521   8.194  0.00  0.00    +0.039 A 
ATOM     18  C   UNL     1       7.761  -7.636   8.159  0.00  0.00    +0.135 A 
ATOM     19  C   UNL     1       8.477  -7.131   7.085  0.00  0.00    +0.091 A 
ATOM     20  C   UNL     1       7.818  -6.515   6.042  0.00  0.00    +0.028 A 
ATOM     21  F   UNL     1       8.412  -8.243   9.175  0.00  0.00    -0.205 F 
BRANCH  19  22
ATOM     22  C   UNL     1       9.978  -7.260   7.054  0.00  0.00    +0.420 C 
ATOM     23  F   UNL     1      10.472  -6.679   5.881  0.00  0.00    -0.166 F 
ATOM     24  F   UNL     1      10.525  -6.606   8.163  0.00  0.00    -0.166 F 
ATOM     25  F   UNL     1      10.331  -8.613   7.089  0.00  0.00    -0.166 F 
ENDBRANCH  19  22
ENDBRANCH  11  15
BRANCH   1  27
ATOM     26  N   UNL     1       0.833  -2.164   4.399  0.00  0.00    -0.312 N 
ATOM     27  C   UNL     1       1.437  -3.368   4.434  0.00  0.00    +0.218 C 
ATOM     28  O   UNL     1       0.815  -4.367   4.139  0.00  0.00    -0.275 OA
ATOM     29  H   UNL     1       1.330  -1.365   4.635  0.00  0.00    +0.149 HD
BRANCH  26  30
ATOM     30  C   UNL     1      -0.574  -2.061   4.003  0.00  0.00    +0.138 C 
BRANCH  30  35
ATOM     31  C   UNL     1      -2.759   0.993   6.713  0.00  0.00    +0.074 C 
ATOM     32  C   UNL     1      -1.989   0.973   5.391  0.00  0.00    +0.165 C 
ATOM     33  O   UNL     1      -2.902   0.762   4.306  0.00  0.00    -0.347 OA
ATOM     34  C   UNL     1      -2.495  -0.446   3.632  0.00  0.00    +0.196 C 
ATOM     35  C   UNL     1      -1.010  -0.595   4.046  0.00  0.00    +0.164 C 
ATOM     36  O   UNL     1      -1.032  -0.100   5.406  0.00  0.00    -0.342 OA
ATOM     37  C   UNL     1      -1.264   2.306   5.198  0.00  0.00    +0.074 C 
ENDBRANCH  30  35
ENDBRANCH  26  30
ENDBRANCH   1  27
TORSDOF 5
