REMARK  Name = ZINC14996880
REMARK  11 active torsions:
REMARK  status: ('A' for Active; 'I' for Inactive)
REMARK    1  A    between atoms: C_1  and  C_2
REMARK    2  A    between atoms: C_3  and  C_7
REMARK    3  A    between atoms: C_7  and  N_8
REMARK    4  A    between atoms: C_9  and  C_11
REMARK    5  A    between atoms: C_14  and  S_27
REMARK    6  A    between atoms: C_17  and  C_18
REMARK    7  A    between atoms: C_17  and  N_58
REMARK    8  A    between atoms: C_21  and  O_25
REMARK    9  A    between atoms: C_23  and  O_24
REMARK   10  A    between atoms: O_25  and  C_26
REMARK   11  A    between atoms: S_27  and  C_28
REMARK                            x       y       z     vdW  Elec       q    Type
REMARK                         _______ _______ _______ _____ _____    ______ ____
ROOT
ATOM      1  C   UNL     1      -4.216  -0.013  -1.418  0.00  0.00    +0.021 C 
ATOM      2  C   UNL     1      -4.901   0.366  -2.749  0.00  0.00    +0.006 C 
ATOM      3  C   UNL     1      -4.402   1.791  -3.064  0.00  0.00    +0.034 C 
ATOM      4  C   UNL     1      -3.458   2.154  -1.897  0.00  0.00    -0.063 C 
ATOM      5  N   UNL     1      -3.036   0.847  -1.381  0.00  0.00    +0.391 N 
ATOM      6  H   UNL     1      -2.298   0.455  -1.979  0.00  0.00    -0.080 HD
ENDROOT
BRANCH   1   8
ATOM      7  N   UNL     1      -4.785  -2.420  -1.468  0.00  0.00    -0.311 N 
ATOM      8  C   UNL     1      -3.830  -1.470  -1.421  0.00  0.00    +0.200 C 
ATOM      9  O   UNL     1      -2.661  -1.787  -1.382  0.00  0.00    -0.278 OA
ATOM     10  H   UNL     1      -5.721  -2.166  -1.499  0.00  0.00    +0.149 HD
BRANCH   7  11
ATOM     11  C   UNL     1      -4.410  -3.836  -1.471  0.00  0.00    +0.165 C 
BRANCH  11  14
ATOM     12  C   UNL     1      -5.819  -4.830  -4.108  0.00  0.00    +0.071 C 
ATOM     13  C   UNL     1      -6.284  -5.130  -2.706  0.00  0.00    +0.106 A 
ATOM     14  C   UNL     1      -5.654  -4.685  -1.527  0.00  0.00    +0.124 A 
ATOM     15  N   UNL     1      -6.309  -5.125  -0.495  0.00  0.00    -0.052 NA
ATOM     16  O   UNL     1      -7.411  -5.877  -0.981  0.00  0.00    -0.242 OA
ATOM     17  N   UNL     1      -7.328  -5.838  -2.397  0.00  0.00    -0.054 NA
ENDBRANCH  11  14
ENDBRANCH   7  11
ENDBRANCH   1   8
BRANCH   5  18
ATOM     18  C   UNL     1      -2.517   0.979   0.016  0.00  0.00    -0.038 C 
BRANCH  18  19
ATOM     19  C   UNL     1      -1.169   1.654   0.009  0.00  0.00    -0.022 A 
ATOM     20  C   UNL     1      -1.061   2.983   0.373  0.00  0.00    +0.009 A 
ATOM     21  C   UNL     1       0.174   3.602   0.374  0.00  0.00    +0.046 A 
ATOM     22  C   UNL     1       1.308   2.893   0.002  0.00  0.00    +0.124 A 
ATOM     23  C   UNL     1       1.201   1.562  -0.369  0.00  0.00    +0.091 A 
ATOM     24  C   UNL     1      -0.040   0.942  -0.368  0.00  0.00    +0.122 A 
BRANCH  24  25
ATOM     25  O   UNL     1      -0.148  -0.363  -0.731  0.00  0.00    -0.506 OA
ATOM     26  H   UNL     1       0.020  -0.987  -0.011  0.00  0.00    +0.292 HD
ENDBRANCH  24  25
BRANCH  22  27
ATOM     27  O   UNL     1       2.522   3.503   0.003  0.00  0.00    -0.495 OA
ATOM     28  C   UNL     1       2.558   4.877   0.397  0.00  0.00    +0.277 C 
ENDBRANCH  22  27
ENDBRANCH  18  19
ENDBRANCH   5  18
BRANCH   3  29
ATOM     29  S   UNL     1      -5.798   2.948  -3.128  0.00  0.00    -0.124 S 
BRANCH  29  30
ATOM     30  C   UNL     1      -5.069   4.468  -3.638  0.00  0.00    +0.008 A 
ATOM     31  C   UNL     1      -3.703   4.539  -3.877  0.00  0.00    +0.017 A 
ATOM     32  C   UNL     1      -3.135   5.731  -4.282  0.00  0.00    +0.039 A 
ATOM     33  C   UNL     1      -3.924   6.858  -4.439  0.00  0.00    +0.123 A 
ATOM     34  C   UNL     1      -5.286   6.791  -4.196  0.00  0.00    +0.039 A 
ATOM     35  C   UNL     1      -5.860   5.600  -3.796  0.00  0.00    +0.017 A 
ATOM     36  F   UNL     1      -3.365   8.024  -4.830  0.00  0.00    -0.205 F 
ENDBRANCH  29  30
ENDBRANCH   3  29
TORSDOF 9
