REMARK  Name = ZINC09872499
REMARK  8 active torsions:
REMARK  status: ('A' for Active; 'I' for Inactive)
REMARK    1  A    between atoms: C_1  and  C_2
REMARK    2  A    between atoms: C_2  and  C_3
REMARK    3  A    between atoms: C_2  and  C_4
REMARK    4  A    between atoms: C_4  and  C_6
REMARK    5  A    between atoms: C_4  and  N_13
REMARK    6  A    between atoms: C_19  and  N_22
REMARK    7  A    between atoms: N_22  and  S_23
REMARK    8  A    between atoms: S_23  and  C_26
REMARK                            x       y       z     vdW  Elec       q    Type
REMARK                         _______ _______ _______ _____ _____    ______ ____
ROOT
ATOM      1  N   UNL     1      -4.685   6.443  -2.721  0.00  0.00    -0.292 N 
ATOM      2  C   UNL     1      -3.530   6.132  -3.340  0.00  0.00    +0.303 C 
ATOM      3  O   UNL     1      -3.371   6.419  -4.511  0.00  0.00    -0.253 OA
ATOM      4  N   UNL     1      -2.549   5.503  -2.662  0.00  0.00    -0.286 N 
ATOM      5  C   UNL     1      -1.329   5.059  -3.349  0.00  0.00    +0.111 C 
ATOM      6  C   UNL     1      -1.118   3.569  -3.066  0.00  0.00    +0.039 C 
ATOM      7  C   UNL     1      -1.107   3.337  -1.554  0.00  0.00    +0.080 C 
ATOM      8  C   UNL     1      -2.455   3.755  -0.962  0.00  0.00    +0.039 C 
ATOM      9  C   UNL     1      -2.681   5.247  -1.221  0.00  0.00    +0.111 C 
ATOM     10  H   UNL     1      -4.788   6.272  -1.771  0.00  0.00    +0.151 HD
ENDROOT
BRANCH   7  11
ATOM     11  N   UNL     1      -0.873   1.917  -1.279  0.00  0.00    -0.186 NA
ATOM     12  H   UNL     1      -1.236   1.242  -1.873  0.00  0.00    +0.148 HD
BRANCH  11  13
ATOM     13  S   UNL     1       0.013   1.465   0.045  0.00  0.00    +0.065 S 
ATOM     14  O   UNL     1       0.039   0.044   0.051  0.00  0.00    -0.153 OA
ATOM     15  O   UNL     1       1.199   2.248   0.027  0.00  0.00    -0.153 OA
BRANCH  13  16
ATOM     16  C   UNL     1      -0.894   1.958   1.472  0.00  0.00    +0.142 A 
ATOM     17  C   UNL     1      -1.825   1.265   2.174  0.00  0.00    +0.036 A 
ATOM     18  C   UNL     1      -2.413   1.858   3.275  0.00  0.00    +0.010 A 
ATOM     19  C   UNL     1      -2.043   3.116   3.620  0.00  0.00    +0.047 A 
ATOM     20  S   UNL     1      -0.822   3.497   2.375  0.00  0.00    -0.077 S 
ENDBRANCH  13  16
ENDBRANCH  11  13
ENDBRANCH   7  11
BRANCH   1  21
ATOM     21  C   UNL     1      -5.787   7.039  -3.481  0.00  0.00    +0.107 C 
BRANCH  21  22
ATOM     22  C   UNL     1      -7.093   6.736  -2.794  0.00  0.00    -0.027 A 
ATOM     23  C   UNL     1      -7.175   6.777  -1.415  0.00  0.00    +0.008 A 
ATOM     24  C   UNL     1      -8.374   6.505  -0.784  0.00  0.00    +0.038 A 
ATOM     25  C   UNL     1      -9.491   6.179  -1.534  0.00  0.00    +0.123 A 
ATOM     26  C   UNL     1      -9.407   6.132  -2.915  0.00  0.00    +0.038 A 
ATOM     27  C   UNL     1      -8.209   6.411  -3.544  0.00  0.00    +0.008 A 
ATOM     28  F   UNL     1     -10.662   5.906  -0.918  0.00  0.00    -0.205 F 
ENDBRANCH  21  22
BRANCH  21  30
ATOM     29  C   UNL     1      -5.447   9.123  -2.146  0.00  0.00    +0.009 C 
ATOM     30  C   UNL     1      -5.591   8.555  -3.559  0.00  0.00    +0.008 C 
ATOM     31  C   UNL     1      -4.328   8.865  -4.364  0.00  0.00    +0.009 C 
ENDBRANCH  21  30
ENDBRANCH   1  21
TORSDOF 6
