REMARK  Name = ZINC33271595
REMARK  8 active torsions:
REMARK  status: ('A' for Active; 'I' for Inactive)
REMARK    1  A    between atoms: C_1  and  C_2
REMARK    2  A    between atoms: C_2  and  O_3
REMARK    3  A    between atoms: O_3  and  C_4
REMARK    4  A    between atoms: C_6  and  C_11
REMARK    5  A    between atoms: C_9  and  O_10
REMARK    6  A    between atoms: C_19  and  C_33
REMARK    7  A    between atoms: C_27  and  O_31
REMARK    8  A    between atoms: O_31  and  C_32
REMARK                            x       y       z     vdW  Elec       q    Type
REMARK                         _______ _______ _______ _____ _____    ______ ____
ROOT
ATOM      1  C   UNL     1      -0.670   6.476   0.044  0.00  0.00    +0.063 C 
ATOM      2  C   UNL     1      -0.640   7.356   1.298  0.00  0.00    +0.109 C 
ATOM      3  C   UNL     1      -1.582   8.520   1.168  0.00  0.00    +0.219 C 
ATOM      4  O   UNL     1      -2.213   8.876   2.140  0.00  0.00    -0.275 OA
ATOM      5  N   UNL     1      -1.746   9.182   0.003  0.00  0.00    -0.270 N 
ATOM      6  C   UNL     1      -1.169   8.642  -1.145  0.00  0.00    +0.135 A 
ATOM      7  C   UNL     1      -0.650   7.375  -1.166  0.00  0.00    +0.023 A 
ATOM      8  C   UNL     1      -0.151   7.137  -2.439  0.00  0.00    +0.066 A 
ATOM      9  N   UNL     1      -0.365   8.204  -3.172  0.00  0.00    -0.168 NA
ATOM     10  N   UNL     1      -1.016   9.165  -2.381  0.00  0.00    -0.193 N 
ATOM     11  C   UNL     1      -1.429  10.427  -2.796  0.00  0.00    +0.196 A 
ATOM     12  N   UNL     1      -2.042  11.358  -2.107  0.00  0.00    -0.221 NA
ATOM     13  C   UNL     1      -2.382  12.552  -2.641  0.00  0.00    +0.081 A 
ATOM     14  C   UNL     1      -3.037  13.636  -2.011  0.00  0.00    +0.032 A 
ATOM     15  C   UNL     1      -3.316  14.777  -2.695  0.00  0.00    +0.048 A 
ATOM     16  C   UNL     1      -2.972  14.927  -4.036  0.00  0.00    +0.121 A 
ATOM     17  C   UNL     1      -2.329  13.886  -4.689  0.00  0.00    +0.063 A 
ATOM     18  C   UNL     1      -2.045  12.731  -4.002  0.00  0.00    +0.044 A 
ATOM     19  S   UNL     1      -1.264  11.187  -4.405  0.00  0.00    -0.048 S 
ATOM     20  C   UNL     1       0.522   5.870  -2.900  0.00  0.00    +0.068 C 
ATOM     21  H   UNL     1      -2.322  10.119  -0.021  0.00  0.00    +0.156 HD
ENDROOT
BRANCH   1  24
ATOM     22  C   UNL     1       1.482   3.371   0.006  0.00  0.00    +0.162 A 
ATOM     23  C   UNL     1       0.373   4.201   0.021  0.00  0.00    +0.053 A 
ATOM     24  C   UNL     1       0.537   5.574   0.027  0.00  0.00    -0.036 A 
ATOM     25  C   UNL     1       1.806   6.121   0.018  0.00  0.00    +0.008 A 
ATOM     26  C   UNL     1       2.917   5.298   0.003  0.00  0.00    +0.049 A 
ATOM     27  C   UNL     1       2.760   3.922   0.003  0.00  0.00    +0.158 A 
BRANCH  27  28
ATOM     28  O   UNL     1       3.851   3.111  -0.007  0.00  0.00    -0.503 OA
ATOM     29  H   UNL     1       4.861   3.548  -0.009  0.00  0.00    +0.292 HD
ENDBRANCH  27  28
BRANCH  22  30
ATOM     30  O   UNL     1       1.322   2.020   0.000  0.00  0.00    -0.489 OA
BRANCH  30  32
ATOM     31  C   UNL     1       0.002  -0.004   0.002  0.00  0.00    +0.048 C 
ATOM     32  C   UNL     1      -0.019   1.526   0.010  0.00  0.00    +0.226 C 
ENDBRANCH  30  32
ENDBRANCH  22  30
ENDBRANCH   1  24
BRANCH  16  33
ATOM     33  O   UNL     1      -3.263  16.078  -4.697  0.00  0.00    -0.495 OA
ATOM     34  C   UNL     1      -3.926  17.103  -3.953  0.00  0.00    +0.277 C 
ENDBRANCH  16  33
TORSDOF 5
