REMARK  Name = ZINC39533951
REMARK  11 active torsions:
REMARK  status: ('A' for Active; 'I' for Inactive)
REMARK    1  A    between atoms: C_1  and  C_2
REMARK    2  A    between atoms: C_2  and  O_3
REMARK    3  A    between atoms: O_3  and  N_4
REMARK    4  A    between atoms: N_4  and  C_5
REMARK    5  A    between atoms: C_5  and  C_6
REMARK    6  A    between atoms: C_6  and  C_8
REMARK    7  A    between atoms: C_6  and  N_21
REMARK    8  A    between atoms: C_11  and  C_14
REMARK    9  A    between atoms: C_19  and  O_20
REMARK   10  A    between atoms: C_25  and  C_28
REMARK   11  A    between atoms: C_28  and  C_29
REMARK                            x       y       z     vdW  Elec       q    Type
REMARK                         _______ _______ _______ _____ _____    ______ ____
ROOT
ATOM      1  C   UNL     1      -2.786  -3.922   0.069  0.00  0.00    +0.103 C 
ENDROOT
BRANCH   1   2
ATOM      2  N   UNL     1      -1.922  -4.421  -1.009  0.00  0.00    -0.297 NA
ATOM      3  C   UNL     1      -2.010  -5.884  -1.121  0.00  0.00    +0.066 C 
ATOM      4  C   UNL     1      -1.143  -6.356  -2.291  0.00  0.00    -0.067 C 
ATOM      5  N   UNL     1       0.250  -5.948  -2.065  0.00  0.00    +0.383 N 
ATOM      6  C   UNL     1       0.325  -4.483  -1.979  0.00  0.00    -0.053 C 
ATOM      7  C   UNL     1      -0.529  -3.996  -0.807  0.00  0.00    +0.069 C 
ATOM      8  H   UNL     1       0.582  -6.352  -1.202  0.00  0.00    -0.085 HD
ATOM      9  H   UNL     1       0.823  -6.270  -2.830  0.00  0.00    -0.085 HD
BRANCH   6  10
ATOM     10  C   UNL     1       1.779  -4.059  -1.762  0.00  0.00    +0.020 C 
BRANCH  10  11
ATOM     11  C   UNL     1       2.597  -4.431  -2.972  0.00  0.00    -0.049 A 
ATOM     12  C   UNL     1       3.205  -5.670  -3.041  0.00  0.00    +0.003 A 
ATOM     13  C   UNL     1       3.956  -6.011  -4.150  0.00  0.00    +0.000 A 
ATOM     14  C   UNL     1       4.097  -5.113  -5.191  0.00  0.00    +0.000 A 
ATOM     15  C   UNL     1       3.488  -3.874  -5.123  0.00  0.00    +0.000 A 
ATOM     16  C   UNL     1       2.734  -3.535  -4.015  0.00  0.00    +0.003 A 
ENDBRANCH  10  11
ENDBRANCH   6  10
ENDBRANCH   1   2
BRANCH   1  17
ATOM     17  C   UNL     1      -4.215  -4.311  -0.212  0.00  0.00    -0.029 A 
ATOM     18  C   UNL     1      -4.704  -4.250  -1.505  0.00  0.00    +0.006 A 
ATOM     19  C   UNL     1      -6.011  -4.604  -1.768  0.00  0.00    +0.009 A 
ATOM     20  C   UNL     1      -6.839  -5.025  -0.729  0.00  0.00    -0.014 A 
ATOM     21  C   UNL     1      -6.341  -5.085   0.571  0.00  0.00    +0.009 A 
ATOM     22  C   UNL     1      -5.030  -4.733   0.822  0.00  0.00    +0.006 A 
BRANCH  20  23
ATOM     23  C   UNL     1      -8.246  -5.406  -1.006  0.00  0.00    +0.024 A 
ATOM     24  C   UNL     1      -9.066  -4.562  -1.750  0.00  0.00    +0.012 A 
ATOM     25  C   UNL     1     -10.374  -4.921  -2.005  0.00  0.00    +0.001 A 
ATOM     26  C   UNL     1     -10.874  -6.119  -1.523  0.00  0.00    +0.004 A 
ATOM     27  C   UNL     1     -10.069  -6.963  -0.783  0.00  0.00    +0.046 A 
ATOM     28  C   UNL     1      -8.752  -6.618  -0.525  0.00  0.00    +0.125 A 
BRANCH  28  29
ATOM     29  O   UNL     1      -7.958  -7.450   0.197  0.00  0.00    -0.506 OA
ATOM     30  H   UNL     1      -7.983  -7.289   1.150  0.00  0.00    +0.292 HD
ENDBRANCH  28  29
ENDBRANCH  20  23
ENDBRANCH   1  17
BRANCH   1  31
ATOM     31  C   UNL     1      -2.678  -2.398   0.146  0.00  0.00    +0.134 C 
BRANCH  31  32
ATOM     32  N   UNL     1      -3.481  -1.907   1.274  0.00  0.00    -0.199 NA
ATOM     33  H   UNL     1      -3.144  -2.282   2.148  0.00  0.00    +0.154 HD
BRANCH  32  34
ATOM     34  O   UNL     1      -3.502  -0.444   1.304  0.00  0.00    -0.300 OA
BRANCH  34  36
ATOM     35  C   UNL     1      -4.219   1.632   2.313  0.00  0.00    +0.036 C 
ATOM     36  C   UNL     1      -4.267   0.104   2.379  0.00  0.00    +0.182 C 
ENDBRANCH  34  36
ENDBRANCH  32  34
ENDBRANCH  31  32
ENDBRANCH   1  31
TORSDOF 10
