REMARK  Name = ZINC39682264
REMARK  10 active torsions:
REMARK  status: ('A' for Active; 'I' for Inactive)
REMARK    1  A    between atoms: C_1  and  C_2
REMARK    2  A    between atoms: C_2  and  C_3
REMARK    3  A    between atoms: C_3  and  C_4
REMARK    4  A    between atoms: C_4  and  C_6
REMARK    5  A    between atoms: C_4  and  C_7
REMARK    6  A    between atoms: C_11  and  C_20
REMARK    7  A    between atoms: N_22  and  C_23
REMARK    8  A    between atoms: C_23  and  C_25
REMARK    9  A    between atoms: C_23  and  C_29
REMARK   10  A    between atoms: C_25  and  C_26
REMARK                            x       y       z     vdW  Elec       q    Type
REMARK                         _______ _______ _______ _____ _____    ______ ____
ROOT
ATOM      1  C   UNL     1      -2.612  -3.655  -0.881  0.00  0.00    +0.218 C 
ATOM      2  O   UNL     1      -3.401  -2.738  -0.971  0.00  0.00    -0.275 OA
ATOM      3  N   UNL     1      -3.042  -4.882  -0.528  0.00  0.00    -0.300 N 
ATOM      4  C   UNL     1      -2.236  -6.114  -0.360  0.00  0.00    +0.121 C 
ATOM      5  C   UNL     1      -2.843  -6.812   0.877  0.00  0.00    +0.100 C 
ATOM      6  C   UNL     1      -4.282  -6.279   0.963  0.00  0.00    -0.004 C 
ATOM      7  C   UNL     1      -4.429  -5.304  -0.214  0.00  0.00    +0.115 C 
ATOM      8  C   UNL     1      -4.495  -5.541   2.281  0.00  0.00    -0.010 C 
ATOM      9  C   UNL     1      -5.949  -5.069   2.367  0.00  0.00    -0.082 C 
ATOM     10  N   UNL     1      -6.847  -6.227   2.281  0.00  0.00    +0.379 N 
ATOM     11  C   UNL     1      -6.703  -6.877   0.973  0.00  0.00    -0.082 C 
ATOM     12  C   UNL     1      -5.280  -7.425   0.828  0.00  0.00    -0.010 C 
ATOM     13  H   UNL     1      -6.615  -6.885   3.010  0.00  0.00    -0.086 HD
ATOM     14  H   UNL     1      -7.801  -5.921   2.400  0.00  0.00    -0.086 HD
ENDROOT
BRANCH   5  15
ATOM     15  C   UNL     1      -2.070  -6.445   2.118  0.00  0.00    +0.219 C 
ATOM     16  O   UNL     1      -1.609  -5.330   2.237  0.00  0.00    -0.275 OA
ATOM     17  N   UNL     1      -1.891  -7.356   3.095  0.00  0.00    -0.308 N 
ATOM     18  H   UNL     1      -2.197  -8.268   2.970  0.00  0.00    +0.149 HD
BRANCH  17  19
ATOM     19  C   UNL     1      -1.236  -6.969   4.346  0.00  0.00    +0.114 C 
BRANCH  19  20
ATOM     20  C   UNL     1       0.259  -6.962   4.149  0.00  0.00    -0.027 A 
ATOM     21  C   UNL     1       0.860  -7.950   3.393  0.00  0.00    +0.005 A 
ATOM     22  C   UNL     1       2.231  -7.944   3.212  0.00  0.00    +0.000 A 
ATOM     23  C   UNL     1       2.999  -6.949   3.787  0.00  0.00    +0.000 A 
ATOM     24  C   UNL     1       2.397  -5.960   4.543  0.00  0.00    +0.000 A 
ATOM     25  C   UNL     1       1.026  -5.965   4.720  0.00  0.00    +0.005 A 
ENDBRANCH  19  20
BRANCH  19  26
ATOM     26  C   UNL     1      -1.600  -7.971   5.444  0.00  0.00    +0.152 C 
BRANCH  26  27
ATOM     27  C   UNL     1      -3.076  -7.880   5.736  0.00  0.00    +0.358 C 
ATOM     28  O   UNL     1      -3.751  -7.017   5.203  0.00  0.00    -0.246 OA
ATOM     29  O   UNL     1      -3.595  -8.671   6.506  0.00  0.00    -0.246 OA
ENDBRANCH  26  27
ENDBRANCH  19  26
ENDBRANCH  17  19
ENDBRANCH   5  15
BRANCH   1  30
ATOM     30  C   UNL     1      -1.150  -3.421  -1.163  0.00  0.00    +0.072 C 
ATOM     31  C   UNL     1      -0.705  -4.316  -2.321  0.00  0.00    +0.017 C 
BRANCH  30  32
ATOM     32  C   UNL     1      -0.931  -1.954  -1.538  0.00  0.00    +0.012 C 
BRANCH  32  34
ATOM     33  C   UNL     1       0.786  -0.221  -2.077  0.00  0.00    +0.004 C 
ATOM     34  C   UNL     1       0.567  -1.688  -1.702  0.00  0.00    -0.003 C 
ENDBRANCH  32  34
ENDBRANCH  30  32
ENDBRANCH   1  30
TORSDOF 8
