REMARK  Name = ZINC63809701
REMARK  5 active torsions:
REMARK  status: ('A' for Active; 'I' for Inactive)
REMARK    1  A    between atoms: C_7  and  C_10
REMARK    2  A    between atoms: C_10  and  C_11
REMARK    3  A    between atoms: C_11  and  N_12
REMARK    4  A    between atoms: C_13  and  C_15
REMARK    5  A    between atoms: C_15  and  N_16
REMARK                            x       y       z     vdW  Elec       q    Type
REMARK                         _______ _______ _______ _____ _____    ______ ____
ROOT
ATOM      1  C   UNL     1      -1.752  -6.557  -2.622  0.00  0.00    +0.213 C 
ENDROOT
BRANCH   1   2
ATOM      2  N   UNL     1      -1.976  -7.005  -3.998  0.00  0.00    -0.215 N 
ATOM      3  C   UNL     1      -2.958  -6.539  -4.797  0.00  0.00    +0.252 C 
ATOM      4  O   UNL     1      -3.791  -5.701  -4.524  0.00  0.00    -0.272 OA
ATOM      5  C   UNL     1      -2.800  -7.280  -6.105  0.00  0.00    +0.144 C 
ATOM      6  C   UNL     1      -4.050  -8.102  -6.403  0.00  0.00    +0.081 C 
ATOM      7  C   UNL     1      -3.959  -8.613  -7.848  0.00  0.00    +0.232 C 
ATOM      8  O   UNL     1      -3.967  -7.487  -8.727  0.00  0.00    -0.492 OA
ATOM      9  C   UNL     1      -3.108  -6.468  -8.467  0.00  0.00    +0.126 A 
ATOM     10  C   UNL     1      -2.518  -6.315  -7.222  0.00  0.00    +0.027 A 
ATOM     11  C   UNL     1      -1.651  -5.259  -6.998  0.00  0.00    +0.010 A 
ATOM     12  C   UNL     1      -1.371  -4.359  -8.008  0.00  0.00    +0.001 A 
ATOM     13  C   UNL     1      -1.957  -4.511  -9.251  0.00  0.00    +0.004 A 
ATOM     14  C   UNL     1      -2.823  -5.561  -9.481  0.00  0.00    +0.046 A 
ATOM     15  N   UNL     1      -1.647  -8.160  -5.880  0.00  0.00    -0.281 N 
ATOM     16  C   UNL     1      -1.228  -7.924  -4.622  0.00  0.00    +0.310 C 
ATOM     17  O   UNL     1      -0.280  -8.486  -4.109  0.00  0.00    -0.252 OA
ATOM     18  H   UNL     1      -1.260  -8.784  -6.514  0.00  0.00    +0.152 HD
ENDBRANCH   1   2
BRANCH   1  20
ATOM     19  N   UNL     1      -0.458  -4.798  -1.460  0.00  0.00    -0.314 N 
ATOM     20  C   UNL     1      -0.811  -5.380  -2.623  0.00  0.00    +0.231 C 
ATOM     21  O   UNL     1      -0.371  -4.957  -3.671  0.00  0.00    -0.274 OA
ATOM     22  H   UNL     1      -0.810  -5.136  -0.622  0.00  0.00    +0.149 HD
BRANCH  19  23
ATOM     23  C   UNL     1       0.457  -3.653  -1.462  0.00  0.00    +0.108 C 
BRANCH  23  24
ATOM     24  C   UNL     1       0.691  -3.186  -0.024  0.00  0.00    +0.052 C 
BRANCH  24  31
ATOM     25  C   UNL     1      -0.016   1.348   0.009  0.00  0.00    +0.001 A 
ATOM     26  C   UNL     1       1.166   2.101   0.002  0.00  0.00    +0.002 A 
ATOM     27  C   UNL     1       2.391   1.535  -0.013  0.00  0.00    +0.026 A 
ATOM     28  C   UNL     1       2.529   0.120  -0.022  0.00  0.00    +0.043 A 
ATOM     29  N   UNL     1       3.587  -0.654  -0.037  0.00  0.00    -0.380 N 
ATOM     30  C   UNL     1       3.143  -2.053  -0.041  0.00  0.00    +0.144 C 
ATOM     31  C   UNL     1       1.631  -2.008  -0.025  0.00  0.00    -0.040 C 
ATOM     32  C   UNL     1       1.295  -0.698  -0.014  0.00  0.00    -0.001 A 
ATOM     33  C   UNL     1       0.002  -0.004   0.002  0.00  0.00    +0.010 A 
ATOM     34  H   UNL     1       4.509  -0.353  -0.045  0.00  0.00    +0.160 HD
ENDBRANCH  24  31
ENDBRANCH  23  24
ENDBRANCH  19  23
ENDBRANCH   1  20
TORSDOF 5
