REMARK  Name = ZINC04772625
REMARK  7 active torsions:
REMARK  status: ('A' for Active; 'I' for Inactive)
REMARK    1  A    between atoms: C_1  and  C_2
REMARK    2  A    between atoms: C_5  and  N_8
REMARK    3  A    between atoms: C_12  and  N_58
REMARK    4  A    between atoms: C_16  and  C_17
REMARK    5  A    between atoms: C_16  and  N_58
REMARK    6  A    between atoms: C_25  and  C_30
REMARK    7  A    between atoms: C_27  and  C_29
REMARK                            x       y       z     vdW  Elec       q    Type
REMARK                         _______ _______ _______ _____ _____    ______ ____
ROOT
ATOM      1  N   UNL     1       1.440  -2.462  -2.556  0.00  0.00    +0.387 N 
ATOM      2  H   UNL     1       0.881  -2.161  -3.363  0.00  0.00    -0.085 HD
ATOM      3  H   UNL     1       2.393  -2.089  -2.642  0.00  0.00    -0.085 HD
ENDROOT
BRANCH   1   8
ATOM      4  N   UNL     1       0.465  -5.255  -4.141  0.00  0.00    -0.212 N 
ATOM      5  C   UNL     1       1.755  -5.281  -4.497  0.00  0.00    +0.225 C 
ATOM      6  O   UNL     1       2.209  -5.875  -5.452  0.00  0.00    -0.275 OA
ATOM      7  C   UNL     1       2.558  -4.451  -3.519  0.00  0.00    +0.090 C 
ATOM      8  C   UNL     1       1.496  -3.936  -2.526  0.00  0.00    +0.026 C 
ATOM      9  C   UNL     1       0.205  -4.529  -3.047  0.00  0.00    +0.213 C 
ATOM     10  O   UNL     1      -0.890  -4.372  -2.553  0.00  0.00    -0.277 OA
BRANCH   4  15
ATOM     11  C   UNL     1      -3.573  -8.002  -7.034  0.00  0.00    +0.044 C 
ATOM     12  C   UNL     1      -2.501  -7.273  -6.266  0.00  0.00    -0.050 A 
ATOM     13  C   UNL     1      -1.847  -6.199  -6.843  0.00  0.00    +0.005 A 
ATOM     14  C   UNL     1      -0.864  -5.529  -6.142  0.00  0.00    +0.024 A 
ATOM     15  C   UNL     1      -0.533  -5.934  -4.856  0.00  0.00    +0.044 A 
ATOM     16  C   UNL     1      -1.187  -7.015  -4.281  0.00  0.00    +0.024 A 
ATOM     17  C   UNL     1      -2.173  -7.678  -4.985  0.00  0.00    +0.005 A 
ENDBRANCH   4  15
ENDBRANCH   1   8
BRANCH   1  18
ATOM     18  C   UNL     1       0.825  -1.947  -1.318  0.00  0.00    -0.078 C 
BRANCH  18  19
ATOM     19  C   UNL     1       0.780  -0.419  -1.378  0.00  0.00    -0.025 C 
ATOM     20  C   UNL     1       0.031   0.119  -0.156  0.00  0.00    +0.021 C 
ATOM     21  C   UNL     1       0.042   1.649  -0.191  0.00  0.00    +0.108 C 
ATOM     22  N   UNL     1       1.429   2.131  -0.189  0.00  0.00    -0.300 N 
ATOM     23  C   UNL     1       2.154   1.665  -1.377  0.00  0.00    +0.108 C 
ATOM     24  C   UNL     1       2.207   0.136  -1.378  0.00  0.00    +0.021 C 
ATOM     25  C   UNL     1       1.475   3.510  -0.088  0.00  0.00    +0.218 A 
ATOM     26  N   UNL     1       0.341   4.192  -0.016  0.00  0.00    -0.220 NA
ATOM     27  C   UNL     1       0.350   5.511   0.086  0.00  0.00    +0.044 A 
ATOM     28  C   UNL     1       1.564   6.179   0.107  0.00  0.00    +0.046 A 
ATOM     29  C   UNL     1       2.731   5.436   0.024  0.00  0.00    +0.044 A 
ATOM     30  N   UNL     1       2.652   4.119  -0.071  0.00  0.00    -0.220 NA
ATOM     31  C   UNL     1       4.073   6.120   0.041  0.00  0.00    +0.066 C 
ATOM     32  C   UNL     1      -0.945   6.277   0.174  0.00  0.00    +0.066 C 
ENDBRANCH  18  19
ENDBRANCH   1  18
TORSDOF 4
