REMARK  Name = ZINC65011046
REMARK  8 active torsions:
REMARK  status: ('A' for Active; 'I' for Inactive)
REMARK    1  A    between atoms: C_1  and  C_2
REMARK    2  A    between atoms: C_5  and  C_8
REMARK    3  A    between atoms: C_8  and  N_9
REMARK    4  A    between atoms: N_9  and  S_10
REMARK    5  A    between atoms: S_10  and  C_13
REMARK    6  A    between atoms: C_15  and  C_20
REMARK    7  A    between atoms: C_18  and  C_19
REMARK    8  A    between atoms: C_21  and  C_32
REMARK                            x       y       z     vdW  Elec       q    Type
REMARK                         _______ _______ _______ _____ _____    ______ ____
ROOT
ATOM      1  C   UNL     1       1.179  -7.152  -0.967  0.00  0.00    +0.109 A 
ATOM      2  C   UNL     1       1.970  -7.972  -1.746  0.00  0.00    +0.037 A 
ATOM      3  C   UNL     1       1.405  -8.678  -2.806  0.00  0.00    -0.011 A 
ATOM      4  C   UNL     1       0.043  -8.552  -3.074  0.00  0.00    +0.009 A 
ATOM      5  C   UNL     1      -0.739  -7.729  -2.288  0.00  0.00    +0.006 A 
ATOM      6  C   UNL     1      -0.173  -7.035  -1.234  0.00  0.00    -0.024 A 
ATOM      7  C   UNL     1      -1.033  -6.143  -0.376  0.00  0.00    +0.046 C 
ENDROOT
BRANCH   3   8
ATOM      8  C   UNL     1       2.250  -9.560  -3.647  0.00  0.00    +0.045 A 
ATOM      9  C   UNL     1       3.308  -9.152  -4.480  0.00  0.00    +0.070 A 
ATOM     10  N   UNL     1       3.821 -10.209  -5.040  0.00  0.00    -0.167 NA
ATOM     11  N   UNL     1       3.148 -11.354  -4.571  0.00  0.00    -0.185 N 
ATOM     12  C   UNL     1       2.146 -10.943  -3.752  0.00  0.00    +0.139 A 
ATOM     13  N   UNL     1       1.129 -11.665  -3.160  0.00  0.00    -0.270 N 
ATOM     14  C   UNL     1       1.237 -12.938  -2.725  0.00  0.00    +0.219 C 
ATOM     15  O   UNL     1       0.278 -13.495  -2.234  0.00  0.00    -0.275 OA
ATOM     16  C   UNL     1       2.538 -13.659  -2.850  0.00  0.00    +0.105 C 
ATOM     17  C   UNL     1       2.953 -13.816  -4.289  0.00  0.00    +0.110 C 
ATOM     18  C   UNL     1       3.531 -12.605  -4.900  0.00  0.00    +0.250 C 
ATOM     19  O   UNL     1       4.400 -12.740  -5.728  0.00  0.00    -0.271 OA
ATOM     20  C   UNL     1       3.768  -7.733  -4.689  0.00  0.00    +0.068 C 
ATOM     21  H   UNL     1       0.273 -11.224  -3.047  0.00  0.00    +0.156 HD
ENDBRANCH   3   8
BRANCH   1  22
ATOM     22  S   UNL     1       1.891  -6.258   0.374  0.00  0.00    +0.059 S 
ATOM     23  O   UNL     1       1.450  -4.914   0.246  0.00  0.00    -0.153 OA
ATOM     24  O   UNL     1       3.268  -6.608   0.410  0.00  0.00    -0.153 OA
BRANCH  22  25
ATOM     25  N   UNL     1       1.217  -6.847   1.768  0.00  0.00    -0.186 NA
ATOM     26  H   UNL     1       0.670  -6.271   2.323  0.00  0.00    +0.148 HD
BRANCH  25  27
ATOM     27  C   UNL     1       1.448  -8.239   2.162  0.00  0.00    +0.141 C 
BRANCH  27  32
ATOM     28  C   UNL     1      -0.001  -8.940   7.712  0.00  0.00    +0.044 C 
ATOM     29  C   UNL     1       0.377  -8.757   6.264  0.00  0.00    -0.050 A 
ATOM     30  C   UNL     1      -0.568  -8.950   5.274  0.00  0.00    +0.003 A 
ATOM     31  C   UNL     1      -0.221  -8.782   3.946  0.00  0.00    +0.005 A 
ATOM     32  C   UNL     1       1.070  -8.421   3.609  0.00  0.00    -0.032 A 
ATOM     33  C   UNL     1       2.014  -8.228   4.600  0.00  0.00    +0.005 A 
ATOM     34  C   UNL     1       1.667  -8.391   5.928  0.00  0.00    +0.003 A 
ENDBRANCH  27  32
ENDBRANCH  25  27
ENDBRANCH  22  25
ENDBRANCH   1  22
TORSDOF 5
