REMARK  Name = ZINC39670065
REMARK  6 active torsions:
REMARK  status: ('A' for Active; 'I' for Inactive)
REMARK    1  A    between atoms: C_1  and  C_2
REMARK    2  A    between atoms: C_7  and  C_11
REMARK    3  A    between atoms: C_11  and  N_12
REMARK    4  A    between atoms: C_13  and  C_15
REMARK    5  A    between atoms: C_26  and  C_28
REMARK    6  A    between atoms: C_32  and  C_34
REMARK                            x       y       z     vdW  Elec       q    Type
REMARK                         _______ _______ _______ _____ _____    ______ ____
ROOT
ATOM      1  C   UNL     1       3.841  -7.311   3.706  0.00  0.00    +0.100 C 
ATOM      2  C   UNL     1       4.140  -6.093   4.609  0.00  0.00    +0.121 C 
ATOM      3  N   UNL     1       3.874  -6.574   5.986  0.00  0.00    -0.296 N 
ATOM      4  C   UNL     1       4.399  -7.960   6.000  0.00  0.00    +0.115 C 
ATOM      5  C   UNL     1       4.016  -8.534   4.622  0.00  0.00    -0.004 C 
ATOM      6  C   UNL     1       5.130  -9.433   4.095  0.00  0.00    -0.010 C 
ATOM      7  C   UNL     1       5.246 -10.671   4.988  0.00  0.00    -0.082 C 
ATOM      8  N   UNL     1       3.968 -11.394   4.994  0.00  0.00    +0.379 N 
ATOM      9  C   UNL     1       2.921 -10.555   5.588  0.00  0.00    -0.082 C 
ATOM     10  C   UNL     1       2.707  -9.311   4.720  0.00  0.00    -0.010 C 
ATOM     11  C   UNL     1       3.288  -5.902   6.997  0.00  0.00    +0.247 C 
ATOM     12  O   UNL     1       2.794  -4.810   6.795  0.00  0.00    -0.270 OA
ATOM     13  H   UNL     1       3.712 -11.629   4.047  0.00  0.00    -0.086 HD
ATOM     14  H   UNL     1       4.065 -12.241   5.533  0.00  0.00    -0.086 HD
ENDROOT
BRANCH  11  15
ATOM     15  C   UNL     1       3.246  -6.493   8.350  0.00  0.00    +0.038 A 
ATOM     16  C   UNL     1       4.151  -7.495   8.705  0.00  0.00    +0.016 A 
ATOM     17  C   UNL     1       4.107  -8.043   9.969  0.00  0.00    +0.039 A 
ATOM     18  C   UNL     1       3.167  -7.601  10.887  0.00  0.00    +0.135 A 
ATOM     19  C   UNL     1       2.266  -6.606  10.540  0.00  0.00    +0.091 A 
ATOM     20  C   UNL     1       2.305  -6.047   9.280  0.00  0.00    +0.028 A 
ATOM     21  F   UNL     1       3.128  -8.142  12.124  0.00  0.00    -0.205 F 
BRANCH  19  22
ATOM     22  C   UNL     1       1.247  -6.131  11.542  0.00  0.00    +0.420 C 
ATOM     23  F   UNL     1       0.456  -5.131  10.966  0.00  0.00    -0.166 F 
ATOM     24  F   UNL     1       0.435  -7.204  11.927  0.00  0.00    -0.166 F 
ATOM     25  F   UNL     1       1.902  -5.617  12.666  0.00  0.00    -0.166 F 
ENDBRANCH  19  22
ENDBRANCH  11  15
BRANCH   1  27
ATOM     26  N   UNL     1       2.097  -7.888   2.050  0.00  0.00    -0.309 N 
ATOM     27  C   UNL     1       2.428  -7.243   3.185  0.00  0.00    +0.219 C 
ATOM     28  O   UNL     1       1.589  -6.607   3.788  0.00  0.00    -0.275 OA
ATOM     29  H   UNL     1       2.768  -8.397   1.567  0.00  0.00    +0.149 HD
BRANCH  26  30
ATOM     30  C   UNL     1       0.724  -7.822   1.543  0.00  0.00    +0.159 C 
BRANCH  30  37
ATOM     31  C   UNL     1       0.703 -10.464  -5.376  0.00  0.00    +0.044 C 
ATOM     32  C   UNL     1       0.552 -10.374  -3.880  0.00  0.00    -0.046 A 
ATOM     33  C   UNL     1       0.103 -11.487  -3.148  0.00  0.00    +0.021 A 
ATOM     34  C   UNL     1      -0.033 -11.410  -1.808  0.00  0.00    +0.093 A 
ATOM     35  N   UNL     1       0.262 -10.254  -1.144  0.00  0.00    -0.308 N 
ATOM     36  C   UNL     1       0.214  -9.909   0.179  0.00  0.00    +0.115 A 
ATOM     37  C   UNL     1       0.619  -8.623   0.271  0.00  0.00    +0.051 A 
ATOM     38  N   UNL     1       0.910  -8.179  -0.955  0.00  0.00    -0.342 N 
ATOM     39  C   UNL     1       0.701  -9.152  -1.831  0.00  0.00    +0.116 A 
ATOM     40  C   UNL     1       0.854  -9.218  -3.230  0.00  0.00    +0.048 A 
ATOM     41  H   UNL     1       1.225  -7.287  -1.170  0.00  0.00    +0.167 HD
ENDBRANCH  30  37
ENDBRANCH  26  30
ENDBRANCH   1  27
TORSDOF 5
