REMARK  Name = ZINC39671689
REMARK  9 active torsions:
REMARK  status: ('A' for Active; 'I' for Inactive)
REMARK    1  A    between atoms: C_1  and  C_2
REMARK    2  A    between atoms: C_4  and  C_37
REMARK    3  A    between atoms: N_5  and  C_7
REMARK    4  A    between atoms: C_7  and  C_8
REMARK    5  A    between atoms: C_8  and  C_9
REMARK    6  A    between atoms: C_9  and  N_10
REMARK    7  A    between atoms: C_11  and  C_13
REMARK    8  A    between atoms: C_24  and  C_26
REMARK    9  A    between atoms: C_30  and  C_32
REMARK                            x       y       z     vdW  Elec       q    Type
REMARK                         _______ _______ _______ _____ _____    ______ ____
ROOT
ATOM      1  C   UNL     1       5.295  -6.733   3.985  0.00  0.00    +0.100 C 
ATOM      2  C   UNL     1       5.712  -5.445   4.731  0.00  0.00    +0.121 C 
ATOM      3  N   UNL     1       5.529  -5.768   6.165  0.00  0.00    -0.296 N 
ATOM      4  C   UNL     1       5.995  -7.170   6.290  0.00  0.00    +0.115 C 
ATOM      5  C   UNL     1       5.485  -7.863   5.011  0.00  0.00    -0.004 C 
ATOM      6  C   UNL     1       6.518  -8.866   4.506  0.00  0.00    -0.010 C 
ATOM      7  C   UNL     1       6.648 -10.010   5.516  0.00  0.00    -0.082 C 
ATOM      8  N   UNL     1       5.345 -10.663   5.688  0.00  0.00    +0.379 N 
ATOM      9  C   UNL     1       4.381  -9.716   6.261  0.00  0.00    -0.082 C 
ATOM     10  C   UNL     1       4.156  -8.559   5.283  0.00  0.00    -0.010 C 
ATOM     11  C   UNL     1       5.049  -4.967   7.137  0.00  0.00    +0.247 C 
ATOM     12  O   UNL     1       4.588  -3.878   6.855  0.00  0.00    -0.270 OA
ATOM     13  H   UNL     1       5.008 -10.982   4.791  0.00  0.00    -0.086 HD
ATOM     14  H   UNL     1       5.445 -11.454   6.306  0.00  0.00    -0.086 HD
ENDROOT
BRANCH  11  15
ATOM     15  C   UNL     1       5.083  -5.413   8.545  0.00  0.00    +0.038 A 
ATOM     16  C   UNL     1       5.969  -6.417   8.941  0.00  0.00    +0.016 A 
ATOM     17  C   UNL     1       5.997  -6.829  10.256  0.00  0.00    +0.039 A 
ATOM     18  C   UNL     1       5.147  -6.248  11.185  0.00  0.00    +0.135 A 
ATOM     19  C   UNL     1       4.266  -5.251  10.798  0.00  0.00    +0.091 A 
ATOM     20  C   UNL     1       4.234  -4.827   9.486  0.00  0.00    +0.028 A 
ATOM     21  F   UNL     1       5.178  -6.656  12.473  0.00  0.00    -0.205 F 
BRANCH  19  22
ATOM     22  C   UNL     1       3.345  -4.625  11.813  0.00  0.00    +0.420 C 
ATOM     23  F   UNL     1       2.556  -3.651  11.190  0.00  0.00    -0.166 F 
ATOM     24  F   UNL     1       2.519  -5.610  12.365  0.00  0.00    -0.166 F 
ATOM     25  F   UNL     1       4.104  -4.031  12.827  0.00  0.00    -0.166 F 
ENDBRANCH  19  22
ENDBRANCH  11  15
BRANCH   1  27
ATOM     26  N   UNL     1       3.409  -7.391   2.525  0.00  0.00    -0.315 N 
ATOM     27  C   UNL     1       3.851  -6.649   3.560  0.00  0.00    +0.218 C 
ATOM     28  O   UNL     1       3.087  -5.913   4.148  0.00  0.00    -0.275 OA
ATOM     29  H   UNL     1       4.020  -7.979   2.054  0.00  0.00    +0.149 HD
BRANCH  26  30
ATOM     30  C   UNL     1       2.006  -7.309   2.111  0.00  0.00    +0.106 C 
BRANCH  30  31
ATOM     31  C   UNL     1       1.769  -8.243   0.924  0.00  0.00    +0.042 C 
BRANCH  31  32
ATOM     32  C   UNL     1       0.304  -8.158   0.492  0.00  0.00    +0.145 C 
BRANCH  32  37
ATOM     33  C   UNL     1      -0.060  -9.855  -4.218  0.00  0.00    +0.067 C 
ATOM     34  C   UNL     1      -0.076  -9.774  -2.713  0.00  0.00    +0.060 A 
ATOM     35  C   UNL     1      -0.398 -10.818  -1.839  0.00  0.00    +0.047 A 
ATOM     36  C   UNL     1      -0.296 -10.348  -0.574  0.00  0.00    +0.036 A 
ATOM     37  N   UNL     1       0.077  -9.053  -0.645  0.00  0.00    -0.268 N 
ATOM     38  N   UNL     1       0.214  -8.717  -1.999  0.00  0.00    -0.176 NA
ATOM     39  C   UNL     1      -0.553 -11.130   0.688  0.00  0.00    +0.065 C 
ENDBRANCH  32  37
ENDBRANCH  31  32
ENDBRANCH  30  31
ENDBRANCH  26  30
ENDBRANCH   1  27
TORSDOF 7
