REMARK  Name = ZINC44461622
REMARK  7 active torsions:
REMARK  status: ('A' for Active; 'I' for Inactive)
REMARK    1  A    between atoms: C_1  and  C_2
REMARK    2  A    between atoms: C_2  and  C_4
REMARK    3  A    between atoms: C_2  and  N_16
REMARK    4  A    between atoms: C_4  and  C_5
REMARK    5  A    between atoms: C_8  and  O_13
REMARK    6  A    between atoms: C_10  and  O_11
REMARK    7  A    between atoms: O_13  and  C_14
REMARK                            x       y       z     vdW  Elec       q    Type
REMARK                         _______ _______ _______ _____ _____    ______ ____
ROOT
ATOM      1  C   UNL     1       0.870  -2.011   1.172  0.00  0.00    -0.005 A 
ATOM      2  C   UNL     1      -0.064  -2.813   1.800  0.00  0.00    +0.026 A 
ATOM      3  C   UNL     1       0.050  -4.189   1.738  0.00  0.00    +0.061 A 
ATOM      4  C   UNL     1       1.104  -4.769   1.044  0.00  0.00    +0.151 A 
ATOM      5  C   UNL     1       2.042  -3.966   0.413  0.00  0.00    +0.102 A 
ATOM      6  C   UNL     1       1.921  -2.585   0.473  0.00  0.00    +0.137 A 
ATOM      7 BR   UNL     1       3.478  -4.751  -0.534  0.00  0.00    -0.043 Br
ATOM      8 BR   UNL     1      -1.229  -5.284   2.599  0.00  0.00    -0.046 Br
ENDROOT
BRANCH   6   9
ATOM      9  O   UNL     1       2.836  -1.795  -0.149  0.00  0.00    -0.505 OA
ATOM     10  H   UNL     1       3.593  -1.558   0.404  0.00  0.00    +0.292 HD
ENDBRANCH   6   9
BRANCH   4  11
ATOM     11  O   UNL     1       1.216  -6.122   0.983  0.00  0.00    -0.493 OA
ATOM     12  C   UNL     1       0.565  -6.779  -0.107  0.00  0.00    +0.277 C 
ENDBRANCH   4  11
BRANCH   1  13
ATOM     13  C   UNL     1       0.742  -0.511   1.242  0.00  0.00    +0.022 C 
BRANCH  13  15
ATOM     14  C   UNL     1      -0.019   1.526   0.010  0.00  0.00    -0.014 C 
ATOM     15  C   UNL     1       0.002  -0.004   0.002  0.00  0.00    -0.074 C 
BRANCH  15  16
ATOM     16  N   UNL     1      -1.376  -0.512   0.012  0.00  0.00    +0.380 N 
ATOM     17  H   UNL     1      -1.864  -0.178  -0.805  0.00  0.00    -0.090 HD
ATOM     18  H   UNL     1      -1.362  -1.521   0.007  0.00  0.00    -0.090 HD
ATOM     19  H   UNL     1      -1.848  -0.187   0.843  0.00  0.00    -0.090 HD
ENDBRANCH  15  16
ENDBRANCH  13  15
ENDBRANCH   1  13
TORSDOF 5
