REMARK  Name = ZINC05029646
REMARK  8 active torsions:
REMARK  status: ('A' for Active; 'I' for Inactive)
REMARK    1  A    between atoms: C_1  and  C_2
REMARK    2  A    between atoms: C_5  and  S_8
REMARK    3  A    between atoms: S_8  and  O_11
REMARK    4  A    between atoms: O_11  and  C_12
REMARK    5  A    between atoms: C_14  and  O_36
REMARK    6  A    between atoms: C_22  and  C_25
REMARK    7  A    between atoms: C_32  and  O_34
REMARK    8  A    between atoms: O_34  and  C_35
REMARK                            x       y       z     vdW  Elec       q    Type
REMARK                         _______ _______ _______ _____ _____    ______ ____
ROOT
ATOM      1  C   UNL     1       2.058   1.615   1.230  0.00  0.00    +0.236 C 
ATOM      2  C   UNL     1       2.158   0.087   1.268  0.00  0.00    +0.182 C 
ATOM      3  C   UNL     1       0.752  -0.512   1.238  0.00  0.00    +0.184 C 
ATOM      4  C   UNL     1       0.002  -0.004   0.002  0.00  0.00    +0.178 C 
ATOM      5  C   UNL     1      -1.442  -0.521   0.037  0.00  0.00    +0.197 C 
ATOM      6  O   UNL     1      -2.042  -0.130   1.276  0.00  0.00    -0.345 OA
ATOM      7  C   UNL     1      -1.347  -0.606   2.431  0.00  0.00    +0.282 C 
ATOM      8  O   UNL     1      -0.001  -0.123   2.412  0.00  0.00    -0.339 OA
ATOM      9  O   UNL     1      -0.017   1.425   0.010  0.00  0.00    -0.340 OA
ATOM     10  C   UNL     1       1.276   2.032   0.001  0.00  0.00    +0.284 C 
ENDROOT
BRANCH   7  11
ATOM     11  C   UNL     1      -2.041  -0.110   3.673  0.00  0.00    +0.008 A 
ATOM     12  C   UNL     1      -1.357   0.682   4.577  0.00  0.00    +0.008 A 
ATOM     13  C   UNL     1      -1.995   1.141   5.715  0.00  0.00    +0.000 A 
ATOM     14  C   UNL     1      -3.313   0.800   5.953  0.00  0.00    +0.000 A 
ATOM     15  C   UNL     1      -3.995   0.004   5.052  0.00  0.00    +0.000 A 
ATOM     16  C   UNL     1      -3.359  -0.451   3.912  0.00  0.00    +0.008 A 
ENDBRANCH   7  11
BRANCH  10  17
ATOM     17  O   UNL     1       1.996   1.603  -1.157  0.00  0.00    -0.352 OA
ATOM     18  C   UNL     1       1.489   2.131  -2.385  0.00  0.00    +0.197 C 
ENDBRANCH  10  17
BRANCH   2  19
ATOM     19  O   UNL     1       2.897  -0.371   0.134  0.00  0.00    -0.386 OA
ATOM     20  H   UNL     1       3.800  -0.029   0.088  0.00  0.00    +0.210 HD
ENDBRANCH   2  19
BRANCH   1  21
ATOM     21  O   UNL     1       1.377   2.078   2.398  0.00  0.00    -0.223 OA
BRANCH  21  22
ATOM     22  S   UNL     1       1.892   3.409   2.927  0.00  0.00    +0.112 S 
ATOM     23  O   UNL     1       1.263   3.617   4.185  0.00  0.00    -0.142 OA
ATOM     24  O   UNL     1       3.305   3.386   2.777  0.00  0.00    -0.142 OA
BRANCH  22  29
ATOM     25  C   UNL     1      -0.167   7.717  -0.762  0.00  0.00    +0.044 C 
ATOM     26  C   UNL     1       0.347   6.640   0.159  0.00  0.00    -0.050 A 
ATOM     27  C   UNL     1      -0.398   6.257   1.258  0.00  0.00    +0.005 A 
ATOM     28  C   UNL     1       0.073   5.270   2.104  0.00  0.00    +0.030 A 
ATOM     29  C   UNL     1       1.291   4.667   1.850  0.00  0.00    +0.117 A 
ATOM     30  C   UNL     1       2.039   5.053   0.753  0.00  0.00    +0.030 A 
ATOM     31  C   UNL     1       1.565   6.037  -0.095  0.00  0.00    +0.005 A 
ENDBRANCH  22  29
ENDBRANCH  21  22
ENDBRANCH   1  21
TORSDOF 6
