REMARK  Name = ZINC38899284
REMARK  3 active torsions:
REMARK  status: ('A' for Active; 'I' for Inactive)
REMARK    1  A    between atoms: N_9  and  C_10
REMARK    2  A    between atoms: N_21  and  C_24
REMARK    3  A    between atoms: C_24  and  C_25
REMARK                            x       y       z     vdW  Elec       q    Type
REMARK                         _______ _______ _______ _____ _____    ______ ____
ROOT
ATOM      1  C   UNL     1       4.279  -4.290  -0.084  0.00  0.00    +0.258 C 
ATOM      2  O   UNL     1       5.239  -3.348  -0.089  0.00  0.00    -0.270 OA
ATOM      3  C   UNL     1       4.628  -5.644  -0.085  0.00  0.00    +0.141 C 
ATOM      4  C   UNL     1       5.985  -6.046  -0.091  0.00  0.00    +0.178 C 
ATOM      5  C   UNL     1       6.295  -7.525  -0.150  0.00  0.00    +0.081 C 
ATOM      6  C   UNL     1       6.243  -8.095   1.269  0.00  0.00    +0.013 C 
ATOM      7  C   UNL     1       6.505  -9.601   1.230  0.00  0.00    +0.001 C 
ATOM      8  C   UNL     1       5.429 -10.280   0.379  0.00  0.00    +0.002 C 
ATOM      9  C   UNL     1       5.487  -9.724  -1.045  0.00  0.00    +0.023 C 
ATOM     10  C   UNL     1       5.249  -8.217  -1.022  0.00  0.00    +0.087 C 
ATOM     11  N   UNL     1       3.902  -7.920  -0.543  0.00  0.00    -0.286 N 
ATOM     12  C   UNL     1       3.594  -6.691  -0.073  0.00  0.00    +0.256 C 
ATOM     13  O   UNL     1       2.478  -6.452   0.350  0.00  0.00    -0.270 OA
ATOM     14  O   UNL     1       6.879  -5.224  -0.049  0.00  0.00    -0.291 OA
ENDROOT
BRANCH   1  23
ATOM     15  C   UNL     1      -0.006   1.373  -0.069  0.00  0.00    +0.002 A 
ATOM     16  C   UNL     1       1.168   2.113  -0.075  0.00  0.00    +0.001 A 
ATOM     17  C   UNL     1       2.384   1.454  -0.080  0.00  0.00    +0.017 A 
ATOM     18  C   UNL     1       2.411   0.081  -0.079  0.00  0.00    +0.041 A 
ATOM     19  C   UNL     1       1.236  -0.705  -0.073  0.00  0.00    +0.080 A 
ATOM     20  C   UNL     1       0.011   0.003  -0.068  0.00  0.00    +0.029 A 
ATOM     21  N   UNL     1       1.426  -2.042  -0.073  0.00  0.00    -0.225 NA
ATOM     22  C   UNL     1       2.622  -2.584  -0.078  0.00  0.00    +0.166 A 
ATOM     23  N   UNL     1       2.967  -3.925  -0.079  0.00  0.00    -0.260 N 
ATOM     24  S   UNL     1       3.690  -1.151  -0.084  0.00  0.00    -0.052 S 
ATOM     25  H   UNL     1       2.274  -4.604  -0.075  0.00  0.00    +0.157 HD
ENDBRANCH   1  23
BRANCH  11  26
ATOM     26  C   UNL     1       2.876  -8.965  -0.566  0.00  0.00    +0.182 C 
BRANCH  26  27
ATOM     27  C   UNL     1       2.059  -8.839  -1.826  0.00  0.00    +0.122 A 
ATOM     28  C   UNL     1       2.267  -9.515  -2.970  0.00  0.00    +0.046 A 
ATOM     29  C   UNL     1       1.274  -9.091  -3.883  0.00  0.00    +0.041 A 
ATOM     30  C   UNL     1       0.519  -8.180  -3.242  0.00  0.00    +0.195 A 
ATOM     31  O   UNL     1       0.996  -8.036  -1.995  0.00  0.00    -0.466 OA
ENDBRANCH  26  27
ENDBRANCH  11  26
TORSDOF 3
