REMARK  Name = ZINC08687541
REMARK  8 active torsions:
REMARK  status: ('A' for Active; 'I' for Inactive)
REMARK    1  A    between atoms: C_1  and  C_2
REMARK    2  A    between atoms: C_2  and  O_3
REMARK    3  A    between atoms: O_3  and  C_4
REMARK    4  A    between atoms: C_7  and  C_25
REMARK    5  A    between atoms: C_12  and  C_14
REMARK    6  A    between atoms: C_16  and  N_22
REMARK    7  A    between atoms: C_19  and  O_20
REMARK    8  A    between atoms: O_20  and  C_21
REMARK                            x       y       z     vdW  Elec       q    Type
REMARK                         _______ _______ _______ _____ _____    ______ ____
ROOT
ATOM      1  C   UNL     1      -1.827  -1.649   0.528  0.00  0.00    +0.339 C 
ATOM      2  O   UNL     1      -0.635  -2.275   0.614  0.00  0.00    -0.245 OA
ATOM      3  C   UNL     1      -2.972  -2.379   0.410  0.00  0.00    +0.085 C 
ATOM      4  C   UNL     1      -4.241  -1.764   0.411  0.00  0.00    +0.075 C 
ATOM      5  N   UNL     1      -5.342  -2.490   0.295  0.00  0.00    -0.192 NA
ATOM      6  C   UNL     1      -5.362  -3.810   0.174  0.00  0.00    +0.155 C 
ATOM      7  S   UNL     1      -6.877  -4.595   0.035  0.00  0.00    -0.017 S 
ATOM      8  N   UNL     1      -4.245  -4.563   0.153  0.00  0.00    -0.314 N 
ATOM      9  C   UNL     1      -2.940  -3.889   0.268  0.00  0.00    +0.145 C 
ATOM     10  H   UNL     1      -4.299  -5.527   0.062  0.00  0.00    +0.149 HD
ENDROOT
BRANCH   9  11
ATOM     11  C   UNL     1      -2.228  -4.458   1.468  0.00  0.00    +0.021 A 
ATOM     12  C   UNL     1      -0.946  -4.956   1.340  0.00  0.00    +0.042 A 
ATOM     13  C   UNL     1      -0.292  -5.477   2.441  0.00  0.00    +0.127 A 
ATOM     14  C   UNL     1      -0.920  -5.502   3.673  0.00  0.00    +0.036 A 
ATOM     15  C   UNL     1      -2.201  -5.005   3.806  0.00  0.00    +0.048 A 
ATOM     16  C   UNL     1      -2.857  -4.476   2.704  0.00  0.00    +0.125 A 
BRANCH  13  17
ATOM     17  N   UNL     1       1.081  -6.011   2.300  0.00  0.00    +0.056 N 
ATOM     18  O   UNL     1       1.631  -5.991   1.224  0.00  0.00    -0.126 OA
ATOM     19  O   UNL     1       1.654  -6.467   3.263  0.00  0.00    -0.126 OA
ENDBRANCH  13  17
BRANCH  16  20
ATOM     20  O   UNL     1      -4.117  -3.981   2.834  0.00  0.00    -0.495 OA
ATOM     21  C   UNL     1      -4.703  -4.032   4.136  0.00  0.00    +0.277 C 
ENDBRANCH  16  20
ENDBRANCH   9  11
BRANCH   4  22
ATOM     22  C   UNL     1      -4.343  -0.293   0.542  0.00  0.00    -0.001 A 
ATOM     23  C   UNL     1      -4.436   0.507  -0.598  0.00  0.00    +0.010 A 
ATOM     24  C   UNL     1      -4.532   1.877  -0.469  0.00  0.00    +0.001 A 
ATOM     25  C   UNL     1      -4.534   2.458   0.786  0.00  0.00    +0.000 A 
ATOM     26  C   UNL     1      -4.442   1.671   1.920  0.00  0.00    +0.001 A 
ATOM     27  C   UNL     1      -4.352   0.299   1.805  0.00  0.00    +0.010 A 
ENDBRANCH   4  22
BRANCH   1  28
ATOM     28  O   UNL     1      -1.885  -0.302   0.557  0.00  0.00    -0.462 OA
BRANCH  28  30
ATOM     29  C   UNL     1      -0.904   1.900   0.724  0.00  0.00    +0.048 C 
ATOM     30  C   UNL     1      -0.641   0.401   0.567  0.00  0.00    +0.229 C 
ENDBRANCH  28  30
ENDBRANCH   1  28
TORSDOF 6
