REMARK  Name = ZINC40755372
REMARK  5 active torsions:
REMARK  status: ('A' for Active; 'I' for Inactive)
REMARK    1  A    between atoms: C_1  and  C_2
REMARK    2  A    between atoms: C_5  and  N_9
REMARK    3  A    between atoms: C_6  and  C_8
REMARK    4  A    between atoms: C_11  and  N_24
REMARK    5  A    between atoms: C_12  and  N_16
REMARK                            x       y       z     vdW  Elec       q    Type
REMARK                         _______ _______ _______ _____ _____    ______ ____
ROOT
ATOM      1  N   UNL     1       0.163  -4.181  -0.019  0.00  0.00    -0.298 N 
ATOM      2  C   UNL     1       0.034  -4.866  -1.222  0.00  0.00    +0.149 A 
ATOM      3  C   UNL     1      -0.084  -6.258  -1.235  0.00  0.00    +0.106 A 
ATOM      4  C   UNL     1      -0.212  -6.896  -2.470  0.00  0.00    +0.150 A 
ATOM      5  N   UNL     1      -0.216  -6.160  -3.579  0.00  0.00    -0.219 NA
ATOM      6  C   UNL     1      -0.102  -4.849  -3.522  0.00  0.00    +0.225 A 
ATOM      7  N   UNL     1       0.016  -4.207  -2.377  0.00  0.00    -0.219 NA
ATOM      8  H   UNL     1       0.082  -4.657   0.822  0.00  0.00    +0.154 HD
ENDROOT
BRANCH   4   9
ATOM      9  N   UNL     1      -0.332  -8.280  -2.541  0.00  0.00    -0.283 N 
ATOM     10  C   UNL     1      -0.327  -8.917  -3.778  0.00  0.00    +0.124 A 
ATOM     11  C   UNL     1      -0.317 -10.307  -3.838  0.00  0.00    +0.045 A 
ATOM     12  C   UNL     1      -0.312 -10.927  -5.074  0.00  0.00    +0.020 A 
ATOM     13  C   UNL     1      -0.317 -10.133  -6.214  0.00  0.00    +0.036 A 
ATOM     14  C   UNL     1      -0.327  -8.758  -6.081  0.00  0.00    +0.128 A 
ATOM     15  N   UNL     1      -0.337  -8.194  -4.888  0.00  0.00    -0.239 NA
ATOM     16 BR   UNL     1      -0.310 -10.926  -7.931  0.00  0.00    -0.049 Br
ATOM     17  H   UNL     1      -0.420  -8.802  -1.727  0.00  0.00    +0.155 HD
ENDBRANCH   4   9
BRANCH   1  22
ATOM     18  C   UNL     1       1.163   1.402  -0.032  0.00  0.00    +0.044 C 
ATOM     19  C   UNL     1       0.897  -0.081  -0.028  0.00  0.00    -0.050 A 
ATOM     20  C   UNL     1       1.320  -0.860  -1.090  0.00  0.00    +0.005 A 
ATOM     21  C   UNL     1       1.078  -2.220  -1.090  0.00  0.00    +0.024 A 
ATOM     22  C   UNL     1       0.410  -2.805  -0.022  0.00  0.00    +0.035 A 
ATOM     23  C   UNL     1      -0.013  -2.020   1.043  0.00  0.00    -0.029 A 
ATOM     24  C   UNL     1       0.237  -0.661   1.039  0.00  0.00    +0.008 A 
ATOM     25  C   UNL     1      -0.739  -2.650   2.204  0.00  0.00    +0.045 C 
ENDBRANCH   1  22
BRANCH   3  26
ATOM     26  N   UNL     1      -0.075  -6.994  -0.041  0.00  0.00    -0.353 N 
ATOM     27  H   UNL     1       0.015  -6.537   0.810  0.00  0.00    +0.143 HD
ATOM     28  H   UNL     1      -0.158  -7.960  -0.066  0.00  0.00    +0.143 HD
ENDBRANCH   3  26
TORSDOF 3
