REMARK  Name = ZINC39634733
REMARK  12 active torsions:
REMARK  status: ('A' for Active; 'I' for Inactive)
REMARK    1  A    between atoms: C_1  and  C_2
REMARK    2  A    between atoms: C_2  and  C_3
REMARK    3  A    between atoms: C_2  and  N_4
REMARK    4  A    between atoms: N_4  and  C_5
REMARK    5  A    between atoms: N_4  and  C_34
REMARK    6  A    between atoms: C_5  and  C_6
REMARK    7  A    between atoms: C_6  and  N_7
REMARK    8  A    between atoms: C_8  and  C_10
REMARK    9  A    between atoms: C_21  and  C_23
REMARK   10  A    between atoms: C_26  and  C_30
REMARK   11  A    between atoms: C_34  and  C_35
REMARK   12  A    between atoms: C_34  and  C_36
REMARK                            x       y       z     vdW  Elec       q    Type
REMARK                         _______ _______ _______ _____ _____    ______ ____
ROOT
ATOM      1  C   UNL     1      -4.642   4.854  -3.798  0.00  0.00    +0.100 C 
ATOM      2  C   UNL     1      -3.777   4.129  -4.853  0.00  0.00    +0.121 C 
ATOM      3  N   UNL     1      -3.396   5.189  -5.817  0.00  0.00    -0.296 N 
ATOM      4  C   UNL     1      -3.125   6.376  -4.971  0.00  0.00    +0.115 C 
ATOM      5  C   UNL     1      -4.211   6.328  -3.878  0.00  0.00    -0.004 C 
ATOM      6  C   UNL     1      -3.634   6.783  -2.541  0.00  0.00    -0.010 C 
ATOM      7  C   UNL     1      -3.266   8.267  -2.628  0.00  0.00    -0.082 C 
ATOM      8  N   UNL     1      -4.462   9.050  -2.959  0.00  0.00    +0.379 N 
ATOM      9  C   UNL     1      -4.957   8.671  -4.288  0.00  0.00    -0.082 C 
ATOM     10  C   UNL     1      -5.396   7.204  -4.272  0.00  0.00    -0.010 C 
ATOM     11  C   UNL     1      -3.315   5.094  -7.159  0.00  0.00    +0.249 C 
ATOM     12  O   UNL     1      -2.911   6.037  -7.811  0.00  0.00    -0.270 OA
ATOM     13  H   UNL     1      -5.180   8.874  -2.272  0.00  0.00    -0.086 HD
ATOM     14  H   UNL     1      -4.231  10.033  -2.956  0.00  0.00    -0.086 HD
ENDROOT
BRANCH  11  15
ATOM     15  C   UNL     1      -3.717   3.845  -7.837  0.00  0.00    +0.072 A 
ATOM     16  C   UNL     1      -3.330   2.608  -7.316  0.00  0.00    +0.016 A 
ATOM     17  C   UNL     1      -3.709   1.446  -7.954  0.00  0.00    +0.013 A 
ATOM     18  C   UNL     1      -4.472   1.502  -9.108  0.00  0.00    +0.058 A 
ATOM     19  C   UNL     1      -4.859   2.721  -9.632  0.00  0.00    +0.051 A 
ATOM     20  C   UNL     1      -4.492   3.895  -9.000  0.00  0.00    +0.136 A 
ATOM     21  F   UNL     1      -4.875   5.087  -9.508  0.00  0.00    -0.205 F 
BRANCH  18  22
ATOM     22  C   UNL     1      -4.881   0.226  -9.799  0.00  0.00    +0.418 C 
ATOM     23  F   UNL     1      -6.108  -0.208  -9.287  0.00  0.00    -0.166 F 
ATOM     24  F   UNL     1      -5.004   0.458 -11.173  0.00  0.00    -0.166 F 
ATOM     25  F   UNL     1      -3.910  -0.756  -9.577  0.00  0.00    -0.166 F 
ENDBRANCH  18  22
ENDBRANCH  11  15
BRANCH   1  27
ATOM     26  N   UNL     1      -5.339   4.302  -1.490  0.00  0.00    -0.317 N 
ATOM     27  C   UNL     1      -4.367   4.300  -2.424  0.00  0.00    +0.218 C 
ATOM     28  O   UNL     1      -3.271   3.854  -2.158  0.00  0.00    -0.275 OA
ATOM     29  H   UNL     1      -6.215   4.659  -1.702  0.00  0.00    +0.149 HD
BRANCH  26  30
ATOM     30  C   UNL     1      -5.071   3.764  -0.153  0.00  0.00    +0.085 C 
BRANCH  30  31
ATOM     31  C   UNL     1      -6.331   3.884   0.706  0.00  0.00    -0.059 C 
BRANCH  31  32
ATOM     32  N   UNL     1      -6.021   3.487   2.087  0.00  0.00    +0.384 N 
ATOM     33  H   UNL     1      -5.226   4.013   2.417  0.00  0.00    -0.081 HD
BRANCH  32  35
ATOM     34  C   UNL     1      -6.468   1.335   1.007  0.00  0.00    -0.014 C 
ATOM     35  C   UNL     1      -5.710   2.052   2.126  0.00  0.00    -0.074 C 
ATOM     36  C   UNL     1      -4.205   1.851   1.932  0.00  0.00    -0.014 C 
ENDBRANCH  32  35
BRANCH  32  37
ATOM     37  C   UNL     1      -7.181   3.760   2.946  0.00  0.00    -0.074 C 
ATOM     38  C   UNL     1      -6.811   3.481   4.404  0.00  0.00    -0.014 C 
ATOM     39  C   UNL     1      -7.593   5.226   2.796  0.00  0.00    -0.014 C 
ENDBRANCH  32  37
ENDBRANCH  31  32
ENDBRANCH  30  31
ENDBRANCH  26  30
ENDBRANCH   1  27
TORSDOF 8
