REMARK  Name = ZINC11662481
REMARK  15 active torsions:
REMARK  status: ('A' for Active; 'I' for Inactive)
REMARK    1  A    between atoms: C_1  and  C_2
REMARK    2  A    between atoms: C_2  and  C_31
REMARK    3  A    between atoms: C_8  and  C_9
REMARK    4  A    between atoms: C_8  and  N_66
REMARK    5  A    between atoms: C_12  and  O_29
REMARK    6  A    between atoms: C_13  and  O_15
REMARK    7  A    between atoms: O_15  and  C_16
REMARK    8  A    between atoms: C_16  and  C_17
REMARK    9  A    between atoms: C_17  and  C_19
REMARK   10  A    between atoms: C_17  and  O_28
REMARK   11  A    between atoms: C_19  and  N_68
REMARK   12  A    between atoms: C_20  and  N_68
REMARK   13  A    between atoms: C_21  and  C_22
REMARK   14  A    between atoms: C_21  and  N_68
REMARK   15  A    between atoms: O_29  and  C_30
REMARK                            x       y       z     vdW  Elec       q    Type
REMARK                         _______ _______ _______ _____ _____    ______ ____
ROOT
ATOM      1  C   UNL     1       2.276   1.494  -0.173  0.00  0.00    -0.060 A 
ATOM      2  C   UNL     1       1.185   2.332  -0.311  0.00  0.00    +0.005 A 
ATOM      3  C   UNL     1      -0.091   1.806  -0.372  0.00  0.00    +0.049 A 
ATOM      4  C   UNL     1      -0.280   0.435  -0.295  0.00  0.00    +0.162 A 
ATOM      5  C   UNL     1       0.818  -0.408  -0.156  0.00  0.00    +0.162 A 
ATOM      6  C   UNL     1       2.095   0.126  -0.096  0.00  0.00    +0.051 A 
ENDROOT
BRANCH   4   7
ATOM      7  O   UNL     1      -1.535  -0.085  -0.355  0.00  0.00    -0.491 OA
ATOM      8  C   UNL     1      -2.614   0.841  -0.498  0.00  0.00    +0.277 C 
ENDBRANCH   4   7
BRANCH   1   9
ATOM      9  C   UNL     1       3.666   2.074  -0.107  0.00  0.00    -0.041 C 
BRANCH   9  19
ATOM     10  C   UNL     1       5.160   4.470  -0.918  0.00  0.00    -0.000 C 
ATOM     11  C   UNL     1       5.425   3.059  -1.448  0.00  0.00    +0.007 C 
ATOM     12  C   UNL     1       5.995   3.147  -2.835  0.00  0.00    +0.202 C 
ATOM     13  O   UNL     1       6.843   3.983  -3.063  0.00  0.00    -0.277 OA
ATOM     14  N   UNL     1       5.607   2.341  -3.829  0.00  0.00    -0.318 N 
ATOM     15  C   UNL     1       4.570   1.326  -3.669  0.00  0.00    +0.085 C 
ATOM     16  C   UNL     1       4.352   1.029  -2.184  0.00  0.00    -0.058 C 
ATOM     17  C   UNL     1       6.426   2.354  -0.531  0.00  0.00    -0.000 C 
ATOM     18  H   UNL     1       6.034   2.434  -4.695  0.00  0.00    +0.149 HD
ATOM     19  N   UNL     1       4.152   2.314  -1.485  0.00  0.00    +0.393 N 
ATOM     20  H   UNL     1       3.454   2.868  -1.994  0.00  0.00    -0.080 HD
ENDBRANCH   9  19
ENDBRANCH   1   9
BRANCH   5  21
ATOM     21  O   UNL     1       0.638  -1.754  -0.080  0.00  0.00    -0.486 OA
BRANCH  21  22
ATOM     22  C   UNL     1       1.811  -2.558   0.061  0.00  0.00    +0.258 C 
BRANCH  22  23
ATOM     23  C   UNL     1       1.412  -4.034   0.129  0.00  0.00    +0.135 C 
BRANCH  23  24
ATOM     24  O   UNL     1       0.832  -4.428  -1.116  0.00  0.00    -0.390 OA
ATOM     25  H   UNL     1       1.422  -4.327  -1.875  0.00  0.00    +0.210 HD
ENDBRANCH  23  24
BRANCH  23  26
ATOM     26  C   UNL     1       2.653  -4.885   0.406  0.00  0.00    -0.044 C 
BRANCH  26  28
ATOM     27  C   UNL     1       1.404  -6.561   1.629  0.00  0.00    -0.096 C 
ATOM     28  N   UNL     1       2.256  -6.308   0.447  0.00  0.00    +0.382 N 
ATOM     29  H   UNL     1       1.722  -6.530  -0.402  0.00  0.00    -0.082 HD
BRANCH  28  30
ATOM     30  C   UNL     1       3.457  -7.167   0.497  0.00  0.00    -0.043 C 
BRANCH  30  31
ATOM     31  C   UNL     1       3.036  -8.603   0.317  0.00  0.00    -0.064 A 
ATOM     32  C   UNL     1       2.737  -9.380   1.421  0.00  0.00    +0.002 A 
ATOM     33  C   UNL     1       2.346 -10.695   1.254  0.00  0.00    +0.000 A 
ATOM     34  C   UNL     1       2.265 -11.237  -0.015  0.00  0.00    +0.000 A 
ATOM     35  C   UNL     1       2.569 -10.462  -1.118  0.00  0.00    +0.000 A 
ATOM     36  C   UNL     1       2.955  -9.145  -0.952  0.00  0.00    +0.002 A 
ENDBRANCH  30  31
ENDBRANCH  28  30
ENDBRANCH  26  28
ENDBRANCH  23  26
ENDBRANCH  22  23
ENDBRANCH  21  22
ENDBRANCH   5  21
TORSDOF 11
