REMARK  Name = ZINC11912105
REMARK  9 active torsions:
REMARK  status: ('A' for Active; 'I' for Inactive)
REMARK    1  A    between atoms: C_1  and  N_2
REMARK    2  A    between atoms: N_2  and  C_3
REMARK    3  A    between atoms: C_3  and  C_5
REMARK    4  A    between atoms: C_3  and  C_12
REMARK    5  A    between atoms: C_5  and  C_6
REMARK    6  A    between atoms: C_17  and  C_18
REMARK    7  A    between atoms: C_17  and  N_67
REMARK    8  A    between atoms: C_23  and  C_24
REMARK    9  A    between atoms: C_30  and  C_32
REMARK                            x       y       z     vdW  Elec       q    Type
REMARK                         _______ _______ _______ _____ _____    ______ ____
ROOT
ATOM      1  C   UNL     1      -4.304   5.692   0.200  0.00  0.00    +0.006 C 
ATOM      2  C   UNL     1      -4.669   4.226  -0.050  0.00  0.00    -0.013 C 
ATOM      3  C   UNL     1      -5.604   4.137  -1.258  0.00  0.00    -0.078 C 
ATOM      4  C   UNL     1      -4.623   6.125  -2.238  0.00  0.00    -0.078 C 
ATOM      5  C   UNL     1      -3.657   6.273  -1.060  0.00  0.00    -0.013 C 
ATOM      6  N   UNL     1      -4.913   4.690  -2.443  0.00  0.00    +0.382 N 
ATOM      7  H   UNL     1      -4.028   4.187  -2.577  0.00  0.00    -0.081 HD
ENDROOT
BRANCH   1   8
ATOM      8  C   UNL     1      -3.320   5.783   1.368  0.00  0.00    +0.083 C 
BRANCH   8  10
ATOM      9  C   UNL     1      -2.257   3.479   1.336  0.00  0.00    +0.132 C 
ATOM     10  N   UNL     1      -2.165   4.922   1.101  0.00  0.00    -0.297 N 
ATOM     11  C   UNL     1      -1.018   5.457   0.639  0.00  0.00    +0.247 C 
ATOM     12  O   UNL     1      -0.907   6.665   0.539  0.00  0.00    -0.270 OA
BRANCH  11  13
ATOM     13  C   UNL     1       0.101   4.582   0.256  0.00  0.00    +0.044 A 
ATOM     14  C   UNL     1       1.037   4.962  -0.772  0.00  0.00    +0.020 A 
ATOM     15  C   UNL     1       2.025   4.091  -1.055  0.00  0.00    +0.046 A 
ATOM     16  S   UNL     1       1.714   2.748   0.073  0.00  0.00    -0.104 S 
ATOM     17  C   UNL     1       0.305   3.363   0.869  0.00  0.00    +0.058 A 
ENDBRANCH  11  13
ENDBRANCH   8  10
BRANCH   8  18
ATOM     18  C   UNL     1      -4.011   5.324   2.654  0.00  0.00    +0.058 C 
BRANCH  18  19
ATOM     19  C   UNL     1      -3.109   5.591   3.831  0.00  0.00    -0.046 A 
ATOM     20  C   UNL     1      -2.379   4.559   4.390  0.00  0.00    +0.004 A 
ATOM     21  C   UNL     1      -1.548   4.804   5.467  0.00  0.00    +0.000 A 
ATOM     22  C   UNL     1      -1.454   6.079   5.992  0.00  0.00    +0.000 A 
ATOM     23  C   UNL     1      -2.189   7.111   5.436  0.00  0.00    +0.000 A 
ATOM     24  C   UNL     1      -3.016   6.866   4.356  0.00  0.00    +0.004 A 
ENDBRANCH  18  19
ENDBRANCH   8  18
ENDBRANCH   1   8
BRANCH   6  25
ATOM     25  C   UNL     1      -5.753   4.511  -3.646  0.00  0.00    -0.039 C 
BRANCH  25  26
ATOM     26  C   UNL     1      -6.247   3.088  -3.696  0.00  0.00    -0.019 A 
ATOM     27  C   UNL     1      -7.505   2.673  -3.433  0.00  0.00    +0.107 A 
ATOM     28  N   UNL     1      -7.542   1.332  -3.588  0.00  0.00    -0.284 N 
ATOM     29  H   UNL     1      -8.344   0.749  -3.460  0.00  0.00    +0.188 HD
ATOM     30  N   UNL     1      -6.263   0.900  -3.960  0.00  0.00    -0.174 NA
ATOM     31  C   UNL     1      -5.479   1.956  -4.031  0.00  0.00    +0.094 A 
BRANCH  31  32
ATOM     32  C   UNL     1      -4.041   1.953  -4.397  0.00  0.00    +0.002 A 
ATOM     33  C   UNL     1      -3.545   2.901  -5.289  0.00  0.00    +0.010 A 
ATOM     34  C   UNL     1      -2.205   2.897  -5.622  0.00  0.00    +0.001 A 
ATOM     35  C   UNL     1      -1.358   1.947  -5.079  0.00  0.00    +0.000 A 
ATOM     36  C   UNL     1      -1.847   1.000  -4.197  0.00  0.00    +0.001 A 
ATOM     37  C   UNL     1      -3.184   0.998  -3.854  0.00  0.00    +0.010 A 
ENDBRANCH  31  32
ENDBRANCH  25  26
ENDBRANCH   6  25
TORSDOF 8
