REMARK  Name = ZINC39781156
REMARK  11 active torsions:
REMARK  status: ('A' for Active; 'I' for Inactive)
REMARK    1  A    between atoms: C_1  and  C_2
REMARK    2  A    between atoms: C_2  and  N_3
REMARK    3  A    between atoms: N_3  and  C_4
REMARK    4  A    between atoms: N_3  and  S_6
REMARK    5  A    between atoms: C_4  and  C_5
REMARK    6  A    between atoms: S_6  and  C_9
REMARK    7  A    between atoms: C_12  and  C_34
REMARK    8  A    between atoms: C_13  and  N_15
REMARK    9  A    between atoms: C_16  and  C_18
REMARK   10  A    between atoms: C_18  and  O_19
REMARK   11  A    between atoms: O_19  and  C_20
REMARK                            x       y       z     vdW  Elec       q    Type
REMARK                         _______ _______ _______ _____ _____    ______ ____
ROOT
ATOM      1  N   UNL     1       4.633   2.308   4.420  0.00  0.00    -0.282 N 
ATOM      2  C   UNL     1       4.761   1.301   5.307  0.00  0.00    +0.255 C 
ATOM      3  O   UNL     1       4.655   0.150   4.938  0.00  0.00    -0.272 OA
ATOM      4  H   UNL     1       4.796   3.223   4.698  0.00  0.00    +0.155 HD
ENDROOT
BRANCH   1   9
ATOM      5  C   UNL     1       3.190   0.611   1.494  0.00  0.00    +0.107 A 
ATOM      6  C   UNL     1       3.536   1.490   0.485  0.00  0.00    +0.029 A 
ATOM      7  C   UNL     1       4.245   2.641   0.779  0.00  0.00    +0.007 A 
ATOM      8  C   UNL     1       4.609   2.915   2.083  0.00  0.00    -0.029 A 
ATOM      9  C   UNL     1       4.264   2.033   3.099  0.00  0.00    +0.038 A 
ATOM     10  C   UNL     1       3.548   0.881   2.801  0.00  0.00    +0.052 A 
ATOM     11  C   UNL     1       5.382   4.168   2.402  0.00  0.00    +0.045 C 
BRANCH   5  12
ATOM     12  S   UNL     1       2.287  -0.854   1.115  0.00  0.00    +0.061 S 
ATOM     13  O   UNL     1       2.555  -1.779   2.159  0.00  0.00    -0.153 OA
ATOM     14  O   UNL     1       2.548  -1.149  -0.251  0.00  0.00    -0.153 OA
BRANCH  12  15
ATOM     15  N   UNL     1       0.678  -0.477   1.218  0.00  0.00    -0.177 NA
BRANCH  15  17
ATOM     16  C   UNL     1      -0.053   1.541   0.045  0.00  0.00    +0.022 C 
ATOM     17  C   UNL     1      -0.038   0.011   0.036  0.00  0.00    +0.106 C 
ENDBRANCH  15  17
BRANCH  15  18
ATOM     18  C   UNL     1      -0.030  -0.631   2.491  0.00  0.00    +0.106 C 
ATOM     19  C   UNL     1      -0.722  -1.995   2.529  0.00  0.00    +0.022 C 
ENDBRANCH  15  18
ENDBRANCH  12  15
ENDBRANCH   5  12
ENDBRANCH   1   9
BRANCH   2  20
ATOM     20  C   UNL     1       5.035   1.604   6.757  0.00  0.00    +0.324 C 
BRANCH  20  21
ATOM     21  O   UNL     1       5.128   0.382   7.491  0.00  0.00    -0.483 OA
BRANCH  21  22
ATOM     22  C   UNL     1       5.374   0.479   8.824  0.00  0.00    +0.120 C 
ATOM     23  C   UNL     1       5.508   1.705   9.367  0.00  0.00    +0.047 C 
ATOM     24  C   UNL     1       5.687   1.830  10.840  0.00  0.00    +0.137 C 
ATOM     25  C   UNL     1       6.289   0.553  11.388  0.00  0.00    -0.012 C 
ATOM     26  C   UNL     1       7.207   0.967  12.323  0.00  0.00    +0.003 A 
ATOM     27  C   UNL     1       7.985   0.251  13.261  0.00  0.00    +0.010 A 
ATOM     28  C   UNL     1       8.832   0.981  14.044  0.00  0.00    +0.001 A 
ATOM     29  C   UNL     1       8.953   2.366  13.957  0.00  0.00    +0.002 A 
ATOM     30  C   UNL     1       8.233   3.130  13.087  0.00  0.00    +0.026 A 
ATOM     31  C   UNL     1       7.320   2.448  12.238  0.00  0.00    +0.044 A 
ATOM     32  N   UNL     1       6.504   2.918  11.335  0.00  0.00    -0.374 N 
ATOM     33  C   UNL     1       6.025  -0.698  10.838  0.00  0.00    +0.010 C 
ATOM     34  C   UNL     1       5.472  -0.712   9.582  0.00  0.00    +0.046 C 
ATOM     35  H   UNL     1       6.454   3.843  11.050  0.00  0.00    +0.161 HD
ENDBRANCH  21  22
ENDBRANCH  20  21
ENDBRANCH   2  20
TORSDOF 8
