REMARK  Name = ZINC66427580
REMARK  9 active torsions:
REMARK  status: ('A' for Active; 'I' for Inactive)
REMARK    1  A    between atoms: C_1  and  C_2
REMARK    2  A    between atoms: C_2  and  C_3
REMARK    3  A    between atoms: C_3  and  C_5
REMARK    4  A    between atoms: C_3  and  N_6
REMARK    5  A    between atoms: C_11  and  C_16
REMARK    6  A    between atoms: C_13  and  C_15
REMARK    7  A    between atoms: N_18  and  C_19
REMARK    8  A    between atoms: C_19  and  C_20
REMARK    9  A    between atoms: C_24  and  C_26
REMARK                            x       y       z     vdW  Elec       q    Type
REMARK                         _______ _______ _______ _____ _____    ______ ____
ROOT
ATOM      1  C   UNL     1      -0.133  -6.496   2.464  0.00  0.00    +0.245 C 
ATOM      2  O   UNL     1       0.409  -6.830   1.428  0.00  0.00    -0.270 OA
ATOM      3  N   UNL     1      -0.617  -7.432   3.304  0.00  0.00    -0.304 N 
ATOM      4  H   UNL     1      -1.049  -7.165   4.130  0.00  0.00    +0.149 HD
ENDROOT
BRANCH   1  10
ATOM      5  N   UNL     1       0.659  -1.972   1.296  0.00  0.00    -0.244 N 
ATOM      6  C   UNL     1       0.093  -2.708   2.305  0.00  0.00    +0.159 A 
ATOM      7  C   UNL     1       0.239  -4.062   1.938  0.00  0.00    +0.051 A 
ATOM      8  C   UNL     1       0.904  -4.086   0.694  0.00  0.00    +0.145 A 
ATOM      9  N   UNL     1       1.139  -2.859   0.325  0.00  0.00    -0.177 NA
ATOM     10  C   UNL     1      -0.260  -5.062   2.802  0.00  0.00    +0.051 A 
ATOM     11  C   UNL     1      -0.876  -4.653   3.982  0.00  0.00    +0.037 A 
ATOM     12  C   UNL     1      -0.977  -3.299   4.263  0.00  0.00    +0.041 A 
ATOM     13  N   UNL     1      -0.504  -2.387   3.443  0.00  0.00    -0.233 NA
ATOM     14  C   UNL     1      -1.645  -2.861   5.541  0.00  0.00    +0.065 C 
BRANCH   5  15
ATOM     15  C   UNL     1       0.742  -0.511   1.242  0.00  0.00    +0.106 C 
ATOM     16  C   UNL     1       2.210  -0.086   1.169  0.00  0.00    +0.032 C 
BRANCH  15  18
ATOM     17  C   UNL     1      -0.019   1.526   0.010  0.00  0.00    +0.006 C 
ATOM     18  C   UNL     1       0.002  -0.004   0.002  0.00  0.00    +0.023 C 
ENDBRANCH  15  18
ENDBRANCH   5  15
ENDBRANCH   1  10
BRANCH   3  19
ATOM     19  C   UNL     1      -0.490  -8.852   2.969  0.00  0.00    +0.180 C 
BRANCH  19  20
ATOM     20  C   UNL     1      -1.107  -9.683   4.065  0.00  0.00    +0.143 A 
ATOM     21  N   UNL     1      -2.363 -10.166   4.075  0.00  0.00    -0.261 N 
ATOM     22  H   UNL     1      -3.035 -10.046   3.387  0.00  0.00    +0.190 HD
ATOM     23  N   UNL     1      -2.508 -10.877   5.277  0.00  0.00    -0.152 NA
ATOM     24  C   UNL     1      -1.358 -10.786   5.912  0.00  0.00    +0.188 A 
ATOM     25  N   UNL     1      -0.511 -10.063   5.164  0.00  0.00    -0.209 NA
BRANCH  24  26
ATOM     26  C   UNL     1      -1.049 -11.386   7.228  0.00  0.00    +0.058 A 
ATOM     27  C   UNL     1      -1.851 -12.141   8.041  0.00  0.00    +0.019 A 
ATOM     28  C   UNL     1      -1.340 -12.598   9.236  0.00  0.00    +0.008 A 
ATOM     29  C   UNL     1      -0.062 -12.286   9.571  0.00  0.00    +0.046 A 
ATOM     30  S   UNL     1       0.468 -11.322   8.165  0.00  0.00    -0.093 S 
ENDBRANCH  24  26
ENDBRANCH  19  20
ENDBRANCH   3  19
TORSDOF 6
