REMARK  Name = ZINC48581460
REMARK  4 active torsions:
REMARK  status: ('A' for Active; 'I' for Inactive)
REMARK    1  A    between atoms: C_3  and  C_8
REMARK    2  A    between atoms: N_13  and  C_14
REMARK    3  A    between atoms: C_14  and  C_15
REMARK    4  A    between atoms: C_15  and  C_16
REMARK                            x       y       z     vdW  Elec       q    Type
REMARK                         _______ _______ _______ _____ _____    ______ ____
ROOT
ATOM      1  C   UNL     1       3.672   2.183  -0.022  0.00  0.00    -0.038 C 
ATOM      2  C   UNL     1       4.260   2.207  -1.449  0.00  0.00    -0.013 C 
ATOM      3  C   UNL     1       5.784   2.062  -1.201  0.00  0.00    -0.020 C 
ATOM      4  C   UNL     1       5.814   1.108   0.019  0.00  0.00    -0.078 C 
ATOM      5  N   UNL     1       4.658   1.519   0.850  0.00  0.00    +0.385 N 
ATOM      6  H   UNL     1       4.240   0.706   1.277  0.00  0.00    -0.081 HD
ENDROOT
BRANCH   1   9
ATOM      7  C   UNL     1      -0.017   1.378   0.010  0.00  0.00    +0.001 A 
ATOM      8  C   UNL     1       1.171   2.086   0.002  0.00  0.00    +0.002 A 
ATOM      9  C   UNL     1       2.378   1.411  -0.013  0.00  0.00    -0.060 A 
ATOM     10  C   UNL     1       2.397   0.029  -0.022  0.00  0.00    +0.017 A 
ATOM     11  C   UNL     1       1.210  -0.679  -0.014  0.00  0.00    +0.018 A 
ATOM     12  C   UNL     1       0.002  -0.004   0.002  0.00  0.00    +0.015 A 
ATOM     13 BR   UNL     1       1.236  -2.570  -0.025  0.00  0.00    -0.050 Br
ENDBRANCH   1   9
BRANCH   5  14
ATOM     14  C   UNL     1       5.102   2.452   1.894  0.00  0.00    -0.069 C 
BRANCH  14  15
ATOM     15  C   UNL     1       6.029   1.722   2.869  0.00  0.00    +0.078 C 
BRANCH  15  16
ATOM     16  C   UNL     1       6.485   2.679   3.940  0.00  0.00    +0.219 C 
ATOM     17  O   UNL     1       6.106   3.830   3.925  0.00  0.00    -0.275 OA
ATOM     18  N   UNL     1       7.314   2.255   4.914  0.00  0.00    -0.240 N 
ATOM     19  C   UNL     1       7.721   3.110   5.872  0.00  0.00    +0.303 C 
ATOM     20  O   UNL     1       7.341   4.265   5.858  0.00  0.00    -0.253 OA
ATOM     21  N   UNL     1       8.550   2.686   6.847  0.00  0.00    -0.313 N 
ATOM     22  H   UNL     1       7.617   1.333   4.926  0.00  0.00    +0.159 HD
ATOM     23  H   UNL     1       8.853   1.765   6.858  0.00  0.00    +0.146 HD
ATOM     24  H   UNL     1       8.843   3.302   7.536  0.00  0.00    +0.146 HD
ENDBRANCH  15  16
ENDBRANCH  14  15
ENDBRANCH   5  14
TORSDOF 4
