REMARK  Name = ZINC22056273
REMARK  11 active torsions:
REMARK  status: ('A' for Active; 'I' for Inactive)
REMARK    1  A    between atoms: C_1  and  C_2
REMARK    2  A    between atoms: C_2  and  C_3
REMARK    3  A    between atoms: C_3  and  C_23
REMARK    4  A    between atoms: C_4  and  C_5
REMARK    5  A    between atoms: C_4  and  C_16
REMARK    6  A    between atoms: C_8  and  O_11
REMARK    7  A    between atoms: O_11  and  C_12
REMARK    8  A    between atoms: C_12  and  C_13
REMARK    9  A    between atoms: C_13  and  N_14
REMARK   10  A    between atoms: N_14  and  C_15
REMARK   11  A    between atoms: C_20  and  O_22
REMARK                            x       y       z     vdW  Elec       q    Type
REMARK                         _______ _______ _______ _____ _____    ______ ____
ROOT
ATOM      1  C   UNL     1       3.930   4.024  -2.869  0.00  0.00    -0.032 C 
ATOM      2  C   UNL     1       3.886   2.737  -2.446  0.00  0.00    -0.007 C 
ENDROOT
BRANCH   2   3
ATOM      3  C   UNL     1       4.390   1.654  -3.319  0.00  0.00    -0.017 A 
ATOM      4  C   UNL     1       3.747   1.372  -4.525  0.00  0.00    +0.012 A 
ATOM      5  C   UNL     1       4.222   0.365  -5.338  0.00  0.00    +0.046 A 
ATOM      6  C   UNL     1       5.332  -0.376  -4.953  0.00  0.00    +0.120 A 
ATOM      7  C   UNL     1       5.971  -0.101  -3.751  0.00  0.00    +0.046 A 
ATOM      8  C   UNL     1       5.505   0.908  -2.935  0.00  0.00    +0.012 A 
BRANCH   6   9
ATOM      9  O   UNL     1       5.794  -1.371  -5.754  0.00  0.00    -0.494 OA
BRANCH   9  10
ATOM     10  C   UNL     1       5.089  -1.600  -6.976  0.00  0.00    +0.210 C 
BRANCH  10  11
ATOM     11  C   UNL     1       5.751  -2.749  -7.739  0.00  0.00    -0.041 C 
BRANCH  11  12
ATOM     12  N   UNL     1       5.609  -3.993  -6.969  0.00  0.00    +0.379 N 
ATOM     13  C   UNL     1       6.234  -5.121  -7.673  0.00  0.00    -0.100 C 
ATOM     14  H   UNL     1       6.095  -3.875  -5.989  0.00  0.00    -0.086 HD
ATOM     15  H   UNL     1       4.542  -4.215  -6.825  0.00  0.00    -0.086 HD
ENDBRANCH  11  12
ENDBRANCH  10  11
ENDBRANCH   9  10
ENDBRANCH   6   9
ENDBRANCH   2   3
BRANCH   2  16
ATOM     16  C   UNL     1       3.334   2.415  -1.111  0.00  0.00    -0.014 A 
ATOM     17  C   UNL     1       1.972   2.586  -0.857  0.00  0.00    +0.009 A 
ATOM     18  C   UNL     1       1.461   2.285   0.389  0.00  0.00    +0.004 A 
ATOM     19  C   UNL     1       2.293   1.810   1.387  0.00  0.00    +0.045 A 
ATOM     20  C   UNL     1       3.650   1.643   1.144  0.00  0.00    +0.117 A 
ATOM     21  C   UNL     1       4.173   1.942  -0.103  0.00  0.00    +0.054 A 
BRANCH  20  22
ATOM     22  O   UNL     1       4.464   1.181   2.130  0.00  0.00    -0.507 OA
ATOM     23  H   UNL     1       5.539   1.048   1.938  0.00  0.00    +0.292 HD
ENDBRANCH  20  22
ENDBRANCH   2  16
BRANCH   1  24
ATOM     24  C   UNL     1       4.367   4.333  -4.239  0.00  0.00    -0.021 A 
ATOM     25  C   UNL     1       5.682   4.067  -4.635  0.00  0.00    +0.008 A 
ATOM     26  C   UNL     1       6.082   4.357  -5.922  0.00  0.00    +0.001 A 
ATOM     27  C   UNL     1       5.190   4.917  -6.819  0.00  0.00    +0.000 A 
ATOM     28  C   UNL     1       3.888   5.188  -6.433  0.00  0.00    +0.001 A 
ATOM     29  C   UNL     1       3.471   4.901  -5.151  0.00  0.00    +0.008 A 
ENDBRANCH   1  24
BRANCH   1  31
ATOM     30  C   UNL     1       4.777   5.686  -1.234  0.00  0.00    +0.009 C 
ATOM     31  C   UNL     1       3.532   5.138  -1.935  0.00  0.00    +0.033 C 
ENDBRANCH   1  31
TORSDOF 9
