REMARK  Name = ZINC56588228
REMARK  7 active torsions:
REMARK  status: ('A' for Active; 'I' for Inactive)
REMARK    1  A    between atoms: C_1  and  C_2
REMARK    2  A    between atoms: C_2  and  C_3
REMARK    3  A    between atoms: C_2  and  C_4
REMARK    4  A    between atoms: C_2  and  N_5
REMARK    5  A    between atoms: C_6  and  C_8
REMARK    6  A    between atoms: C_11  and  N_14
REMARK    7  A    between atoms: C_21  and  C_23
REMARK                            x       y       z     vdW  Elec       q    Type
REMARK                         _______ _______ _______ _____ _____    ______ ____
ROOT
ATOM      1  C   UNL     1       2.675  -0.625  -2.626  0.00  0.00    +0.037 A 
ATOM      2  C   UNL     1       4.054  -0.848  -2.611  0.00  0.00    +0.015 A 
ATOM      3  C   UNL     1       4.691  -1.286  -3.749  0.00  0.00    +0.024 A 
ATOM      4  C   UNL     1       3.964  -1.506  -4.915  0.00  0.00    +0.035 A 
ATOM      5  C   UNL     1       2.591  -1.284  -4.934  0.00  0.00    +0.024 A 
ATOM      6  C   UNL     1       1.946  -0.852  -3.797  0.00  0.00    +0.015 A 
ENDROOT
BRANCH   4   7
ATOM      7  N   UNL     1       4.613  -1.950  -6.067  0.00  0.00    -0.269 N 
ATOM      8  C   UNL     1       5.863  -1.527  -6.341  0.00  0.00    +0.307 C 
ATOM      9  O   UNL     1       6.457  -0.827  -5.544  0.00  0.00    -0.252 OA
ATOM     10  N   UNL     1       6.455  -1.881  -7.498  0.00  0.00    -0.282 N 
ATOM     11  C   UNL     1       5.816  -2.627  -8.598  0.00  0.00    +0.110 C 
ATOM     12  C   UNL     1       6.628  -2.245  -9.861  0.00  0.00    +0.021 C 
ATOM     13  C   UNL     1       8.068  -2.159  -9.291  0.00  0.00    +0.024 C 
ATOM     14  C   UNL     1       7.844  -1.583  -7.877  0.00  0.00    +0.081 C 
ATOM     15  H   UNL     1       4.164  -2.562  -6.671  0.00  0.00    +0.156 HD
BRANCH  14  16
ATOM     16  C   UNL     1       8.807  -2.245  -6.889  0.00  0.00    +0.010 C 
ATOM     17  C   UNL     1      10.265  -1.992  -7.322  0.00  0.00    +0.005 C 
ATOM     18  C   UNL     1      10.998  -3.313  -6.978  0.00  0.00    +0.000 C 
ATOM     19  C   UNL     1       9.946  -4.391  -7.336  0.00  0.00    +0.000 C 
ATOM     20  C   UNL     1       8.604  -3.771  -6.898  0.00  0.00    +0.005 C 
ENDBRANCH  14  16
ENDBRANCH   4   7
BRANCH   1  22
ATOM     21  N   UNL     1       2.692   0.062  -0.278  0.00  0.00    -0.307 N 
ATOM     22  C   UNL     1       1.988  -0.156  -1.407  0.00  0.00    +0.244 C 
ATOM     23  O   UNL     1       0.787   0.033  -1.420  0.00  0.00    -0.270 OA
ATOM     24  H   UNL     1       3.650  -0.088  -0.268  0.00  0.00    +0.150 HD
BRANCH  21  26
ATOM     25  C   UNL     1       0.953  -0.497   1.348  0.00  0.00    +0.031 C 
ATOM     26  C   UNL     1       2.010   0.528   0.932  0.00  0.00    +0.026 C 
ATOM     27  C   UNL     1       1.335   1.872   0.652  0.00  0.00    +0.031 C 
ATOM     28  C   UNL     1       3.030   0.695   2.060  0.00  0.00    +0.031 C 
ENDBRANCH  21  26
ENDBRANCH   1  22
TORSDOF 4
