REMARK  Name = ZINC01069434
REMARK  4 active torsions:
REMARK  status: ('A' for Active; 'I' for Inactive)
REMARK    1  A    between atoms: C_6  and  C_7
REMARK    2  A    between atoms: N_9  and  S_13
REMARK    3  A    between atoms: S_13  and  C_16
REMARK    4  A    between atoms: C_19  and  N_22
REMARK                            x       y       z     vdW  Elec       q    Type
REMARK                         _______ _______ _______ _____ _____    ______ ____
ROOT
ATOM      1  C   UNL     1      -2.505   1.002   0.019  0.00  0.00    +0.043 A 
ATOM      2  C   UNL     1      -3.553   1.191   0.872  0.00  0.00    +0.146 A 
ATOM      3  N   UNL     1      -4.517   0.308   0.540  0.00  0.00    -0.134 N 
ATOM      4  N   UNL     1      -4.060  -0.458  -0.539  0.00  0.00    -0.134 NA
ATOM      5  C   UNL     1      -2.855  -0.051  -0.858  0.00  0.00    +0.148 A 
ATOM      6  N   UNL     1      -2.058  -0.565  -1.885  0.00  0.00    -0.341 N 
ATOM      7  H   UNL     1      -1.175  -0.196  -2.045  0.00  0.00    +0.144 HD
ATOM      8  H   UNL     1      -2.387  -1.292  -2.437  0.00  0.00    +0.144 HD
ENDROOT
BRANCH   1  14
ATOM      9  C   UNL     1      -0.013   1.076   0.008  0.00  0.00    +0.010 A 
ATOM     10  C   UNL     1       1.172   1.783   0.000  0.00  0.00    +0.016 A 
ATOM     11  C   UNL     1       1.155   3.167   0.008  0.00  0.00    +0.018 A 
ATOM     12  C   UNL     1      -0.050   3.849   0.023  0.00  0.00    +0.016 A 
ATOM     13  C   UNL     1      -1.240   3.151   0.031  0.00  0.00    +0.010 A 
ATOM     14  C   UNL     1      -1.228   1.757   0.017  0.00  0.00    -0.013 A 
ATOM     15 BR   UNL     1       2.782   4.130  -0.004  0.00  0.00    -0.050 Br
ENDBRANCH   1  14
BRANCH   3  16
ATOM     16  S   UNL     1      -5.987   0.153   1.285  0.00  0.00    +0.099 S 
ATOM     17  O   UNL     1      -6.267   1.405   1.896  0.00  0.00    -0.146 OA
ATOM     18  O   UNL     1      -6.862  -0.445   0.338  0.00  0.00    -0.146 OA
BRANCH  16  19
ATOM     19  C   UNL     1      -5.788  -1.012   2.592  0.00  0.00    +0.113 A 
ATOM     20  C   UNL     1      -6.001  -2.357   2.358  0.00  0.00    +0.031 A 
ATOM     21  C   UNL     1      -5.841  -3.272   3.382  0.00  0.00    +0.034 A 
ATOM     22  C   UNL     1      -5.476  -2.839   4.644  0.00  0.00    +0.126 A 
ATOM     23  C   UNL     1      -5.268  -1.493   4.880  0.00  0.00    +0.034 A 
ATOM     24  C   UNL     1      -5.424  -0.580   3.854  0.00  0.00    +0.031 A 
BRANCH  22  25
ATOM     25  N   UNL     1      -5.308  -3.818   5.741  0.00  0.00    +0.056 N 
ATOM     26  O   UNL     1      -4.987  -3.437   6.853  0.00  0.00    -0.126 OA
ATOM     27  O   UNL     1      -5.491  -5.004   5.533  0.00  0.00    -0.126 OA
ENDBRANCH  22  25
ENDBRANCH  16  19
ENDBRANCH   3  16
TORSDOF 4
