REMARK  Name = ZINC35736358
REMARK  3 active torsions:
REMARK  status: ('A' for Active; 'I' for Inactive)
REMARK    1  A    between atoms: C_1  and  C_2
REMARK    2  A    between atoms: C_2  and  C_4
REMARK    3  A    between atoms: C_2  and  N_10
REMARK                            x       y       z     vdW  Elec       q    Type
REMARK                         _______ _______ _______ _____ _____    ______ ____
ROOT
ATOM      1  N   UNL     1       0.711  -0.489   1.189  0.00  0.00    -0.318 N 
ATOM      2  C   UNL     1       2.086  -0.603   1.173  0.00  0.00    +0.160 A 
ATOM      3  N   UNL     1       2.925  -0.322   0.202  0.00  0.00    -0.225 NA
ATOM      4  C   UNL     1       4.261  -0.483   0.328  0.00  0.00    +0.082 A 
ATOM      5  C   UNL     1       5.266  -0.221  -0.632  0.00  0.00    +0.029 A 
ATOM      6  C   UNL     1       6.587  -0.441  -0.341  0.00  0.00    +0.004 A 
ATOM      7  C   UNL     1       6.986  -0.926   0.896  0.00  0.00    +0.021 A 
ATOM      8  C   UNL     1       6.029  -1.193   1.859  0.00  0.00    +0.057 A 
ATOM      9  C   UNL     1       4.703  -0.975   1.576  0.00  0.00    +0.059 A 
ATOM     10  S   UNL     1       3.180  -1.161   2.472  0.00  0.00    -0.051 S 
ATOM     11 CL   UNL     1       6.502  -1.801   3.416  0.00  0.00    -0.082 Cl
ATOM     12  H   UNL     1       0.213  -0.731   1.986  0.00  0.00    +0.148 HD
ENDROOT
BRANCH   1  14
ATOM     13  C   UNL     1      -0.019   1.526   0.010  0.00  0.00    +0.030 C 
ATOM     14  C   UNL     1       0.002  -0.004   0.002  0.00  0.00    +0.098 C 
BRANCH  14  15
ATOM     15  C   UNL     1      -1.433  -0.534   0.013  0.00  0.00    +0.138 C 
ATOM     16  C   UNL     1      -1.437  -2.075   0.166  0.00  0.00    +0.035 C 
ATOM     17  C   UNL     1      -2.841  -2.307   0.788  0.00  0.00    +0.031 C 
ATOM     18  C   UNL     1      -3.022  -1.050   1.665  0.00  0.00    +0.160 C 
ATOM     19  O   UNL     1      -2.139  -0.039   1.162  0.00  0.00    -0.375 OA
ENDBRANCH  14  15
ENDBRANCH   1  14
TORSDOF 2
