REMARK  Name = ZINC62703897
REMARK  8 active torsions:
REMARK  status: ('A' for Active; 'I' for Inactive)
REMARK    1  A    between atoms: C_3  and  O_8
REMARK    2  A    between atoms: O_8  and  C_9
REMARK    3  A    between atoms: C_9  and  C_10
REMARK    4  A    between atoms: C_10  and  O_11
REMARK    5  A    between atoms: O_11  and  C_12
REMARK    6  A    between atoms: C_15  and  C_19
REMARK    7  A    between atoms: C_19  and  C_20
REMARK    8  A    between atoms: C_20  and  N_21
REMARK                            x       y       z     vdW  Elec       q    Type
REMARK                         _______ _______ _______ _____ _____    ______ ____
ROOT
ATOM      1  C   UNL     1       7.003   3.920   1.337  0.00  0.00    +0.135 A 
ATOM      2  C   UNL     1       7.942   4.088   0.330  0.00  0.00    +0.047 A 
ATOM      3  C   UNL     1       8.971   4.997   0.491  0.00  0.00    +0.007 A 
ATOM      4  C   UNL     1       9.065   5.738   1.655  0.00  0.00    -0.048 A 
ATOM      5  C   UNL     1       8.131   5.572   2.660  0.00  0.00    +0.022 A 
ATOM      6  C   UNL     1       7.096   4.668   2.502  0.00  0.00    +0.060 A 
ATOM      7 BR   UNL     1       5.814   4.448   3.874  0.00  0.00    -0.047 Br
ENDROOT
BRANCH   1   8
ATOM      8  O   UNL     1       5.991   3.026   1.181  0.00  0.00    -0.487 OA
BRANCH   8   9
ATOM      9  C   UNL     1       5.958   2.291  -0.043  0.00  0.00    +0.270 C 
BRANCH   9  10
ATOM     10  C   UNL     1       4.757   1.343  -0.037  0.00  0.00    +0.270 C 
BRANCH  10  11
ATOM     11  O   UNL     1       3.548   2.105  -0.021  0.00  0.00    -0.489 OA
BRANCH  11  14
ATOM     12  C   UNL     1      -0.017   1.378   0.010  0.00  0.00    +0.005 A 
ATOM     13  C   UNL     1       1.170   2.087   0.002  0.00  0.00    +0.046 A 
ATOM     14  C   UNL     1       2.381   1.410  -0.013  0.00  0.00    +0.122 A 
ATOM     15  C   UNL     1       2.398   0.023  -0.021  0.00  0.00    +0.061 A 
ATOM     16  C   UNL     1       1.208  -0.682  -0.013  0.00  0.00    +0.021 A 
ATOM     17  C   UNL     1       0.002  -0.004   0.002  0.00  0.00    +0.015 A 
ATOM     18 BR   UNL     1       1.230  -2.573  -0.024  0.00  0.00    -0.050 Br
ENDBRANCH  11  14
ENDBRANCH  10  11
ENDBRANCH   9  10
ENDBRANCH   8   9
ENDBRANCH   1   8
BRANCH   4  19
ATOM     19  C   UNL     1      10.188   6.728   1.827  0.00  0.00    +0.015 C 
BRANCH  19  20
ATOM     20  C   UNL     1       9.750   8.094   1.295  0.00  0.00    -0.082 C 
BRANCH  20  21
ATOM     21  N   UNL     1      10.845   9.058   1.464  0.00  0.00    +0.378 N 
ATOM     22  H   UNL     1      11.077   9.137   2.442  0.00  0.00    -0.090 HD
ATOM     23  H   UNL     1      11.655   8.741   0.951  0.00  0.00    -0.090 HD
ATOM     24  H   UNL     1      10.557   9.959   1.113  0.00  0.00    -0.090 HD
ENDBRANCH  20  21
ENDBRANCH  19  20
ENDBRANCH   4  19
TORSDOF 8
