REMARK  Name = ZINC19503411
REMARK  12 active torsions:
REMARK  status: ('A' for Active; 'I' for Inactive)
REMARK    1  A    between atoms: C_1  and  C_2
REMARK    2  A    between atoms: C_2  and  C_3
REMARK    3  A    between atoms: C_3  and  N_4
REMARK    4  A    between atoms: N_7  and  C_10
REMARK    5  A    between atoms: C_10  and  C_12
REMARK    6  A    between atoms: C_10  and  C_26
REMARK    7  A    between atoms: C_16  and  C_25
REMARK    8  A    between atoms: C_18  and  C_24
REMARK    9  A    between atoms: N_30  and  C_31
REMARK   10  A    between atoms: C_31  and  C_32
REMARK   11  A    between atoms: C_31  and  C_33
REMARK   12  A    between atoms: C_31  and  C_34
REMARK                            x       y       z     vdW  Elec       q    Type
REMARK                         _______ _______ _______ _____ _____    ______ ____
ROOT
ATOM      1  C   UNL     1      -2.574   0.949   0.055  0.00  0.00    +0.162 C 
ENDROOT
BRANCH   1   2
ATOM      2  C   UNL     1      -1.411   1.891   0.234  0.00  0.00    +0.042 A 
ATOM      3  C   UNL     1      -0.145   1.406   0.250  0.00  0.00    +0.021 A 
ATOM      4  C   UNL     1       0.963   2.348   0.419  0.00  0.00    -0.001 A 
ATOM      5  C   UNL     1       2.290   1.908   0.438  0.00  0.00    +0.013 A 
ATOM      6  C   UNL     1       3.301   2.813   0.597  0.00  0.00    -0.050 A 
ATOM      7  C   UNL     1       3.023   4.165   0.742  0.00  0.00    +0.008 A 
ATOM      8  C   UNL     1       1.722   4.621   0.727  0.00  0.00    -0.026 A 
ATOM      9  C   UNL     1       0.676   3.718   0.565  0.00  0.00    +0.052 A 
ATOM     10  N   UNL     1      -0.634   4.147   0.547  0.00  0.00    -0.322 N 
ATOM     11  H   UNL     1      -0.865   5.216   0.660  0.00  0.00    +0.169 HD
ATOM     12  C   UNL     1      -1.645   3.274   0.391  0.00  0.00    +0.254 A 
ATOM     13  O   UNL     1      -2.791   3.688   0.379  0.00  0.00    -0.268 OA
ATOM     14  C   UNL     1       1.435   6.092   0.884  0.00  0.00    +0.046 C 
ATOM     15  C   UNL     1       4.732   2.339   0.617  0.00  0.00    +0.044 C 
ENDBRANCH   1   2
BRANCH   1  19
ATOM     16  N   UNL     1      -5.001   0.287   3.449  0.00  0.00    +0.381 N 
ATOM     17  C   UNL     1      -5.667   0.484   2.154  0.00  0.00    -0.063 C 
ATOM     18  C   UNL     1      -4.669   0.217   1.024  0.00  0.00    +0.067 C 
ATOM     19  N   UNL     1      -3.520   1.122   1.165  0.00  0.00    -0.292 NA
ATOM     20  C   UNL     1      -2.854   0.925   2.460  0.00  0.00    +0.067 C 
ATOM     21  C   UNL     1      -3.852   1.192   3.590  0.00  0.00    -0.063 C 
ATOM     22  H   UNL     1      -4.626  -0.747   3.484  0.00  0.00    -0.082 HD
BRANCH  16  23
ATOM     23  C   UNL     1      -5.947   0.461   4.559  0.00  0.00    -0.079 C 
BRANCH  23  25
ATOM     24  C   UNL     1      -6.165   0.677   7.038  0.00  0.00    +0.002 C 
ATOM     25  C   UNL     1      -5.180   0.496   5.882  0.00  0.00    -0.022 C 
ENDBRANCH  23  25
ENDBRANCH  16  23
ENDBRANCH   1  19
BRANCH   1  26
ATOM     26  C   UNL     1      -3.268   1.249  -1.248  0.00  0.00    +0.174 A 
ATOM     27  N   UNL     1      -3.972   2.318  -1.532  0.00  0.00    -0.111 NA
ATOM     28  N   UNL     1      -4.399   2.204  -2.742  0.00  0.00    -0.023 NA
ATOM     29  N   UNL     1      -3.986   1.090  -3.238  0.00  0.00    -0.043 NA
ATOM     30  N   UNL     1      -3.281   0.475  -2.349  0.00  0.00    -0.222 N 
BRANCH  30  31
ATOM     31  C   UNL     1      -2.620  -0.823  -2.508  0.00  0.00    +0.059 C 
ATOM     32  C   UNL     1      -3.218  -1.824  -1.517  0.00  0.00    +0.036 C 
ATOM     33  C   UNL     1      -2.831  -1.331  -3.936  0.00  0.00    +0.036 C 
ATOM     34  C   UNL     1      -1.123  -0.670  -2.237  0.00  0.00    +0.036 C 
ENDBRANCH  30  31
ENDBRANCH   1  26
TORSDOF 6
