REMARK  Name = ZINC44234582
REMARK  13 active torsions:
REMARK  status: ('A' for Active; 'I' for Inactive)
REMARK    1  A    between atoms: C_1  and  C_2
REMARK    2  A    between atoms: C_3  and  C_27
REMARK    3  A    between atoms: C_4  and  C_26
REMARK    4  A    between atoms: C_5  and  S_10
REMARK    5  A    between atoms: C_6  and  C_9
REMARK    6  A    between atoms: C_7  and  C_8
REMARK    7  A    between atoms: S_10  and  O_13
REMARK    8  A    between atoms: O_13  and  C_14
REMARK    9  A    between atoms: C_17  and  C_20
REMARK   10  A    between atoms: C_20  and  C_22
REMARK   11  A    between atoms: C_20  and  N_25
REMARK   12  A    between atoms: C_22  and  C_23
REMARK   13  A    between atoms: C_23  and  O_24
REMARK                            x       y       z     vdW  Elec       q    Type
REMARK                         _______ _______ _______ _____ _____    ______ ____
ROOT
ATOM      1  O   UNL     1       1.446  -5.166   0.397  0.00  0.00    -0.342 OA
ENDROOT
BRANCH   1   2
ATOM      2  C   UNL     1       0.578  -5.600   1.348  0.00  0.00    +0.157 A 
ATOM      3  C   UNL     1       0.240  -4.773   2.410  0.00  0.00    +0.049 A 
ATOM      4  C   UNL     1      -0.642  -5.217   3.376  0.00  0.00    +0.005 A 
ATOM      5  C   UNL     1      -1.188  -6.484   3.285  0.00  0.00    -0.062 A 
ATOM      6  C   UNL     1      -0.853  -7.310   2.228  0.00  0.00    +0.005 A 
ATOM      7  C   UNL     1       0.024  -6.869   1.257  0.00  0.00    +0.049 A 
BRANCH   5   8
ATOM      8  C   UNL     1      -2.151  -6.965   4.340  0.00  0.00    -0.042 C 
BRANCH   8   9
ATOM      9  N   UNL     1      -3.237  -7.721   3.703  0.00  0.00    +0.383 N 
ATOM     10  H   UNL     1      -3.724  -7.125   3.051  0.00  0.00    -0.089 HD
ATOM     11  H   UNL     1      -2.853  -8.514   3.212  0.00  0.00    -0.089 HD
ATOM     12  H   UNL     1      -3.882  -8.043   4.410  0.00  0.00    -0.089 HD
ENDBRANCH   8   9
BRANCH   8  13
ATOM     13  C   UNL     1      -1.412  -7.869   5.330  0.00  0.00    +0.016 C 
BRANCH  13  14
ATOM     14  C   UNL     1      -2.357  -8.257   6.469  0.00  0.00    +0.154 C 
BRANCH  14  15
ATOM     15  O   UNL     1      -1.667  -9.101   7.393  0.00  0.00    -0.395 OA
ATOM     16  H   UNL     1      -2.207  -9.386   8.143  0.00  0.00    +0.209 HD
ENDBRANCH  14  15
ENDBRANCH  13  14
ENDBRANCH   8  13
ENDBRANCH   5   8
ENDBRANCH   1   2
BRANCH   1  17
ATOM     17  S   UNL     1       0.797  -4.332  -0.699  0.00  0.00    +0.151 S 
ATOM     18  O   UNL     1      -0.608  -4.452  -0.522  0.00  0.00    -0.131 OA
ATOM     19  O   UNL     1       1.445  -4.683  -1.914  0.00  0.00    -0.131 OA
BRANCH  17  24
ATOM     20  C   UNL     1       2.183   1.438   0.393  0.00  0.00    +0.044 C 
ATOM     21  C   UNL     1       1.837  -0.003   0.120  0.00  0.00    -0.044 A 
ATOM     22  C   UNL     1       0.771  -0.314  -0.704  0.00  0.00    -0.042 A 
ATOM     23  C   UNL     1       0.454  -1.636  -0.955  0.00  0.00    -0.019 A 
ATOM     24  C   UNL     1       1.202  -2.647  -0.381  0.00  0.00    +0.134 A 
ATOM     25  C   UNL     1       2.268  -2.336   0.443  0.00  0.00    -0.019 A 
ATOM     26  C   UNL     1       2.588  -1.014   0.689  0.00  0.00    -0.042 A 
ATOM     27  C   UNL     1       3.753  -0.675   1.583  0.00  0.00    +0.044 C 
ATOM     28  C   UNL     1       3.083  -3.438   1.068  0.00  0.00    +0.046 C 
ATOM     29  C   UNL     1      -0.708  -1.975  -1.852  0.00  0.00    +0.046 C 
ATOM     30  C   UNL     1      -0.044   0.788  -1.329  0.00  0.00    +0.044 C 
ENDBRANCH  17  24
ENDBRANCH   1  17
TORSDOF 8
