REMARK  Name = ZINC35363843
REMARK  9 active torsions:
REMARK  status: ('A' for Active; 'I' for Inactive)
REMARK    1  A    between atoms: C_1  and  C_2
REMARK    2  A    between atoms: C_4  and  C_37
REMARK    3  A    between atoms: C_13  and  C_16
REMARK    4  A    between atoms: C_16  and  C_18
REMARK    5  A    between atoms: C_16  and  O_19
REMARK    6  A    between atoms: N_22  and  C_25
REMARK    7  A    between atoms: C_25  and  C_26
REMARK    8  A    between atoms: C_31  and  O_32
REMARK    9  A    between atoms: O_32  and  C_33
REMARK                            x       y       z     vdW  Elec       q    Type
REMARK                         _______ _______ _______ _____ _____    ______ ____
ROOT
ATOM      1  C   UNL     1      -0.018   1.503   0.010  0.00  0.00    +0.044 C 
ATOM      2  C   UNL     1       0.002  -0.004   0.002  0.00  0.00    -0.050 A 
ATOM      3  C   UNL     1       0.006  -0.691  -1.198  0.00  0.00    +0.008 A 
ATOM      4  C   UNL     1       0.025  -2.070  -1.212  0.00  0.00    -0.029 A 
ATOM      5  C   UNL     1       0.041  -2.782  -0.015  0.00  0.00    +0.042 A 
ATOM      6  C   UNL     1       0.036  -2.081   1.187  0.00  0.00    +0.004 A 
ATOM      7  C   UNL     1       0.023  -0.704   1.195  0.00  0.00    +0.011 A 
ATOM      8  C   UNL     1       0.056  -3.122   2.270  0.00  0.00    +0.136 C 
ATOM      9  C   UNL     1      -1.166  -3.002   3.187  0.00  0.00    +0.123 C 
ATOM     10  C   UNL     1      -0.633  -3.365   4.601  0.00  0.00    +0.109 C 
ATOM     11  C   UNL     1       0.864  -3.677   4.391  0.00  0.00    +0.096 C 
ATOM     12  N   UNL     1       1.235  -2.971   3.143  0.00  0.00    -0.293 NA
ATOM     13  C   UNL     1      -1.377  -4.638   4.938  0.00  0.00    +0.228 C 
ATOM     14  O   UNL     1      -1.260  -5.266   5.968  0.00  0.00    -0.275 OA
ATOM     15  N   UNL     1      -2.183  -4.964   3.921  0.00  0.00    -0.237 N 
ATOM     16  C   UNL     1      -2.151  -4.106   2.876  0.00  0.00    +0.229 C 
ATOM     17  O   UNL     1      -2.798  -4.200   1.855  0.00  0.00    -0.275 OA
ATOM     18  C   UNL     1       0.073  -4.440   1.545  0.00  0.00    +0.243 C 
ATOM     19  O   UNL     1       0.093  -5.543   2.049  0.00  0.00    -0.273 OA
ATOM     20  N   UNL     1       0.062  -4.157   0.228  0.00  0.00    -0.283 N 
ATOM     21  C   UNL     1       0.030  -2.808  -2.526  0.00  0.00    +0.045 C 
ATOM     22  H   UNL     1       2.053  -3.382   2.719  0.00  0.00    +0.124 HD
ATOM     23  H   UNL     1       0.068  -4.831  -0.470  0.00  0.00    +0.155 HD
ENDROOT
BRANCH  11  24
ATOM     24  C   UNL     1       1.686  -3.167   5.576  0.00  0.00    +0.129 C 
ATOM     25  C   UNL     1       3.175  -3.373   5.291  0.00  0.00    +0.039 C 
BRANCH  24  26
ATOM     26  O   UNL     1       1.427  -1.775   5.772  0.00  0.00    -0.390 OA
ATOM     27  H   UNL     1       1.651  -1.223   5.011  0.00  0.00    +0.210 HD
ENDBRANCH  24  26
ENDBRANCH  11  24
BRANCH  15  28
ATOM     28  C   UNL     1      -3.040  -6.152   3.939  0.00  0.00    +0.155 C 
BRANCH  28  29
ATOM     29  C   UNL     1      -4.380  -5.796   4.529  0.00  0.00    +0.012 A 
ATOM     30  C   UNL     1      -4.655  -6.098   5.850  0.00  0.00    +0.009 A 
ATOM     31  C   UNL     1      -5.884  -5.772   6.392  0.00  0.00    +0.001 A 
ATOM     32  C   UNL     1      -6.841  -5.145   5.616  0.00  0.00    +0.004 A 
ATOM     33  C   UNL     1      -6.571  -4.841   4.296  0.00  0.00    +0.046 A 
ATOM     34  C   UNL     1      -5.336  -5.162   3.750  0.00  0.00    +0.125 A 
BRANCH  34  35
ATOM     35  O   UNL     1      -5.066  -4.859   2.453  0.00  0.00    -0.495 OA
ATOM     36  C   UNL     1      -6.097  -4.206   1.711  0.00  0.00    +0.277 C 
ENDBRANCH  34  35
ENDBRANCH  28  29
ENDBRANCH  15  28
TORSDOF 5
