REMARK  Name = ZINC01471625
REMARK  4 active torsions:
REMARK  status: ('A' for Active; 'I' for Inactive)
REMARK    1  A    between atoms: C_3  and  C_6
REMARK    2  A    between atoms: C_10  and  N_24
REMARK    3  A    between atoms: C_11  and  C_15
REMARK    4  A    between atoms: C_15  and  C_17
REMARK                            x       y       z     vdW  Elec       q    Type
REMARK                         _______ _______ _______ _____ _____    ______ ____
ROOT
ATOM      1  C   UNL     1      -1.230   2.187   0.136  0.00  0.00    +0.107 A 
ATOM      2  C   UNL     1      -2.502   1.599   0.153  0.00  0.00    +0.032 A 
ATOM      3  C   UNL     1      -3.620   2.375   0.153  0.00  0.00    +0.014 A 
ATOM      4  C   UNL     1      -3.483   3.789   0.123  0.00  0.00    +0.029 A 
ATOM      5  C   UNL     1      -4.529   4.797   0.111  0.00  0.00    +0.052 A 
ATOM      6  C   UNL     1      -4.156   6.128   0.080  0.00  0.00    +0.083 A 
ATOM      7  S   UNL     1      -2.375   6.056   0.066  0.00  0.00    -0.064 S 
ATOM      8  C   UNL     1      -2.162   4.293   0.101  0.00  0.00    +0.111 A 
ATOM      9  N   UNL     1      -1.106   3.510   0.108  0.00  0.00    -0.236 NA
ENDROOT
BRANCH   1  12
ATOM     10  C   UNL     1       2.080   0.627   0.129  0.00  0.00    +0.042 A 
ATOM     11  C   UNL     1       1.263   1.773   0.117  0.00  0.00    +0.051 A 
ATOM     12  C   UNL     1      -0.026   1.335   0.142  0.00  0.00    +0.153 A 
ATOM     13  O   UNL     1      -0.011  -0.012   0.169  0.00  0.00    -0.461 OA
ATOM     14  C   UNL     1       1.260  -0.443   0.161  0.00  0.00    +0.196 A 
ENDBRANCH   1  12
BRANCH   5  15
ATOM     15  N   UNL     1      -5.867   4.434   0.129  0.00  0.00    -0.356 N 
ATOM     16  H   UNL     1      -6.115   3.497   0.151  0.00  0.00    +0.142 HD
ATOM     17  H   UNL     1      -6.555   5.118   0.121  0.00  0.00    +0.142 HD
ENDBRANCH   5  15
BRANCH   6  18
ATOM     18  C   UNL     1      -4.987   7.271   0.063  0.00  0.00    +0.202 C 
ATOM     19  O   UNL     1      -6.194   7.146  -0.046  0.00  0.00    -0.286 OA
BRANCH  18  20
ATOM     20  C   UNL     1      -4.391   8.620   0.178  0.00  0.00    +0.023 A 
ATOM     21  C   UNL     1      -3.145   8.787   0.787  0.00  0.00    +0.013 A 
ATOM     22  C   UNL     1      -2.592  10.046   0.885  0.00  0.00    +0.021 A 
ATOM     23  C   UNL     1      -3.275  11.146   0.393  0.00  0.00    +0.041 A 
ATOM     24  C   UNL     1      -4.513  10.988  -0.207  0.00  0.00    +0.021 A 
ATOM     25  C   UNL     1      -5.074   9.732  -0.317  0.00  0.00    +0.013 A 
ATOM     26 CL   UNL     1      -2.575  12.729   0.527  0.00  0.00    -0.084 Cl
ENDBRANCH  18  20
ENDBRANCH   6  18
TORSDOF 4
