REMARK  Name = ZINC39545702
REMARK  6 active torsions:
REMARK  status: ('A' for Active; 'I' for Inactive)
REMARK    1  A    between atoms: C_1  and  O_2
REMARK    2  A    between atoms: O_2  and  N_3
REMARK    3  A    between atoms: N_3  and  S_21
REMARK    4  A    between atoms: C_4  and  C_6
REMARK    5  A    between atoms: S_21  and  O_24
REMARK    6  A    between atoms: O_24  and  C_25
REMARK                            x       y       z     vdW  Elec       q    Type
REMARK                         _______ _______ _______ _____ _____    ______ ____
ROOT
ATOM      1  C   UNL     1      -1.239  -0.441  -2.432  0.00  0.00    +0.153 C 
ATOM      2  C   UNL     1       0.051  -1.251  -2.668  0.00  0.00    +0.081 C 
ATOM      3  C   UNL     1      -0.215  -1.999  -3.955  0.00  0.00    +0.055 C 
ATOM      4  C   UNL     1      -1.408  -1.693  -4.399  0.00  0.00    +0.090 C 
ATOM      5  N   UNL     1      -2.024  -2.218  -5.552  0.00  0.00    -0.303 N 
ATOM      6  C   UNL     1      -3.409  -2.428  -5.438  0.00  0.00    +0.037 A 
ATOM      7  C   UNL     1      -4.099  -3.048  -6.470  0.00  0.00    +0.023 A 
ATOM      8  C   UNL     1      -5.462  -3.245  -6.362  0.00  0.00    +0.002 A 
ATOM      9  C   UNL     1      -6.131  -2.825  -5.226  0.00  0.00    +0.000 A 
ATOM     10  C   UNL     1      -5.442  -2.212  -4.197  0.00  0.00    +0.007 A 
ATOM     11  C   UNL     1      -4.075  -2.013  -4.294  0.00  0.00    -0.010 A 
ATOM     12  C   UNL     1      -3.348  -1.365  -3.145  0.00  0.00    +0.124 C 
ATOM     13  N   UNL     1      -2.086  -0.765  -3.591  0.00  0.00    -0.369 NA
ATOM     14 CL   UNL     1       0.890  -3.095  -4.725  0.00  0.00    -0.085 Cl
ATOM     15  H   UNL     1      -1.530  -2.419  -6.362  0.00  0.00    +0.153 HD
ATOM     16  H   UNL     1      -2.276   0.073  -4.118  0.00  0.00    +0.129 HD
ENDROOT
BRANCH   1  18
ATOM     17  N   UNL     1      -1.159  -1.227  -0.087  0.00  0.00    -0.011 N 
ATOM     18  C   UNL     1      -1.907  -0.874  -1.152  0.00  0.00    +0.282 C 
ATOM     19  O   UNL     1      -3.117  -0.904  -1.079  0.00  0.00    -0.270 OA
BRANCH  17  20
ATOM     20  S   UNL     1      -1.892  -1.640   1.339  0.00  0.00    +0.235 S 
ATOM     21  O   UNL     1      -3.206  -2.070   1.011  0.00  0.00    -0.113 OA
ATOM     22  O   UNL     1      -0.974  -2.465   2.043  0.00  0.00    -0.113 OA
BRANCH  20  23
ATOM     23  O   UNL     1      -2.042  -0.363   2.154  0.00  0.00    -0.330 OA
BRANCH  23  24
ATOM     24  C   UNL     1      -3.033   0.459   1.716  0.00  0.00    +0.158 A 
ATOM     25  C   UNL     1      -2.760   1.429   0.763  0.00  0.00    +0.048 A 
ATOM     26  C   UNL     1      -3.768   2.263   0.319  0.00  0.00    +0.004 A 
ATOM     27  C   UNL     1      -5.048   2.130   0.824  0.00  0.00    +0.000 A 
ATOM     28  C   UNL     1      -5.323   1.164   1.774  0.00  0.00    +0.004 A 
ATOM     29  C   UNL     1      -4.319   0.324   2.217  0.00  0.00    +0.048 A 
ENDBRANCH  23  24
ENDBRANCH  20  23
ENDBRANCH  17  20
BRANCH  17  31
ATOM     30  C   UNL     1       0.877  -0.005   0.152  0.00  0.00    +0.229 C 
ATOM     31  O   UNL     1       0.253  -1.245  -0.189  0.00  0.00    -0.258 OA
ENDBRANCH  17  31
ENDBRANCH   1  18
TORSDOF 5
