REMARK  Name = ZINC09541873
REMARK  4 active torsions:
REMARK  status: ('A' for Active; 'I' for Inactive)
REMARK    1  A    between atoms: C_4  and  O_28
REMARK    2  A    between atoms: C_5  and  C_7
REMARK    3  A    between atoms: C_10  and  C_21
REMARK    4  A    between atoms: C_12  and  C_14
REMARK                            x       y       z     vdW  Elec       q    Type
REMARK                         _______ _______ _______ _____ _____    ______ ____
ROOT
ATOM      1  C   UNL     1       2.490   1.047  -0.015  0.00  0.00    -0.028 C 
ATOM      2  C   UNL     1       3.000   0.870   1.418  0.00  0.00    +0.044 C 
ATOM      3  C   UNL     1       4.128  -0.124   1.430  0.00  0.00    +0.040 C 
ATOM      4  N   UNL     1       4.372  -0.916   0.455  0.00  0.00    -0.299 NA
ATOM      5  C   UNL     1       3.604  -0.950  -0.783  0.00  0.00    +0.081 C 
ATOM      6  N   UNL     1       2.300  -0.292  -0.607  0.00  0.00    +0.401 N 
ATOM      7  H   UNL     1       1.840  -0.199  -1.520  0.00  0.00    -0.081 HD
ATOM      8  H   UNL     1       1.714  -0.860   0.016  0.00  0.00    -0.081 HD
ENDROOT
BRANCH   5   9
ATOM      9  C   UNL     1       4.376  -0.242  -1.866  0.00  0.00    -0.040 A 
ATOM     10  C   UNL     1       3.703   0.377  -2.903  0.00  0.00    +0.005 A 
ATOM     11  C   UNL     1       4.411   1.032  -3.894  0.00  0.00    +0.020 A 
ATOM     12  C   UNL     1       5.794   1.057  -3.854  0.00  0.00    +0.041 A 
ATOM     13  C   UNL     1       6.467   0.432  -2.819  0.00  0.00    +0.020 A 
ATOM     14  C   UNL     1       5.758  -0.217  -1.826  0.00  0.00    +0.005 A 
ATOM     15 CL   UNL     1       6.684   1.872  -5.102  0.00  0.00    -0.084 Cl
ENDBRANCH   5   9
BRANCH   3  16
ATOM     16  C   UNL     1       4.995  -0.190   2.623  0.00  0.00    -0.003 A 
ATOM     17  C   UNL     1       6.053  -1.101   2.672  0.00  0.00    +0.010 A 
ATOM     18  C   UNL     1       6.859  -1.157   3.789  0.00  0.00    +0.002 A 
ATOM     19  C   UNL     1       6.622  -0.315   4.861  0.00  0.00    +0.015 A 
ATOM     20  C   UNL     1       5.576   0.591   4.820  0.00  0.00    +0.018 A 
ATOM     21  C   UNL     1       4.764   0.661   3.705  0.00  0.00    +0.025 A 
ATOM     22 BR   UNL     1       5.261   1.737   6.290  0.00  0.00    -0.050 Br
ENDBRANCH   3  16
BRANCH   1  27
ATOM     23  C   UNL     1      -1.219   1.750   0.017  0.00  0.00    +0.000 A 
ATOM     24  C   UNL     1      -1.242   3.133   0.030  0.00  0.00    +0.004 A 
ATOM     25  C   UNL     1      -0.057   3.844   0.022  0.00  0.00    +0.045 A 
ATOM     26  C   UNL     1       1.155   3.169   0.008  0.00  0.00    +0.118 A 
ATOM     27  C   UNL     1       1.175   1.782   0.000  0.00  0.00    -0.019 A 
ATOM     28  C   UNL     1      -0.013   1.076   0.008  0.00  0.00    +0.005 A 
BRANCH  26  29
ATOM     29  O   UNL     1       2.322   3.866  -0.000  0.00  0.00    -0.507 OA
ATOM     30  H   UNL     1       2.651   4.073  -0.886  0.00  0.00    +0.292 HD
ENDBRANCH  26  29
ENDBRANCH   1  27
TORSDOF 4
