REMARK  Name = ZINC61524193
REMARK  7 active torsions:
REMARK  status: ('A' for Active; 'I' for Inactive)
REMARK    1  A    between atoms: C_1  and  N_2
REMARK    2  A    between atoms: C_8  and  C_14
REMARK    3  A    between atoms: N_16  and  C_17
REMARK    4  A    between atoms: C_17  and  C_18
REMARK    5  A    between atoms: C_18  and  C_19
REMARK    6  A    between atoms: C_19  and  O_20
REMARK    7  A    between atoms: O_20  and  C_21
REMARK                            x       y       z     vdW  Elec       q    Type
REMARK                         _______ _______ _______ _____ _____    ______ ____
ROOT
ATOM      1  C   UNL     1      -0.018   1.461   0.010  0.00  0.00    +0.154 C 
ATOM      2  N   UNL     1       0.002  -0.004   0.002  0.00  0.00    -0.290 N 
ATOM      3  C   UNL     1      -1.164  -0.686   0.004  0.00  0.00    +0.262 A 
ATOM      4  O   UNL     1      -2.341  -0.038   0.013  0.00  0.00    -0.267 OA
ATOM      5  C   UNL     1      -1.114  -2.096  -0.004  0.00  0.00    +0.065 A 
ATOM      6  C   UNL     1      -2.282  -2.872  -0.003  0.00  0.00    +0.016 A 
ATOM      7  C   UNL     1      -2.193  -4.231  -0.011  0.00  0.00    +0.014 A 
ATOM      8  C   UNL     1      -0.944  -4.870  -0.021  0.00  0.00    +0.039 A 
ATOM      9  C   UNL     1       0.227  -4.129  -0.022  0.00  0.00    +0.041 A 
ATOM     10  C   UNL     1       0.157  -2.729  -0.013  0.00  0.00    +0.080 A 
ATOM     11  N   UNL     1       1.263  -1.972  -0.015  0.00  0.00    -0.222 NA
ATOM     12  C   UNL     1       1.180  -0.651  -0.013  0.00  0.00    +0.183 A 
ATOM     13  S   UNL     1       2.625   0.268  -0.022  0.00  0.00    -0.011 S 
ENDROOT
BRANCH   8  14
ATOM     14  C   UNL     1      -0.876  -6.349  -0.029  0.00  0.00    +0.244 C 
ATOM     15  O   UNL     1       0.203  -6.908  -0.037  0.00  0.00    -0.270 OA
ATOM     16  N   UNL     1      -2.011  -7.076  -0.027  0.00  0.00    -0.311 N 
ATOM     17  H   UNL     1      -2.873  -6.630  -0.021  0.00  0.00    +0.149 HD
BRANCH  16  18
ATOM     18  C   UNL     1      -1.944  -8.540  -0.036  0.00  0.00    +0.107 C 
BRANCH  18  19
ATOM     19  C   UNL     1      -3.362  -9.115  -0.032  0.00  0.00    +0.047 C 
BRANCH  19  20
ATOM     20  C   UNL     1      -3.292 -10.643  -0.041  0.00  0.00    +0.161 C 
BRANCH  20  21
ATOM     21  O   UNL     1      -4.616 -11.181  -0.037  0.00  0.00    -0.377 OA
BRANCH  21  22
ATOM     22  C   UNL     1      -4.664 -12.609  -0.044  0.00  0.00    +0.118 C 
ATOM     23  C   UNL     1      -4.760 -13.127  -1.494  0.00  0.00    +0.031 C 
ATOM     24  C   UNL     1      -5.703 -14.352  -1.398  0.00  0.00    +0.003 C 
ATOM     25  C   UNL     1      -6.750 -13.896  -0.352  0.00  0.00    +0.003 C 
ATOM     26  C   UNL     1      -5.929 -13.098   0.682  0.00  0.00    +0.031 C 
ENDBRANCH  21  22
ENDBRANCH  20  21
ENDBRANCH  19  20
ENDBRANCH  18  19
ENDBRANCH  16  18
ENDBRANCH   8  14
TORSDOF 6
