REMARK  Name = ZINC27528553
REMARK  9 active torsions:
REMARK  status: ('A' for Active; 'I' for Inactive)
REMARK    1  A    between atoms: C_1  and  C_2
REMARK    2  A    between atoms: C_5  and  C_8
REMARK    3  A    between atoms: C_8  and  C_9
REMARK    4  A    between atoms: C_8  and  C_16
REMARK    5  A    between atoms: C_8  and  O_31
REMARK    6  A    between atoms: C_12  and  O_15
REMARK    7  A    between atoms: C_16  and  C_18
REMARK    8  A    between atoms: C_16  and  C_25
REMARK    9  A    between atoms: C_18  and  N_19
REMARK                            x       y       z     vdW  Elec       q    Type
REMARK                         _______ _______ _______ _____ _____    ______ ____
ROOT
ATOM      1  C   UNL     1       5.519  -0.349   3.046  0.00  0.00    +0.121 C 
ENDROOT
BRANCH   1   6
ATOM      2  C   UNL     1       3.837   1.565   8.232  0.00  0.00    +0.044 C 
ATOM      3  C   UNL     1       4.276   1.066   6.879  0.00  0.00    -0.050 A 
ATOM      4  C   UNL     1       5.190   0.033   6.787  0.00  0.00    +0.004 A 
ATOM      5  C   UNL     1       5.592  -0.425   5.546  0.00  0.00    +0.007 A 
ATOM      6  C   UNL     1       5.080   0.150   4.398  0.00  0.00    -0.011 A 
ATOM      7  C   UNL     1       4.171   1.186   4.490  0.00  0.00    +0.007 A 
ATOM      8  C   UNL     1       3.765   1.641   5.731  0.00  0.00    +0.004 A 
ENDBRANCH   1   6
BRANCH   1   9
ATOM      9  C   UNL     1       6.730   0.426   2.592  0.00  0.00    -0.011 A 
ATOM     10  C   UNL     1       6.571   1.582   1.852  0.00  0.00    +0.010 A 
ATOM     11  C   UNL     1       7.678   2.298   1.440  0.00  0.00    +0.046 A 
ATOM     12  C   UNL     1       8.951   1.849   1.760  0.00  0.00    +0.117 A 
ATOM     13  C   UNL     1       9.108   0.685   2.499  0.00  0.00    +0.046 A 
ATOM     14  C   UNL     1       7.997  -0.024   2.913  0.00  0.00    +0.010 A 
BRANCH  12  15
ATOM     15  O   UNL     1      10.043   2.547   1.351  0.00  0.00    -0.507 OA
ATOM     16  H   UNL     1      11.052   2.190   1.605  0.00  0.00    +0.292 HD
ENDBRANCH  12  15
ENDBRANCH   1   9
BRANCH   1  17
ATOM     17  O   UNL     1       5.848  -1.737   3.134  0.00  0.00    -0.379 OA
ATOM     18  H   UNL     1       6.192  -2.279   2.240  0.00  0.00    +0.211 HD
ENDBRANCH   1  17
BRANCH   1  19
ATOM     19  C   UNL     1       4.384  -0.158   2.038  0.00  0.00    +0.043 C 
BRANCH  19  20
ATOM     20  C   UNL     1       4.821  -0.662   0.687  0.00  0.00    -0.043 A 
ATOM     21  C   UNL     1       4.987  -2.018   0.476  0.00  0.00    +0.004 A 
ATOM     22  C   UNL     1       5.384  -2.481  -0.765  0.00  0.00    +0.000 A 
ATOM     23  C   UNL     1       5.623  -1.587  -1.792  0.00  0.00    +0.000 A 
ATOM     24  C   UNL     1       5.462  -0.231  -1.579  0.00  0.00    +0.000 A 
ATOM     25  C   UNL     1       5.061   0.232  -0.340  0.00  0.00    +0.004 A 
ENDBRANCH  19  20
BRANCH  19  26
ATOM     26  C   UNL     1       3.154  -0.940   2.501  0.00  0.00    -0.067 C 
BRANCH  26  27
ATOM     27  N   UNL     1       2.028  -0.660   1.599  0.00  0.00    +0.380 N 
ATOM     28  C   UNL     1       0.903  -1.567   1.865  0.00  0.00    -0.079 C 
ATOM     29  C   UNL     1      -0.190  -1.346   0.818  0.00  0.00    -0.019 C 
ATOM     30  C   UNL     1      -0.659   0.111   0.876  0.00  0.00    -0.004 C 
ATOM     31  C   UNL     1       0.540   1.034   0.644  0.00  0.00    -0.019 C 
ATOM     32  C   UNL     1       1.612   0.745   1.696  0.00  0.00    -0.079 C 
ATOM     33  H   UNL     1       2.366  -0.840   0.568  0.00  0.00    -0.082 HD
ENDBRANCH  26  27
ENDBRANCH  19  26
ENDBRANCH   1  19
TORSDOF 8
