REMARK  Name = ZINC16839461
REMARK  12 active torsions:
REMARK  status: ('A' for Active; 'I' for Inactive)
REMARK    1  A    between atoms: C_1  and  C_2
REMARK    2  A    between atoms: C_2  and  C_3
REMARK    3  A    between atoms: C_2  and  C_4
REMARK    4  A    between atoms: C_4  and  N_5
REMARK    5  A    between atoms: N_10  and  C_11
REMARK    6  A    between atoms: C_11  and  C_12
REMARK    7  A    between atoms: C_12  and  C_14
REMARK    8  A    between atoms: C_12  and  O_23
REMARK    9  A    between atoms: C_14  and  O_15
REMARK   10  A    between atoms: O_15  and  C_16
REMARK   11  A    between atoms: N_26  and  C_31
REMARK   12  A    between atoms: N_29  and  C_30
REMARK                            x       y       z     vdW  Elec       q    Type
REMARK                         _______ _______ _______ _____ _____    ______ ____
ROOT
ATOM      1  N   UNL     1       1.017   2.018   2.887  0.00  0.00    -0.314 N 
ATOM      2  C   UNL     1       0.132   1.002   3.168  0.00  0.00    +0.198 A 
ATOM      3  N   UNL     1      -0.713   0.986   4.178  0.00  0.00    -0.196 NA
ATOM      4  C   UNL     1      -1.420  -0.145   4.163  0.00  0.00    +0.170 A 
ATOM      5  C   UNL     1      -0.996  -0.890   3.068  0.00  0.00    +0.153 A 
ATOM      6  N   UNL     1      -0.008  -0.140   2.444  0.00  0.00    -0.304 N 
ATOM      7  C   UNL     1      -1.587  -2.141   2.819  0.00  0.00    +0.282 A 
ATOM      8  O   UNL     1      -1.231  -2.811   1.865  0.00  0.00    -0.265 OA
ATOM      9  N   UNL     1      -2.552  -2.592   3.647  0.00  0.00    -0.262 N 
ATOM     10  C   UNL     1      -2.954  -1.864   4.703  0.00  0.00    +0.333 A 
ATOM     11  O   UNL     1      -3.827  -2.303   5.428  0.00  0.00    -0.246 OA
ATOM     12  N   UNL     1      -2.415  -0.662   4.978  0.00  0.00    -0.280 N 
ATOM     13  C   UNL     1      -2.881   0.101   6.138  0.00  0.00    +0.155 C 
ATOM     14  C   UNL     1      -3.171  -3.895   3.391  0.00  0.00    +0.157 C 
ATOM     15  H   UNL     1       1.605   1.950   2.118  0.00  0.00    +0.149 HD
ENDROOT
BRANCH   1  16
ATOM     16  C   UNL     1       1.071   3.201   3.748  0.00  0.00    +0.107 C 
BRANCH  16  18
ATOM     17  C   UNL     1       2.101   5.458   4.043  0.00  0.00    +0.009 C 
ATOM     18  C   UNL     1       2.130   4.170   3.218  0.00  0.00    -0.000 C 
ATOM     19  C   UNL     1       3.513   3.525   3.330  0.00  0.00    +0.009 C 
ENDBRANCH  16  18
ENDBRANCH   1  16
BRANCH   6  20
ATOM     20  C   UNL     1       0.742  -0.511   1.242  0.00  0.00    +0.160 C 
BRANCH  20  21
ATOM     21  C   UNL     1       0.002  -0.004   0.002  0.00  0.00    +0.172 C 
BRANCH  21  22
ATOM     22  O   UNL     1      -0.017   1.425   0.010  0.00  0.00    -0.387 OA
ATOM     23  H   UNL     1       0.861   1.830   0.004  0.00  0.00    +0.210 HD
ENDBRANCH  21  22
BRANCH  21  24
ATOM     24  C   UNL     1       0.718  -0.497  -1.257  0.00  0.00    +0.262 C 
BRANCH  24  25
ATOM     25  O   UNL     1      -0.036  -0.123  -2.412  0.00  0.00    -0.488 OA
BRANCH  25  26
ATOM     26  C   UNL     1       0.466  -0.488  -3.621  0.00  0.00    +0.139 A 
ATOM     27  C   UNL     1       1.662  -1.187  -3.695  0.00  0.00    +0.047 A 
ATOM     28  C   UNL     1       2.167  -1.561  -4.925  0.00  0.00    +0.004 A 
ATOM     29  C   UNL     1       1.487  -1.231  -6.083  0.00  0.00    +0.002 A 
ATOM     30  C   UNL     1       0.297  -0.530  -6.013  0.00  0.00    +0.023 A 
ATOM     31  C   UNL     1      -0.215  -0.157  -4.785  0.00  0.00    +0.083 A 
ATOM     32 CL   UNL     1      -1.709   0.724  -4.697  0.00  0.00    -0.080 Cl
ENDBRANCH  25  26
ENDBRANCH  24  25
ENDBRANCH  21  24
ENDBRANCH  20  21
ENDBRANCH   6  20
TORSDOF 8
