REMARK  Name = ZINC65384184
REMARK  6 active torsions:
REMARK  status: ('A' for Active; 'I' for Inactive)
REMARK    1  A    between atoms: C_1  and  C_2
REMARK    2  A    between atoms: C_2  and  C_3
REMARK    3  A    between atoms: C_2  and  C_4
REMARK    4  A    between atoms: C_6  and  C_10
REMARK    5  A    between atoms: C_17  and  C_19
REMARK    6  A    between atoms: C_22  and  C_25
REMARK                            x       y       z     vdW  Elec       q    Type
REMARK                         _______ _______ _______ _____ _____    ______ ____
ROOT
ATOM      1  C   UNL     1      -3.500  -3.021   0.667  0.00  0.00    +0.128 C 
ATOM      2  C   UNL     1      -2.770  -2.853   2.003  0.00  0.00    +0.027 C 
ATOM      3  C   UNL     1      -3.178  -3.984   2.949  0.00  0.00    +0.003 C 
ATOM      4  C   UNL     1      -4.684  -3.915   3.210  0.00  0.00    +0.019 C 
ATOM      5  C   UNL     1      -5.436  -4.096   1.888  0.00  0.00    +0.108 C 
ATOM      6  N   UNL     1      -4.945  -3.103   0.922  0.00  0.00    -0.292 N 
ATOM      7  C   UNL     1      -5.802  -2.281   0.285  0.00  0.00    +0.246 C 
ATOM      8  O   UNL     1      -5.397  -1.538  -0.584  0.00  0.00    -0.273 OA
ENDROOT
BRANCH   1  11
ATOM      9  C   UNL     1      -1.383  -0.537   0.021  0.00  0.00    +0.105 C 
ATOM     10  N   UNL     1      -1.758  -1.680  -0.439  0.00  0.00    -0.345 N 
ATOM     11  C   UNL     1      -3.205  -1.819  -0.233  0.00  0.00    +0.263 C 
ATOM     12  O   UNL     1      -3.615  -0.601   0.409  0.00  0.00    -0.246 OA
ATOM     13  N   UNL     1      -2.428   0.164   0.548  0.00  0.00    -0.251 N 
ATOM     14  H   UNL     1      -2.369   1.045   0.950  0.00  0.00    +0.195 HD
ATOM     15  H   UNL     1      -1.181  -2.340  -0.853  0.00  0.00    +0.163 HD
BRANCH   9  17
ATOM     16  C   UNL     1       0.044   1.491   0.022  0.00  0.00    +0.015 C 
ATOM     17  C   UNL     1       0.039  -0.039  -0.012  0.00  0.00    +0.048 C 
ATOM     18  C   UNL     1       0.797  -0.579   1.202  0.00  0.00    +0.015 C 
ENDBRANCH   9  17
ENDBRANCH   1  11
BRANCH   7  19
ATOM     19  C   UNL     1      -7.264  -2.287   0.651  0.00  0.00    +0.238 C 
ATOM     20  C   UNL     1      -7.990  -3.418  -0.055  0.00  0.00    +0.036 C 
ATOM     21  C   UNL     1      -8.894  -2.795  -0.815  0.00  0.00    +0.065 C 
ATOM     22  N   UNL     1      -8.808  -1.455  -0.661  0.00  0.00    -0.158 NA
ATOM     23  N   UNL     1      -7.935  -1.083   0.132  0.00  0.00    -0.170 NA
BRANCH  21  24
ATOM     24  C   UNL     1      -9.876  -3.491  -1.721  0.00  0.00    +0.039 C 
ATOM     25  C   UNL     1     -10.703  -2.621  -2.669  0.00  0.00    +0.010 C 
ATOM     26  C   UNL     1     -11.366  -3.268  -1.452  0.00  0.00    +0.010 C 
ENDBRANCH  21  24
ENDBRANCH   7  19
TORSDOF 4
