REMARK  Name = ZINC22429460
REMARK  10 active torsions:
REMARK  status: ('A' for Active; 'I' for Inactive)
REMARK    1  A    between atoms: C_1  and  C_2
REMARK    2  A    between atoms: C_4  and  C_11
REMARK    3  A    between atoms: C_5  and  C_10
REMARK    4  A    between atoms: N_6  and  C_7
REMARK    5  A    between atoms: C_7  and  C_8
REMARK    6  A    between atoms: C_7  and  C_9
REMARK    7  A    between atoms: C_11  and  C_13
REMARK    8  A    between atoms: C_13  and  N_14
REMARK    9  A    between atoms: C_17  and  C_21
REMARK   10  A    between atoms: C_17  and  C_22
REMARK                            x       y       z     vdW  Elec       q    Type
REMARK                         _______ _______ _______ _____ _____    ______ ____
ROOT
ATOM      1  N   UNL     1      -0.620   8.220   4.510  0.00  0.00    -0.216 N 
ATOM      2  C   UNL     1       0.344   7.543   3.853  0.00  0.00    +0.251 C 
ATOM      3  O   UNL     1       1.281   6.947   4.339  0.00  0.00    -0.272 OA
ATOM      4  C   UNL     1       0.012   7.684   2.381  0.00  0.00    +0.135 C 
ATOM      5  N   UNL     1      -1.214   8.500   2.378  0.00  0.00    -0.281 N 
ATOM      6  C   UNL     1      -1.504   8.762   3.665  0.00  0.00    +0.310 C 
ATOM      7  O   UNL     1      -2.463   9.419   4.021  0.00  0.00    -0.252 OA
ATOM      8  C   UNL     1       1.142   8.403   1.641  0.00  0.00    +0.047 C 
ATOM      9  H   UNL     1      -1.695   8.768   1.426  0.00  0.00    +0.152 HD
ENDROOT
BRANCH   4  10
ATOM     10  C   UNL     1      -0.247   6.334   1.764  0.00  0.00    -0.012 A 
ATOM     11  C   UNL     1       0.391   5.214   2.264  0.00  0.00    +0.010 A 
ATOM     12  C   UNL     1       0.157   3.971   1.703  0.00  0.00    +0.050 A 
ATOM     13  C   UNL     1      -0.719   3.853   0.638  0.00  0.00    +0.162 A 
ATOM     14  C   UNL     1      -1.360   4.977   0.136  0.00  0.00    +0.162 A 
ATOM     15  C   UNL     1      -1.124   6.219   0.700  0.00  0.00    +0.055 A 
ATOM     16  O   UNL     1      -2.222   4.849  -0.914  0.00  0.00    -0.488 OA
ATOM     17  C   UNL     1      -1.632   4.496  -2.167  0.00  0.00    +0.232 C 
ATOM     18  C   UNL     1      -1.453   2.990  -2.275  0.00  0.00    +0.082 C 
ATOM     19  C   UNL     1      -0.465   2.450  -1.253  0.00  0.00    +0.232 C 
ATOM     20  O   UNL     1      -0.959   2.633   0.075  0.00  0.00    -0.488 OA
ENDBRANCH   4  10
BRANCH   1  21
ATOM     21  C   UNL     1      -0.690   8.344   5.968  0.00  0.00    +0.197 C 
BRANCH  21  22
ATOM     22  C   UNL     1       0.072   9.569   6.404  0.00  0.00    +0.183 C 
ATOM     23  O   UNL     1       0.620  10.269   5.579  0.00  0.00    -0.290 OA
BRANCH  22  27
ATOM     24  C   UNL     1      -0.515   9.479  11.465  0.00  0.00    +0.063 C 
ATOM     25  C   UNL     1      -0.119   9.859  10.061  0.00  0.00    +0.017 A 
ATOM     26  C   UNL     1      -0.449   9.181   8.949  0.00  0.00    +0.034 A 
ATOM     27  C   UNL     1       0.151   9.914   7.826  0.00  0.00    +0.040 A 
ATOM     28  C   UNL     1       0.810  10.992   8.386  0.00  0.00    +0.027 A 
ATOM     29  N   UNL     1       0.633  10.945   9.718  0.00  0.00    -0.345 N 
ATOM     30  C   UNL     1       1.590  12.039   7.634  0.00  0.00    +0.064 C 
BRANCH  29  31
ATOM     31  C   UNL     1       1.176  11.919  10.668  0.00  0.00    +0.081 C 
ATOM     32  C   UNL     1       0.027  12.691  11.319  0.00  0.00    +0.030 C 
ATOM     33  C   UNL     1       1.975  11.188  11.748  0.00  0.00    +0.030 C 
ENDBRANCH  29  31
ENDBRANCH  22  27
ENDBRANCH  21  22
ENDBRANCH   1  21
TORSDOF 5
