REMARK  Name = ZINC13032177
REMARK  7 active torsions:
REMARK  status: ('A' for Active; 'I' for Inactive)
REMARK    1  A    between atoms: C_4  and  S_9
REMARK    2  A    between atoms: C_6  and  C_7
REMARK    3  A    between atoms: S_9  and  N_12
REMARK    4  A    between atoms: N_12  and  N_13
REMARK    5  A    between atoms: C_14  and  C_16
REMARK    6  A    between atoms: C_16  and  N_17
REMARK    7  A    between atoms: C_19  and  C_24
REMARK                            x       y       z     vdW  Elec       q    Type
REMARK                         _______ _______ _______ _____ _____    ______ ____
ROOT
ATOM      1  N   UNL     1       5.509  -1.798  -1.565  0.00  0.00    -0.230 N 
ATOM      2  C   UNL     1       4.393  -1.256  -1.039  0.00  0.00    +0.248 C 
ATOM      3  O   UNL     1       3.553  -0.771  -1.768  0.00  0.00    -0.273 OA
ATOM      4  H   UNL     1       6.181  -2.186  -0.983  0.00  0.00    +0.171 HD
ENDROOT
BRANCH   1   5
ATOM      5  N   UNL     1       5.700  -1.801  -2.953  0.00  0.00    -0.108 NA
ATOM      6  H   UNL     1       5.026  -2.186  -3.534  0.00  0.00    +0.172 HD
BRANCH   5   7
ATOM      7  S   UNL     1       7.076  -1.146  -3.602  0.00  0.00    +0.075 S 
ATOM      8  O   UNL     1       8.171  -1.753  -2.929  0.00  0.00    -0.152 OA
ATOM      9  O   UNL     1       6.925  -1.199  -5.013  0.00  0.00    -0.152 OA
BRANCH   7  13
ATOM     10  C   UNL     1       7.116   3.251  -2.479  0.00  0.00    +0.016 A 
ATOM     11  C   UNL     1       6.123   2.751  -3.296  0.00  0.00    +0.018 A 
ATOM     12  C   UNL     1       6.113   1.409  -3.637  0.00  0.00    +0.044 A 
ATOM     13  C   UNL     1       7.098   0.560  -3.162  0.00  0.00    +0.121 A 
ATOM     14  C   UNL     1       8.093   1.046  -2.340  0.00  0.00    +0.044 A 
ATOM     15  C   UNL     1       8.112   2.400  -1.996  0.00  0.00    +0.065 A 
ATOM     16 BR   UNL     1       4.748   0.734  -4.758  0.00  0.00    -0.048 Br
BRANCH  15  17
ATOM     17  C   UNL     1       9.178   2.928  -1.121  0.00  0.00    +0.387 C 
ATOM     18  O   UNL     1      10.044   2.185  -0.703  0.00  0.00    -0.241 OA
ATOM     19  O   UNL     1       9.191   4.233  -0.788  0.00  0.00    -0.241 OA
ENDBRANCH  15  17
ENDBRANCH   7  13
ENDBRANCH   5   7
ENDBRANCH   1   5
BRANCH   2  20
ATOM     20  C   UNL     1       4.188  -1.253   0.454  0.00  0.00    +0.221 C 
BRANCH  20  21
ATOM     21  N   UNL     1       2.909  -0.612   0.770  0.00  0.00    -0.306 N 
ATOM     22  C   UNL     1       2.865   0.727   0.987  0.00  0.00    +0.102 A 
ATOM     23  C   UNL     1       1.695   1.341   1.280  0.00  0.00    +0.071 A 
ATOM     24  C   UNL     1       0.513   0.593   1.363  0.00  0.00    +0.019 A 
ATOM     25  C   UNL     1       0.559  -0.753   1.144  0.00  0.00    +0.071 A 
ATOM     26  C   UNL     1       1.791  -1.359   0.842  0.00  0.00    +0.252 A 
ATOM     27  O   UNL     1       1.846  -2.562   0.643  0.00  0.00    -0.268 OA
BRANCH  23  28
ATOM     28  C   UNL     1       1.664   2.829   1.518  0.00  0.00    +0.419 C 
ATOM     29  F   UNL     1       1.324   3.485   0.330  0.00  0.00    -0.166 F 
ATOM     30  F   UNL     1       0.713   3.124   2.501  0.00  0.00    -0.166 F 
ATOM     31  F   UNL     1       2.924   3.260   1.945  0.00  0.00    -0.166 F 
ENDBRANCH  23  28
ENDBRANCH  20  21
ENDBRANCH   2  20
TORSDOF 7
