REMARK  Name = ZINC21039217
REMARK  11 active torsions:
REMARK  status: ('A' for Active; 'I' for Inactive)
REMARK    1  A    between atoms: C_1  and  C_2
REMARK    2  A    between atoms: C_2  and  C_4
REMARK    3  A    between atoms: C_2  and  N_12
REMARK    4  A    between atoms: C_6  and  O_11
REMARK    5  A    between atoms: C_9  and  O_10
REMARK    6  A    between atoms: N_12  and  C_13
REMARK    7  A    between atoms: C_13  and  C_14
REMARK    8  A    between atoms: C_14  and  C_16
REMARK    9  A    between atoms: C_14  and  N_21
REMARK   10  A    between atoms: N_21  and  C_22
REMARK   11  A    between atoms: N_21  and  C_23
REMARK                            x       y       z     vdW  Elec       q    Type
REMARK                         _______ _______ _______ _____ _____    ______ ____
ROOT
ATOM      1  N   UNL     1       0.105   0.247   0.240  0.00  0.00    -0.311 NA
ATOM      2  H   UNL     1      -0.215  -0.804   0.206  0.00  0.00    +0.122 HD
ENDROOT
BRANCH   1   4
ATOM      3  C   UNL     1       2.011   1.625   0.924  0.00  0.00    +0.029 C 
ATOM      4  C   UNL     1       1.573   0.312   0.272  0.00  0.00    +0.084 C 
BRANCH   4   5
ATOM      5  C   UNL     1       2.109  -0.849   1.069  0.00  0.00    +0.014 A 
ATOM      6  C   UNL     1       1.290  -1.510   1.964  0.00  0.00    +0.054 A 
ATOM      7  C   UNL     1       1.781  -2.582   2.693  0.00  0.00    +0.117 A 
ATOM      8  C   UNL     1       3.100  -2.983   2.534  0.00  0.00    +0.049 A 
ATOM      9  C   UNL     1       3.921  -2.319   1.644  0.00  0.00    +0.049 A 
ATOM     10  C   UNL     1       3.427  -1.250   0.910  0.00  0.00    +0.122 A 
BRANCH  10  11
ATOM     11  O   UNL     1       4.235  -0.596   0.033  0.00  0.00    -0.506 OA
ATOM     12  H   UNL     1       5.280  -0.914  -0.094  0.00  0.00    +0.292 HD
ENDBRANCH  10  11
BRANCH   7  13
ATOM     13  O   UNL     1       0.973  -3.236   3.570  0.00  0.00    -0.507 OA
ATOM     14  H   UNL     1       1.363  -4.086   4.149  0.00  0.00    +0.292 HD
ENDBRANCH   7  13
ENDBRANCH   4   5
ENDBRANCH   1   4
BRANCH   1  15
ATOM     15  C   UNL     1      -0.426   0.939  -0.942  0.00  0.00    +0.071 C 
BRANCH  15  16
ATOM     16  C   UNL     1      -1.953   0.851  -0.941  0.00  0.00    -0.018 C 
BRANCH  16  17
ATOM     17  C   UNL     1      -2.492   1.452  -2.213  0.00  0.00    -0.023 A 
ATOM     18  C   UNL     1      -3.275   2.546  -2.376  0.00  0.00    +0.009 A 
ATOM     19  C   UNL     1      -3.652   2.918  -3.653  0.00  0.00    +0.008 A 
ATOM     20  C   UNL     1      -3.228   2.176  -4.705  0.00  0.00    +0.045 A 
ATOM     21  S   UNL     1      -2.258   0.912  -3.899  0.00  0.00    -0.103 S 
ENDBRANCH  16  17
BRANCH  16  22
ATOM     22  N   UNL     1      -2.362  -0.557  -0.853  0.00  0.00    +0.382 N 
ATOM     23  C   UNL     1      -3.826  -0.683  -0.881  0.00  0.00    -0.096 C 
ATOM     24  C   UNL     1      -1.745  -1.353  -1.923  0.00  0.00    -0.096 C 
ATOM     25  H   UNL     1      -2.008  -0.953   0.110  0.00  0.00    -0.082 HD
ENDBRANCH  16  22
ENDBRANCH  15  16
ENDBRANCH   1  15
TORSDOF 8
