REMARK  Name = ZINC40309072
REMARK  5 active torsions:
REMARK  status: ('A' for Active; 'I' for Inactive)
REMARK    1  A    between atoms: C_7  and  C_11
REMARK    2  A    between atoms: C_11  and  C_12
REMARK    3  A    between atoms: C_12  and  N_13
REMARK    4  A    between atoms: C_14  and  C_16
REMARK    5  A    between atoms: C_16  and  N_17
REMARK                            x       y       z     vdW  Elec       q    Type
REMARK                         _______ _______ _______ _____ _____    ______ ____
ROOT
ATOM      1  N   UNL     1      -0.675  -4.736  -1.452  0.00  0.00    -0.314 N 
ATOM      2  C   UNL     1      -1.186  -5.195  -2.612  0.00  0.00    +0.233 C 
ATOM      3  O   UNL     1      -0.891  -4.657  -3.659  0.00  0.00    -0.274 OA
ATOM      4  H   UNL     1      -0.911  -5.166  -0.615  0.00  0.00    +0.149 HD
ENDROOT
BRANCH   1   5
ATOM      5  C   UNL     1       0.236  -3.589  -1.455  0.00  0.00    +0.109 C 
BRANCH   5   6
ATOM      6  C   UNL     1       0.666  -3.275  -0.021  0.00  0.00    +0.056 C 
BRANCH   6  13
ATOM      7  C   UNL     1      -0.017   1.362   0.009  0.00  0.00    +0.001 A 
ATOM      8  C   UNL     1       1.170   2.083   0.002  0.00  0.00    +0.002 A 
ATOM      9  C   UNL     1       2.386   1.436  -0.013  0.00  0.00    +0.026 A 
ATOM     10  C   UNL     1       2.428   0.046  -0.021  0.00  0.00    +0.047 A 
ATOM     11  C   UNL     1       1.223  -0.681  -0.013  0.00  0.00    +0.003 A 
ATOM     12  C   UNL     1       0.002  -0.004   0.002  0.00  0.00    +0.010 A 
ATOM     13  C   UNL     1       1.604  -2.095  -0.025  0.00  0.00    -0.021 A 
ATOM     14  C   UNL     1       2.945  -2.141  -0.038  0.00  0.00    +0.087 A 
ATOM     15  N   UNL     1       3.455  -0.871  -0.036  0.00  0.00    -0.360 N 
ATOM     16  H   UNL     1       4.399  -0.650  -0.044  0.00  0.00    +0.165 HD
ENDBRANCH   6  13
ENDBRANCH   5   6
ENDBRANCH   1   5
BRANCH   2  17
ATOM     17  C   UNL     1      -2.123  -6.375  -2.609  0.00  0.00    +0.217 C 
BRANCH  17  18
ATOM     18  N   UNL     1      -2.535  -6.675  -3.982  0.00  0.00    -0.338 N 
ATOM     19  C   UNL     1      -3.677  -6.215  -4.579  0.00  0.00    +0.087 A 
ATOM     20  C   UNL     1      -3.754  -6.675  -5.837  0.00  0.00    +0.027 A 
ATOM     21  C   UNL     1      -2.563  -7.497  -6.066  0.00  0.00    -0.000 A 
ATOM     22  C   UNL     1      -1.827  -7.458  -4.867  0.00  0.00    +0.051 A 
ATOM     23  C   UNL     1      -0.625  -8.152  -4.782  0.00  0.00    +0.046 A 
ATOM     24  C   UNL     1      -0.168  -8.865  -5.869  0.00  0.00    +0.043 A 
ATOM     25  C   UNL     1      -0.896  -8.897  -7.052  0.00  0.00    +0.021 A 
ATOM     26  C   UNL     1      -2.084  -8.229  -7.154  0.00  0.00    +0.011 A 
ATOM     27 CL   UNL     1       1.333  -9.731  -5.760  0.00  0.00    -0.083 Cl
ENDBRANCH  17  18
ENDBRANCH   2  17
TORSDOF 5
