REMARK  Name = ZINC37998828
REMARK  5 active torsions:
REMARK  status: ('A' for Active; 'I' for Inactive)
REMARK    1  A    between atoms: C_3  and  N_11
REMARK    2  A    between atoms: C_4  and  N_8
REMARK    3  A    between atoms: N_11  and  C_12
REMARK    4  A    between atoms: N_15  and  C_18
REMARK    5  A    between atoms: C_18  and  C_19
REMARK                            x       y       z     vdW  Elec       q    Type
REMARK                         _______ _______ _______ _____ _____    ______ ____
ROOT
ATOM      1  C   UNL     1       3.656   3.496  -0.288  0.00  0.00    +0.067 C 
ATOM      2  C   UNL     1       3.562   3.852  -1.774  0.00  0.00    +0.003 C 
ATOM      3  C   UNL     1       3.673   5.369  -1.938  0.00  0.00    -0.076 C 
ATOM      4  N   UNL     1       4.960   5.830  -1.403  0.00  0.00    +0.385 N 
ATOM      5  C   UNL     1       5.027   5.556   0.037  0.00  0.00    -0.076 C 
ATOM      6  C   UNL     1       4.969   4.046   0.277  0.00  0.00    +0.003 C 
ATOM      7  H   UNL     1       5.710   5.345  -1.872  0.00  0.00    -0.081 HD
ENDROOT
BRANCH   1   8
ATOM      8  N   UNL     1       3.627   2.039  -0.130  0.00  0.00    -0.339 N 
ATOM      9  H   UNL     1       4.457   1.542  -0.069  0.00  0.00    +0.146 HD
BRANCH   8  12
ATOM     10  C   UNL     1       0.010   1.393  -0.216  0.00  0.00    +0.017 A 
ATOM     11  C   UNL     1       1.218   2.060  -0.278  0.00  0.00    +0.026 A 
ATOM     12  C   UNL     1       2.403   1.368  -0.067  0.00  0.00    +0.058 A 
ATOM     13  C   UNL     1       2.370   0.006   0.205  0.00  0.00    +0.148 A 
ATOM     14  C   UNL     1       1.159  -0.655   0.266  0.00  0.00    +0.050 A 
ATOM     15  C   UNL     1      -0.020   0.037   0.056  0.00  0.00    +0.020 A 
ATOM     16 BR   UNL     1      -1.676  -0.872   0.141  0.00  0.00    -0.050 Br
BRANCH  13  17
ATOM     17  N   UNL     1       3.631  -0.736   0.430  0.00  0.00    +0.058 N 
ATOM     18  O   UNL     1       3.751  -1.864   0.013  0.00  0.00    -0.126 OA
ATOM     19  O   UNL     1       4.542  -0.213   1.029  0.00  0.00    -0.126 OA
ENDBRANCH  13  17
ENDBRANCH   8  12
ENDBRANCH   1   8
BRANCH   4  20
ATOM     20  C   UNL     1       5.095   7.274  -1.632  0.00  0.00    +0.018 C 
BRANCH  20  21
ATOM     21  C   UNL     1       6.464   7.727  -1.196  0.00  0.00    +0.194 C 
ATOM     22  O   UNL     1       7.251   6.924  -0.738  0.00  0.00    -0.278 OA
ATOM     23  N   UNL     1       6.816   9.023  -1.313  0.00  0.00    -0.331 N 
ATOM     24  H   UNL     1       6.187   9.664  -1.679  0.00  0.00    +0.145 HD
ATOM     25  H   UNL     1       7.697   9.314  -1.032  0.00  0.00    +0.145 HD
ENDBRANCH  20  21
ENDBRANCH   4  20
TORSDOF 5
