REMARK  Name = ZINC67127583
REMARK  9 active torsions:
REMARK  status: ('A' for Active; 'I' for Inactive)
REMARK    1  A    between atoms: C_1  and  C_2
REMARK    2  A    between atoms: C_2  and  C_4
REMARK    3  A    between atoms: C_2  and  N_13
REMARK    4  A    between atoms: C_7  and  C_10
REMARK    5  A    between atoms: C_10  and  C_11
REMARK    6  A    between atoms: C_10  and  C_12
REMARK    7  A    between atoms: N_13  and  C_14
REMARK    8  A    between atoms: C_14  and  C_15
REMARK    9  A    between atoms: N_28  and  C_29
REMARK                            x       y       z     vdW  Elec       q    Type
REMARK                         _______ _______ _______ _____ _____    ______ ____
ROOT
ATOM      1  C   UNL     1       2.122  -0.083   1.122  0.00  0.00    -0.004 C 
ENDROOT
BRANCH   1   2
ATOM      2  C   UNL     1       2.851  -0.582   2.343  0.00  0.00    +0.122 A 
ATOM      3  N   UNL     1       3.066   0.085   3.443  0.00  0.00    -0.134 NA
ATOM      4  N   UNL     1       3.717  -0.641   4.280  0.00  0.00    -0.110 NA
ATOM      5  C   UNL     1       3.957  -1.823   3.755  0.00  0.00    +0.239 A 
ATOM      6  N   UNL     1       3.405  -1.819   2.507  0.00  0.00    -0.266 N 
ATOM      7  C   UNL     1       3.483  -2.938   1.688  0.00  0.00    +0.063 A 
ATOM      8  C   UNL     1       2.929  -2.942   0.417  0.00  0.00    +0.027 A 
ATOM      9  C   UNL     1       3.024  -4.071  -0.371  0.00  0.00    +0.002 A 
ATOM     10  C   UNL     1       3.670  -5.205   0.095  0.00  0.00    +0.001 A 
ATOM     11  C   UNL     1       4.227  -5.220   1.356  0.00  0.00    +0.015 A 
ATOM     12  C   UNL     1       4.138  -4.087   2.162  0.00  0.00    +0.063 A 
ATOM     13  C   UNL     1       4.720  -4.061   3.516  0.00  0.00    +0.263 A 
ATOM     14  O   UNL     1       5.295  -5.037   3.961  0.00  0.00    -0.267 OA
ATOM     15  N   UNL     1       4.612  -2.934   4.251  0.00  0.00    -0.280 N 
ATOM     16  C   UNL     1       5.183  -2.894   5.599  0.00  0.00    +0.155 C 
ENDBRANCH   1   2
BRANCH   1  17
ATOM     17  N   UNL     1       0.724  -0.530   1.169  0.00  0.00    +0.388 N 
ATOM     18  H   UNL     1       0.281  -0.164   1.999  0.00  0.00    -0.084 HD
ATOM     19  H   UNL     1       0.694  -1.539   1.190  0.00  0.00    -0.084 HD
BRANCH  17  21
ATOM     20  C   UNL     1      -0.050   1.485   0.012  0.00  0.00    -0.009 C 
ATOM     21  C   UNL     1       0.013  -0.044  -0.021  0.00  0.00    -0.043 C 
BRANCH  21  22
ATOM     22  C   UNL     1      -1.386  -0.604  -0.035  0.00  0.00    -0.062 A 
ATOM     23  C   UNL     1      -2.108  -0.688   1.141  0.00  0.00    +0.002 A 
ATOM     24  C   UNL     1      -3.392  -1.202   1.128  0.00  0.00    +0.004 A 
ATOM     25  C   UNL     1      -3.952  -1.631  -0.061  0.00  0.00    -0.045 A 
ATOM     26  C   UNL     1      -3.230  -1.546  -1.236  0.00  0.00    +0.004 A 
ATOM     27  C   UNL     1      -1.948  -1.028  -1.224  0.00  0.00    +0.002 A 
BRANCH  25  28
ATOM     28  C   UNL     1      -5.351  -2.193  -0.074  0.00  0.00    +0.013 C 
ATOM     29  C   UNL     1      -6.233  -1.341  -0.989  0.00  0.00    +0.012 C 
ATOM     30  C   UNL     1      -5.318  -3.631  -0.594  0.00  0.00    +0.012 C 
ENDBRANCH  25  28
ENDBRANCH  21  22
ENDBRANCH  17  21
ENDBRANCH   1  17
TORSDOF 5
