REMARK  Name = ZINC40861551
REMARK  9 active torsions:
REMARK  status: ('A' for Active; 'I' for Inactive)
REMARK    1  A    between atoms: C_1  and  N_2
REMARK    2  A    between atoms: C_5  and  C_9
REMARK    3  A    between atoms: C_10  and  C_22
REMARK    4  A    between atoms: C_12  and  S_15
REMARK    5  A    between atoms: S_15  and  C_16
REMARK    6  A    between atoms: C_16  and  C_17
REMARK    7  A    between atoms: C_17  and  C_19
REMARK    8  A    between atoms: C_17  and  O_21
REMARK    9  A    between atoms: C_19  and  O_20
REMARK                            x       y       z     vdW  Elec       q    Type
REMARK                         _______ _______ _______ _____ _____    ______ ____
ROOT
ATOM      1  C   UNL     1       2.485   0.004   4.232  0.00  0.00    +0.098 A 
ATOM      2  C   UNL     1       2.528  -0.424   5.545  0.00  0.00    +0.075 A 
ATOM      3  N   UNL     1       3.228   0.540   6.244  0.00  0.00    -0.332 N 
ATOM      4  C   UNL     1       3.583   1.507   5.353  0.00  0.00    +0.167 A 
ATOM      5  N   UNL     1       3.144   1.178   4.162  0.00  0.00    -0.221 NA
ATOM      6  H   UNL     1       3.429   0.530   7.193  0.00  0.00    +0.168 HD
ENDROOT
BRANCH   1  11
ATOM      7  C   UNL     1      -0.018   1.461   0.010  0.00  0.00    +0.127 C 
ATOM      8  N   UNL     1       0.002  -0.004   0.002  0.00  0.00    -0.334 N 
ATOM      9  C   UNL     1       0.624  -0.697   1.035  0.00  0.00    +0.096 A 
ATOM     10  C   UNL     1       1.218   0.007   2.074  0.00  0.00    +0.051 A 
ATOM     11  C   UNL     1       1.838  -0.703   3.104  0.00  0.00    +0.007 A 
ATOM     12  C   UNL     1       1.831  -2.103   3.041  0.00  0.00    +0.027 A 
ATOM     13  C   UNL     1       1.219  -2.725   1.976  0.00  0.00    +0.085 A 
ATOM     14  N   UNL     1       0.637  -2.021   1.021  0.00  0.00    -0.350 N 
ATOM     15  H   UNL     1      -0.418  -0.491  -0.724  0.00  0.00    +0.147 HD
ATOM     16  H   UNL     1       0.211  -2.489   0.285  0.00  0.00    +0.166 HD
ENDBRANCH   1  11
BRANCH   2  17
ATOM     17  C   UNL     1       1.943  -1.663   6.091  0.00  0.00    +0.001 A 
ATOM     18  C   UNL     1       0.650  -2.048   5.728  0.00  0.00    +0.013 A 
ATOM     19  C   UNL     1       0.108  -3.207   6.241  0.00  0.00    +0.039 A 
ATOM     20  C   UNL     1       0.844  -3.991   7.116  0.00  0.00    +0.123 A 
ATOM     21  C   UNL     1       2.127  -3.615   7.480  0.00  0.00    +0.039 A 
ATOM     22  C   UNL     1       2.682  -2.460   6.969  0.00  0.00    +0.013 A 
ATOM     23  F   UNL     1       0.308  -5.125   7.617  0.00  0.00    -0.205 F 
ENDBRANCH   2  17
BRANCH   4  24
ATOM     24  S   UNL     1       4.495   2.965   5.738  0.00  0.00    -0.085 S 
BRANCH  24  25
ATOM     25  C   UNL     1       4.638   3.826   4.148  0.00  0.00    +0.111 C 
BRANCH  25  26
ATOM     26  C   UNL     1       5.418   5.128   4.341  0.00  0.00    +0.150 C 
BRANCH  26  27
ATOM     27  O   UNL     1       4.730   5.962   5.275  0.00  0.00    -0.389 OA
ATOM     28  H   UNL     1       3.835   6.204   5.000  0.00  0.00    +0.210 HD
ENDBRANCH  26  27
BRANCH  26  29
ATOM     29  C   UNL     1       5.539   5.854   3.000  0.00  0.00    +0.188 C 
BRANCH  29  30
ATOM     30  O   UNL     1       6.366   7.009   3.157  0.00  0.00    -0.392 OA
ATOM     31  H   UNL     1       6.487   7.519   2.344  0.00  0.00    +0.210 HD
ENDBRANCH  29  30
ENDBRANCH  26  29
ENDBRANCH  25  26
ENDBRANCH  24  25
ENDBRANCH   4  24
TORSDOF 8
