REMARK  Name = ZINC45344832
REMARK  5 active torsions:
REMARK  status: ('A' for Active; 'I' for Inactive)
REMARK    1  A    between atoms: C_1  and  C_2
REMARK    2  A    between atoms: C_4  and  C_7
REMARK    3  A    between atoms: C_7  and  N_8
REMARK    4  A    between atoms: N_11  and  N_12
REMARK    5  A    between atoms: C_13  and  C_15
REMARK                            x       y       z     vdW  Elec       q    Type
REMARK                         _______ _______ _______ _____ _____    ______ ____
ROOT
ATOM      1  N   UNL     1      -3.246  -3.703   3.945  0.00  0.00    -0.229 N 
ATOM      2  C   UNL     1      -3.658  -3.909   5.212  0.00  0.00    +0.267 C 
ATOM      3  O   UNL     1      -4.594  -4.654   5.434  0.00  0.00    -0.268 OA
ATOM      4  H   UNL     1      -2.499  -3.110   3.768  0.00  0.00    +0.173 HD
ENDROOT
BRANCH   2   5
ATOM      5  C   UNL     1      -2.978  -3.235   6.322  0.00  0.00    +0.076 A 
ATOM      6  C   UNL     1      -3.235  -3.312   7.676  0.00  0.00    +0.024 A 
ATOM      7  C   UNL     1      -2.424  -2.556   8.518  0.00  0.00    -0.036 A 
ATOM      8  C   UNL     1      -1.456  -1.813   7.919  0.00  0.00    -0.006 A 
ATOM      9  S   UNL     1      -1.598  -2.109   6.278  0.00  0.00    -0.088 S 
ATOM     10  C   UNL     1      -0.455  -0.908   8.574  0.00  0.00    +0.043 C 
ATOM     11  C   UNL     1      -0.160  -1.414   9.991  0.00  0.00    +0.005 C 
ATOM     12  C   UNL     1      -1.153  -0.772  10.954  0.00  0.00    +0.001 C 
ATOM     13  C   UNL     1      -2.583  -1.158  10.586  0.00  0.00    +0.005 C 
ATOM     14  C   UNL     1      -2.626  -2.577  10.029  0.00  0.00    +0.036 C 
ENDBRANCH   2   5
BRANCH   1  18
ATOM     15  N   UNL     1      -2.447  -3.317   1.371  0.00  0.00    -0.293 N 
ATOM     16  C   UNL     1      -3.484  -4.141   1.617  0.00  0.00    +0.316 C 
ATOM     17  O   UNL     1      -4.048  -4.700   0.696  0.00  0.00    -0.251 OA
ATOM     18  N   UNL     1      -3.896  -4.347   2.884  0.00  0.00    -0.218 N 
ATOM     19  H   UNL     1      -1.997  -2.871   2.106  0.00  0.00    +0.151 HD
ATOM     20  H   UNL     1      -4.642  -4.941   3.061  0.00  0.00    +0.174 HD
BRANCH  15  21
ATOM     21  C   UNL     1      -1.999  -3.093  -0.006  0.00  0.00    +0.161 C 
BRANCH  21  25
ATOM     22  C   UNL     1      -0.018   1.503   0.010  0.00  0.00    +0.073 C 
ATOM     23  C   UNL     1       0.002  -0.004   0.002  0.00  0.00    +0.076 A 
ATOM     24  N   UNL     1      -1.013  -0.832   0.002  0.00  0.00    -0.248 NA
ATOM     25  C   UNL     1      -0.834  -2.137  -0.006  0.00  0.00    +0.066 A 
ATOM     26  C   UNL     1       0.449  -2.582  -0.014  0.00  0.00    +0.071 A 
ATOM     27  S   UNL     1       1.335  -1.032  -0.017  0.00  0.00    -0.080 S 
ENDBRANCH  21  25
ENDBRANCH  15  21
ENDBRANCH   1  18
TORSDOF 4
