REMARK  Name = ZINC39211536
REMARK  10 active torsions:
REMARK  status: ('A' for Active; 'I' for Inactive)
REMARK    1  A    between atoms: C_1  and  C_2
REMARK    2  A    between atoms: C_6  and  C_36
REMARK    3  A    between atoms: C_7  and  N_8
REMARK    4  A    between atoms: C_9  and  C_14
REMARK    5  A    between atoms: C_14  and  C_16
REMARK    6  A    between atoms: C_14  and  N_22
REMARK    7  A    between atoms: N_22  and  C_23
REMARK    8  A    between atoms: C_23  and  C_24
REMARK    9  A    between atoms: C_24  and  C_25
REMARK   10  A    between atoms: C_33  and  C_35
REMARK                            x       y       z     vdW  Elec       q    Type
REMARK                         _______ _______ _______ _____ _____    ______ ____
ROOT
ATOM      1  C   UNL     1       2.040   1.689   1.973  0.00  0.00    +0.119 C 
ENDROOT
BRANCH   1   3
ATOM      2  N   UNL     1       0.394  -0.005   2.671  0.00  0.00    -0.261 N 
ATOM      3  C   UNL     1       1.696   0.602   2.994  0.00  0.00    +0.164 C 
ATOM      4  N   UNL     1       1.540   1.197   4.344  0.00  0.00    -0.327 NA
ATOM      5  N   UNL     1       0.395   0.450   4.895  0.00  0.00    +0.410 N 
ATOM      6  N   UNL     1      -0.462   0.254   3.715  0.00  0.00    -0.266 NA
ATOM      7  H   UNL     1       2.368   1.052   4.902  0.00  0.00    +0.106 HD
ATOM      8  H   UNL     1       0.696  -0.436   5.274  0.00  0.00    -0.031 HD
ATOM      9  H   UNL     1      -1.020   1.074   3.530  0.00  0.00    +0.125 HD
ATOM     10  H   UNL     1      -0.084   0.996   5.596  0.00  0.00    -0.031 HD
BRANCH   2  17
ATOM     11  C   UNL     1      -1.321   1.230   0.767  0.00  0.00    +0.046 C 
ATOM     12  C   UNL     1      -0.751  -0.148   0.552  0.00  0.00    -0.028 A 
ATOM     13  C   UNL     1      -1.053  -0.849  -0.600  0.00  0.00    +0.005 A 
ATOM     14  C   UNL     1      -0.530  -2.114  -0.798  0.00  0.00    +0.001 A 
ATOM     15  C   UNL     1       0.296  -2.682   0.155  0.00  0.00    +0.005 A 
ATOM     16  C   UNL     1       0.602  -1.986   1.308  0.00  0.00    -0.028 A 
ATOM     17  C   UNL     1       0.083  -0.713   1.508  0.00  0.00    +0.050 A 
ATOM     18  C   UNL     1       1.502  -2.606   2.346  0.00  0.00    +0.046 C 
ENDBRANCH   2  17
ENDBRANCH   1   3
BRANCH   1  19
ATOM     19  C   UNL     1       3.306   2.391   2.394  0.00  0.00    -0.027 A 
ATOM     20  C   UNL     1       4.535   1.814   2.135  0.00  0.00    +0.005 A 
ATOM     21  C   UNL     1       5.696   2.458   2.520  0.00  0.00    +0.000 A 
ATOM     22  C   UNL     1       5.627   3.679   3.165  0.00  0.00    +0.000 A 
ATOM     23  C   UNL     1       4.398   4.256   3.424  0.00  0.00    +0.000 A 
ATOM     24  C   UNL     1       3.237   3.614   3.034  0.00  0.00    +0.005 A 
ENDBRANCH   1  19
BRANCH   1  25
ATOM     25  N   UNL     1       2.236   1.076   0.653  0.00  0.00    -0.306 NA
ATOM     26  H   UNL     1       3.126   0.603   0.602  0.00  0.00    +0.123 HD
BRANCH  25  27
ATOM     27  C   UNL     1       2.109   2.076  -0.416  0.00  0.00    +0.086 C 
BRANCH  27  28
ATOM     28  C   UNL     1       2.208   1.383  -1.777  0.00  0.00    +0.052 C 
BRANCH  28  29
ATOM     29  C   UNL     1       2.078   2.409  -2.873  0.00  0.00    -0.018 A 
ATOM     30  C   UNL     1       3.170   3.157  -3.501  0.00  0.00    +0.003 A 
ATOM     31  C   UNL     1       4.555   3.181  -3.327  0.00  0.00    +0.010 A 
ATOM     32  C   UNL     1       5.321   4.015  -4.093  0.00  0.00    +0.001 A 
ATOM     33  C   UNL     1       4.732   4.839  -5.042  0.00  0.00    +0.002 A 
ATOM     34  C   UNL     1       3.367   4.830  -5.230  0.00  0.00    +0.026 A 
ATOM     35  C   UNL     1       2.569   3.989  -4.462  0.00  0.00    +0.047 A 
ATOM     36  N   UNL     1       1.213   3.755  -4.412  0.00  0.00    -0.358 N 
ATOM     37  C   UNL     1       0.940   2.806  -3.464  0.00  0.00    +0.017 A 
ATOM     38  H   UNL     1       0.550   4.193  -4.968  0.00  0.00    +0.166 HD
ATOM     39  C   UNL     1      -0.435   2.288  -3.129  0.00  0.00    +0.063 C 
ENDBRANCH  28  29
ENDBRANCH  27  28
ENDBRANCH  25  27
ENDBRANCH   1  25
TORSDOF 7
