REMARK  Name = ZINC09399269
REMARK  8 active torsions:
REMARK  status: ('A' for Active; 'I' for Inactive)
REMARK    1  A    between atoms: C_1  and  C_2
REMARK    2  A    between atoms: C_2  and  N_3
REMARK    3  A    between atoms: C_7  and  S_34
REMARK    4  A    between atoms: N_12  and  C_13
REMARK    5  A    between atoms: C_13  and  C_15
REMARK    6  A    between atoms: C_18  and  S_21
REMARK    7  A    between atoms: S_21  and  N_24
REMARK    8  A    between atoms: S_34  and  C_35
REMARK                            x       y       z     vdW  Elec       q    Type
REMARK                         _______ _______ _______ _____ _____    ______ ____
ROOT
ATOM      1  C   UNL     1       2.565   1.360  -0.080  0.00  0.00    +0.039 A 
ATOM      2  C   UNL     1       1.326   1.995   0.006  0.00  0.00    +0.015 A 
ATOM      3  C   UNL     1       0.170   1.243   0.047  0.00  0.00    +0.029 A 
ATOM      4  C   UNL     1       0.237  -0.138   0.003  0.00  0.00    +0.106 A 
ATOM      5  C   UNL     1       1.463  -0.774  -0.082  0.00  0.00    +0.029 A 
ATOM      6  C   UNL     1       2.626  -0.033  -0.124  0.00  0.00    +0.015 A 
ENDROOT
BRANCH   4   7
ATOM      7  S   UNL     1      -1.244  -1.091   0.056  0.00  0.00    +0.061 S 
ATOM      8  O   UNL     1      -0.884  -2.373   0.550  0.00  0.00    -0.153 OA
ATOM      9  O   UNL     1      -2.227  -0.280   0.685  0.00  0.00    -0.153 OA
BRANCH   7  10
ATOM     10  N   UNL     1      -1.741  -1.310  -1.509  0.00  0.00    -0.172 NA
ATOM     11  C   UNL     1      -1.294  -2.468  -2.300  0.00  0.00    +0.114 C 
ATOM     12  C   UNL     1      -2.520  -3.321  -2.619  0.00  0.00    +0.052 C 
ATOM     13  C   UNL     1      -3.650  -2.466  -3.129  0.00  0.00    -0.042 A 
ATOM     14  C   UNL     1      -4.662  -3.096  -3.845  0.00  0.00    +0.004 A 
ATOM     15  C   UNL     1      -5.729  -2.373  -4.334  0.00  0.00    +0.000 A 
ATOM     16  C   UNL     1      -5.798  -1.011  -4.111  0.00  0.00    +0.000 A 
ATOM     17  C   UNL     1      -4.794  -0.383  -3.403  0.00  0.00    +0.005 A 
ATOM     18  C   UNL     1      -3.716  -1.108  -2.914  0.00  0.00    -0.028 A 
ATOM     19  C   UNL     1      -2.651  -0.361  -2.160  0.00  0.00    +0.144 C 
ENDBRANCH   7  10
ENDBRANCH   4   7
BRANCH   1  20
ATOM     20  C   UNL     1       3.810   2.161  -0.124  0.00  0.00    +0.269 C 
ATOM     21  O   UNL     1       4.891   1.604  -0.198  0.00  0.00    -0.268 OA
BRANCH  20  31
ATOM     22  N   UNL     1       4.998   5.567  -0.089  0.00  0.00    -0.321 N 
ATOM     23  C   UNL     1       6.257   6.142  -0.141  0.00  0.00    +0.058 A 
ATOM     24  C   UNL     1       6.592   7.505  -0.119  0.00  0.00    +0.028 A 
ATOM     25  C   UNL     1       7.904   7.909  -0.177  0.00  0.00    +0.017 A 
ATOM     26  C   UNL     1       8.939   6.983  -0.260  0.00  0.00    +0.009 A 
ATOM     27  C   UNL     1       8.632   5.627  -0.283  0.00  0.00    +0.032 A 
ATOM     28  C   UNL     1       7.318   5.229  -0.224  0.00  0.00    +0.040 A 
ATOM     29  S   UNL     1       6.502   3.652  -0.218  0.00  0.00    -0.052 S 
ATOM     30  C   UNL     1       4.864   4.215  -0.121  0.00  0.00    +0.167 A 
ATOM     31  N   UNL     1       3.747   3.496  -0.082  0.00  0.00    -0.152 NA
BRANCH  22  33
ATOM     32  C   UNL     1       2.675   5.798  -0.820  0.00  0.00    +0.027 C 
ATOM     33  C   UNL     1       3.808   6.418  -0.000  0.00  0.00    +0.121 C 
ENDBRANCH  22  33
BRANCH  26  34
ATOM     34  S   UNL     1      10.615   7.521  -0.334  0.00  0.00    -0.129 S 
ATOM     35  C   UNL     1      10.498   9.330  -0.274  0.00  0.00    +0.090 C 
ENDBRANCH  26  34
ENDBRANCH  20  31
ENDBRANCH   1  20
TORSDOF 6
