REMARK  Name = ZINC09451065
REMARK  8 active torsions:
REMARK  status: ('A' for Active; 'I' for Inactive)
REMARK    1  A    between atoms: C_1  and  O_2
REMARK    2  A    between atoms: O_2  and  C_3
REMARK    3  A    between atoms: C_6  and  C_11
REMARK    4  A    between atoms: C_8  and  O_9
REMARK    5  A    between atoms: O_9  and  C_10
REMARK    6  A    between atoms: C_25  and  S_35
REMARK    7  A    between atoms: C_28  and  C_30
REMARK    8  A    between atoms: S_35  and  C_36
REMARK                            x       y       z     vdW  Elec       q    Type
REMARK                         _______ _______ _______ _____ _____    ______ ____
ROOT
ATOM      1  C   UNL     1       3.484  -1.698  -3.795  0.00  0.00    +0.234 C 
ATOM      2  C   UNL     1       4.891  -1.740  -3.244  0.00  0.00    +0.026 C 
ATOM      3  C   UNL     1       5.699  -0.697  -3.442  0.00  0.00    +0.050 C 
ATOM      4  C   UNL     1       5.181   0.462  -4.207  0.00  0.00    +0.038 A 
ATOM      5  C   UNL     1       5.806   1.701  -4.164  0.00  0.00    +0.013 A 
ATOM      6  C   UNL     1       5.287   2.752  -4.896  0.00  0.00    +0.001 A 
ATOM      7  C   UNL     1       4.152   2.572  -5.668  0.00  0.00    +0.004 A 
ATOM      8  C   UNL     1       3.523   1.341  -5.717  0.00  0.00    +0.046 A 
ATOM      9  C   UNL     1       4.031   0.282  -4.988  0.00  0.00    +0.131 A 
ATOM     10  O   UNL     1       3.442  -0.940  -5.003  0.00  0.00    -0.479 OA
ATOM     11  N   UNL     1       7.013  -0.669  -2.961  0.00  0.00    -0.283 N 
ATOM     12  C   UNL     1       7.555  -1.866  -2.520  0.00  0.00    +0.220 A 
ATOM     13  N   UNL     1       8.791  -2.186  -2.251  0.00  0.00    -0.187 NA
ATOM     14  C   UNL     1       8.845  -3.469  -1.861  0.00  0.00    +0.210 A 
ATOM     15  N   UNL     1       7.631  -3.974  -1.879  0.00  0.00    -0.141 NA
ATOM     16  N   UNL     1       6.777  -2.954  -2.298  0.00  0.00    -0.220 N 
ATOM     17  C   UNL     1       5.330  -2.966  -2.481  0.00  0.00    +0.179 C 
ATOM     18  H   UNL     1       7.524   0.156  -2.937  0.00  0.00    +0.155 HD
ENDROOT
BRANCH   1  22
ATOM     19  C   UNL     1       0.895   0.109  -0.910  0.00  0.00    +0.162 A 
ATOM     20  C   UNL     1       1.798   0.886  -1.619  0.00  0.00    +0.050 A 
ATOM     21  C   UNL     1       2.633   0.299  -2.550  0.00  0.00    +0.011 A 
ATOM     22  C   UNL     1       2.571  -1.063  -2.778  0.00  0.00    +0.001 A 
ATOM     23  C   UNL     1       1.673  -1.844  -2.075  0.00  0.00    +0.057 A 
ATOM     24  C   UNL     1       0.837  -1.263  -1.135  0.00  0.00    +0.162 A 
BRANCH  19  26
ATOM     25  C   UNL     1       0.188   2.098   0.185  0.00  0.00    +0.277 C 
ATOM     26  O   UNL     1       0.072   0.685   0.007  0.00  0.00    -0.491 OA
ENDBRANCH  19  26
BRANCH  24  27
ATOM     27  O   UNL     1      -0.044  -2.031  -0.439  0.00  0.00    -0.491 OA
ATOM     28  C   UNL     1      -0.136  -3.409  -0.808  0.00  0.00    +0.277 C 
ENDBRANCH  24  27
ENDBRANCH   1  22
BRANCH  17  29
ATOM     29  C   UNL     1       4.655  -2.983  -1.134  0.00  0.00    +0.019 A 
ATOM     30  C   UNL     1       3.902  -3.958  -0.569  0.00  0.00    +0.013 A 
ATOM     31  C   UNL     1       3.379  -3.754   0.694  0.00  0.00    +0.008 A 
ATOM     32  C   UNL     1       3.634  -2.585   1.330  0.00  0.00    +0.045 A 
ATOM     33  S   UNL     1       4.648  -1.728   0.136  0.00  0.00    -0.099 S 
ENDBRANCH  17  29
BRANCH  14  34
ATOM     34  S   UNL     1      10.307  -4.337  -1.401  0.00  0.00    -0.088 S 
ATOM     35  C   UNL     1      11.626  -3.105  -1.585  0.00  0.00    +0.093 C 
ENDBRANCH  14  34
TORSDOF 5
