REMARK  Name = ZINC60195286
REMARK  9 active torsions:
REMARK  status: ('A' for Active; 'I' for Inactive)
REMARK    1  A    between atoms: C_1  and  C_2
REMARK    2  A    between atoms: C_2  and  C_3
REMARK    3  A    between atoms: C_2  and  C_4
REMARK    4  A    between atoms: C_2  and  O_5
REMARK    5  A    between atoms: O_5  and  C_6
REMARK    6  A    between atoms: N_8  and  C_9
REMARK    7  A    between atoms: C_9  and  C_10
REMARK    8  A    between atoms: C_17  and  C_19
REMARK    9  A    between atoms: C_19  and  N_20
REMARK                            x       y       z     vdW  Elec       q    Type
REMARK                         _______ _______ _______ _____ _____    ______ ____
ROOT
ATOM      1  C   UNL     1       4.468  -0.655  -3.947  0.00  0.00    +0.093 C 
ATOM      2  C   UNL     1       5.974  -0.455  -4.146  0.00  0.00    +0.024 C 
ATOM      3  C   UNL     1       6.411  -1.158  -5.434  0.00  0.00    +0.003 C 
ATOM      4  C   UNL     1       6.134  -2.659  -5.317  0.00  0.00    +0.019 C 
ATOM      5  C   UNL     1       4.630  -2.883  -5.130  0.00  0.00    +0.108 C 
ATOM      6  N   UNL     1       4.170  -2.093  -3.980  0.00  0.00    -0.296 N 
ATOM      7  C   UNL     1       3.492  -2.677  -2.973  0.00  0.00    +0.234 C 
ATOM      8  O   UNL     1       3.036  -2.000  -2.075  0.00  0.00    -0.274 OA
ENDROOT
BRANCH   1   9
ATOM      9  C   UNL     1       4.048  -0.075  -2.594  0.00  0.00    +0.130 C 
BRANCH   9  12
ATOM     10  C   UNL     1       4.205   2.048  -1.410  0.00  0.00    +0.401 C 
ATOM     11  O   UNL     1       3.763   1.496  -0.422  0.00  0.00    -0.226 OA
ATOM     12  N   UNL     1       4.385   1.350  -2.548  0.00  0.00    -0.279 N 
ATOM     13  H   UNL     1       4.738   1.790  -3.337  0.00  0.00    +0.152 HD
BRANCH  10  14
ATOM     14  O   UNL     1       4.514   3.358  -1.368  0.00  0.00    -0.445 OA
BRANCH  14  16
ATOM     15  C   UNL     1       5.140   3.379   0.967  0.00  0.00    +0.055 C 
ATOM     16  C   UNL     1       4.297   4.036  -0.129  0.00  0.00    +0.107 C 
ATOM     17  C   UNL     1       2.817   3.951   0.247  0.00  0.00    +0.055 C 
ATOM     18  C   UNL     1       4.704   5.504  -0.273  0.00  0.00    +0.055 C 
ENDBRANCH  14  16
ENDBRANCH  10  14
ENDBRANCH   9  12
ENDBRANCH   1   9
BRANCH   7  19
ATOM     19  C   UNL     1       3.299  -4.172  -2.961  0.00  0.00    +0.213 C 
BRANCH  19  20
ATOM     20  N   UNL     1       2.535  -4.557  -1.771  0.00  0.00    -0.215 N 
ATOM     21  C   UNL     1       3.091  -4.869  -0.580  0.00  0.00    +0.251 C 
ATOM     22  O   UNL     1       4.270  -4.885  -0.300  0.00  0.00    -0.272 OA
ATOM     23  C   UNL     1       1.931  -5.194   0.325  0.00  0.00    +0.138 C 
ATOM     24  C   UNL     1       2.027  -6.628   0.860  0.00  0.00    +0.045 C 
ATOM     25  C   UNL     1       1.390  -6.496   2.262  0.00  0.00    +0.038 C 
ATOM     26  C   UNL     1       1.589  -5.046   2.654  0.00  0.00    -0.042 A 
ATOM     27  C   UNL     1       1.899  -4.295   1.532  0.00  0.00    -0.012 A 
ATOM     28  C   UNL     1       2.122  -2.934   1.657  0.00  0.00    +0.006 A 
ATOM     29  C   UNL     1       2.036  -2.325   2.893  0.00  0.00    +0.000 A 
ATOM     30  C   UNL     1       1.727  -3.074   4.012  0.00  0.00    +0.000 A 
ATOM     31  C   UNL     1       1.503  -4.432   3.891  0.00  0.00    +0.004 A 
ATOM     32  N   UNL     1       0.747  -5.017  -0.515  0.00  0.00    -0.281 N 
ATOM     33  C   UNL     1       1.199  -4.637  -1.728  0.00  0.00    +0.310 C 
ATOM     34  O   UNL     1       0.476  -4.397  -2.675  0.00  0.00    -0.252 OA
ATOM     35  H   UNL     1      -0.178  -5.144  -0.252  0.00  0.00    +0.152 HD
ENDBRANCH  19  20
ENDBRANCH   7  19
TORSDOF 6
