REMARK  Name = ZINC39984697
REMARK  9 active torsions:
REMARK  status: ('A' for Active; 'I' for Inactive)
REMARK    1  A    between atoms: C_1  and  C_2
REMARK    2  A    between atoms: C_4  and  O_26
REMARK    3  A    between atoms: C_6  and  O_25
REMARK    4  A    between atoms: C_7  and  C_8
REMARK    5  A    between atoms: C_10  and  C_18
REMARK    6  A    between atoms: C_11  and  C_14
REMARK    7  A    between atoms: C_21  and  C_24
REMARK    8  A    between atoms: O_26  and  C_27
REMARK    9  A    between atoms: C_27  and  C_28
REMARK                            x       y       z     vdW  Elec       q    Type
REMARK                         _______ _______ _______ _____ _____    ______ ____
ROOT
ATOM      1  C   UNL     1      -0.190   0.648  -0.343  0.00  0.00    +0.044 C 
ATOM      2  C   UNL     1      -0.291  -0.819  -0.015  0.00  0.00    -0.038 A 
ATOM      3  C   UNL     1      -0.452  -1.744  -1.029  0.00  0.00    +0.049 A 
ATOM      4  C   UNL     1      -0.545  -3.095  -0.730  0.00  0.00    +0.125 A 
ATOM      5  C   UNL     1      -0.477  -3.518   0.589  0.00  0.00    +0.091 A 
ATOM      6  C   UNL     1      -0.316  -2.589   1.605  0.00  0.00    +0.126 A 
ATOM      7  C   UNL     1      -0.217  -1.238   1.300  0.00  0.00    +0.025 A 
ENDROOT
BRANCH   7   8
ATOM      8  C   UNL     1      -0.036  -0.228   2.403  0.00  0.00    +0.166 C 
ATOM      9  C   UNL     1      -1.320  -0.063   3.197  0.00  0.00    +0.034 C 
ATOM     10  C   UNL     1      -0.976  -0.450   4.448  0.00  0.00    +0.170 C 
ATOM     11  N   UNL     1       0.322  -0.814   4.488  0.00  0.00    -0.173 NA
ATOM     12  N   UNL     1       0.919  -0.722   3.409  0.00  0.00    -0.296 N 
ATOM     13  H   UNL     1       1.852  -0.939   3.251  0.00  0.00    +0.183 HD
BRANCH   9  14
ATOM     14  C   UNL     1      -2.625   0.405   2.720  0.00  0.00    +0.055 C 
ATOM     15  C   UNL     1      -3.020   1.869   2.847  0.00  0.00    +0.126 C 
ATOM     16  S   UNL     1      -4.481   1.906   1.718  0.00  0.00    -0.128 S 
ATOM     17  C   UNL     1      -4.766   0.082   1.717  0.00  0.00    +0.160 C 
ATOM     18  N   UNL     1      -3.452  -0.402   2.187  0.00  0.00    -0.273 NA
ATOM     19  C   UNL     1      -5.067  -0.429   0.306  0.00  0.00    +0.044 C 
ENDBRANCH   9  14
BRANCH  10  20
ATOM     20  C   UNL     1      -1.911  -0.470   5.629  0.00  0.00    +0.436 C 
ATOM     21  F   UNL     1      -3.205  -0.151   5.205  0.00  0.00    -0.164 F 
ATOM     22  F   UNL     1      -1.910  -1.746   6.203  0.00  0.00    -0.164 F 
ATOM     23  F   UNL     1      -1.486   0.467   6.577  0.00  0.00    -0.164 F 
ENDBRANCH  10  20
ENDBRANCH   7   8
BRANCH   6  24
ATOM     24  O   UNL     1      -0.249  -3.000   2.898  0.00  0.00    -0.506 OA
ATOM     25  H   UNL     1       0.647  -3.196   3.203  0.00  0.00    +0.292 HD
ENDBRANCH   6  24
BRANCH   4  26
ATOM     26  O   UNL     1      -0.704  -4.003  -1.728  0.00  0.00    -0.487 OA
BRANCH  26  27
ATOM     27  C   UNL     1      -0.793  -5.378  -1.346  0.00  0.00    +0.264 C 
BRANCH  27  28
ATOM     28  C   UNL     1      -0.966  -6.231  -2.577  0.00  0.00    -0.010 A 
ATOM     29  C   UNL     1      -2.234  -6.513  -3.049  0.00  0.00    +0.010 A 
ATOM     30  C   UNL     1      -2.393  -7.295  -4.177  0.00  0.00    +0.039 A 
ATOM     31  C   UNL     1      -1.282  -7.795  -4.835  0.00  0.00    +0.123 A 
ATOM     32  C   UNL     1      -0.012  -7.511  -4.361  0.00  0.00    +0.039 A 
ATOM     33  C   UNL     1       0.145  -6.725  -3.236  0.00  0.00    +0.010 A 
ATOM     34  F   UNL     1      -1.437  -8.559  -5.938  0.00  0.00    -0.205 F 
ENDBRANCH  27  28
ENDBRANCH  26  27
ENDBRANCH   4  26
TORSDOF 7
