REMARK  Name = ZINC12064263
REMARK  6 active torsions:
REMARK  status: ('A' for Active; 'I' for Inactive)
REMARK    1  A    between atoms: C_1  and  C_2
REMARK    2  A    between atoms: C_9  and  N_15
REMARK    3  A    between atoms: C_10  and  C_11
REMARK    4  A    between atoms: N_13  and  C_14
REMARK    5  A    between atoms: C_16  and  C_18
REMARK    6  A    between atoms: C_22  and  N_27
REMARK                            x       y       z     vdW  Elec       q    Type
REMARK                         _______ _______ _______ _____ _____    ______ ____
ROOT
ATOM      1  N   UNL     1       4.609   0.896   4.419  0.00  0.00    -0.275 N 
ATOM      2  C   UNL     1       5.893   1.105   4.066  0.00  0.00    +0.255 C 
ATOM      3  O   UNL     1       6.168   1.402   2.919  0.00  0.00    -0.269 OA
ATOM      4  H   UNL     1       4.389   0.659   5.333  0.00  0.00    +0.156 HD
ENDROOT
BRANCH   1  12
ATOM      5  C   UNL     1      -0.758   1.595  -1.227  0.00  0.00    +0.008 C 
ATOM      6  C   UNL     1      -0.013   1.086   0.008  0.00  0.00    -0.009 C 
ATOM      7  C   UNL     1      -0.714   1.583   1.276  0.00  0.00    +0.008 C 
ATOM      8  C   UNL     1      -0.129   0.880   2.502  0.00  0.00    +0.037 C 
ATOM      9  C   UNL     1       1.387   1.034   2.479  0.00  0.00    -0.023 A 
ATOM     10  C   UNL     1       2.035   1.365   1.342  0.00  0.00    -0.004 A 
ATOM     11  S   UNL     1       3.745   1.427   1.797  0.00  0.00    -0.077 S 
ATOM     12  C   UNL     1       3.603   1.019   3.475  0.00  0.00    +0.085 A 
ATOM     13  C   UNL     1       2.236   0.845   3.643  0.00  0.00    +0.069 A 
ATOM     14  C   UNL     1       1.427   1.620  -0.003  0.00  0.00    +0.046 C 
BRANCH  13  15
ATOM     15  C   UNL     1       1.670   0.482   4.946  0.00  0.00    +0.246 C 
ATOM     16  O   UNL     1       1.335   1.353   5.727  0.00  0.00    -0.270 OA
ATOM     17  N   UNL     1       1.522  -0.815   5.279  0.00  0.00    -0.314 N 
ATOM     18  C   UNL     1       0.957  -1.177   6.582  0.00  0.00    +0.128 C 
ATOM     19  H   UNL     1       1.790  -1.509   4.657  0.00  0.00    +0.149 HD
ENDBRANCH  13  15
ENDBRANCH   1  12
BRANCH   2  20
ATOM     20  C   UNL     1       6.960   0.975   5.068  0.00  0.00    +0.075 A 
ATOM     21  C   UNL     1       8.299   1.145   4.906  0.00  0.00    +0.029 A 
ATOM     22  C   UNL     1       9.166   0.974   6.000  0.00  0.00    -0.008 A 
ATOM     23  C   UNL     1      10.578   1.106   6.032  0.00  0.00    +0.041 A 
ATOM     24  C   UNL     1      11.270   0.905   7.183  0.00  0.00    +0.127 A 
ATOM     25  C   UNL     1      10.628   0.563   8.367  0.00  0.00    +0.034 A 
ATOM     26  C   UNL     1       9.255   0.425   8.382  0.00  0.00    +0.018 A 
ATOM     27  C   UNL     1       8.540   0.626   7.221  0.00  0.00    +0.020 A 
ATOM     28  S   UNL     1       6.817   0.562   6.798  0.00  0.00    -0.084 S 
BRANCH  24  29
ATOM     29  N   UNL     1      12.742   1.052   7.175  0.00  0.00    +0.056 N 
ATOM     30  O   UNL     1      13.320   1.350   6.145  0.00  0.00    -0.126 OA
ATOM     31  O   UNL     1      13.377   0.874   8.199  0.00  0.00    -0.126 OA
ENDBRANCH  24  29
ENDBRANCH   2  20
TORSDOF 4
