REMARK  Name = ZINC38731715
REMARK  4 active torsions:
REMARK  status: ('A' for Active; 'I' for Inactive)
REMARK    1  A    between atoms: C_7  and  N_21
REMARK    2  A    between atoms: C_8  and  C_10
REMARK    3  A    between atoms: C_10  and  C_12
REMARK    4  A    between atoms: C_22  and  C_24
REMARK                            x       y       z     vdW  Elec       q    Type
REMARK                         _______ _______ _______ _____ _____    ______ ____
ROOT
ATOM      1  C   UNL     1       0.170   1.240   1.218  0.00  0.00    +0.001 A 
ATOM      2  C   UNL     1       1.310   1.992   0.972  0.00  0.00    +0.004 A 
ATOM      3  C   UNL     1       2.438   1.408   0.439  0.00  0.00    +0.047 A 
ATOM      4  C   UNL     1       2.440   0.049   0.142  0.00  0.00    +0.138 A 
ATOM      5  C   UNL     1       1.282  -0.707   0.394  0.00  0.00    +0.042 A 
ATOM      6  C   UNL     1       0.149  -0.097   0.934  0.00  0.00    +0.013 A 
ATOM      7  C   UNL     1       1.601  -2.079  -0.020  0.00  0.00    +0.091 A 
ATOM      8  C   UNL     1       2.903  -2.038  -0.480  0.00  0.00    +0.197 A 
ATOM      9  O   UNL     1       3.374  -0.775  -0.374  0.00  0.00    -0.450 OA
ENDROOT
BRANCH   7  10
ATOM     10  N   UNL     1       0.768  -3.187   0.039  0.00  0.00    -0.277 N 
ATOM     11  C   UNL     1      -0.561  -3.040  -0.126  0.00  0.00    +0.255 C 
ATOM     12  O   UNL     1      -1.041  -1.927  -0.242  0.00  0.00    -0.269 OA
ATOM     13  H   UNL     1       1.143  -4.067   0.199  0.00  0.00    +0.155 HD
BRANCH  11  14
ATOM     14  C   UNL     1      -1.429  -4.220  -0.166  0.00  0.00    +0.074 A 
ATOM     15  C   UNL     1      -2.804  -4.288  -0.331  0.00  0.00    +0.021 A 
ATOM     16  C   UNL     1      -3.344  -5.552  -0.326  0.00  0.00    +0.008 A 
ATOM     17  C   UNL     1      -2.523  -6.619  -0.165  0.00  0.00    +0.046 A 
ATOM     18  S   UNL     1      -0.992  -5.942  -0.024  0.00  0.00    -0.092 S 
ENDBRANCH  11  14
ENDBRANCH   7  10
BRANCH   8  19
ATOM     19  C   UNL     1       3.631  -3.144  -0.982  0.00  0.00    +0.230 C 
ATOM     20  O   UNL     1       3.075  -4.217  -1.142  0.00  0.00    -0.283 OA
BRANCH  19  21
ATOM     21  C   UNL     1       5.063  -2.998  -1.313  0.00  0.00    +0.029 A 
ATOM     22  C   UNL     1       5.738  -1.817  -0.994  0.00  0.00    +0.015 A 
ATOM     23  C   UNL     1       7.074  -1.683  -1.303  0.00  0.00    +0.050 A 
ATOM     24  C   UNL     1       7.754  -2.718  -1.931  0.00  0.00    +0.166 A 
ATOM     25  C   UNL     1       7.086  -3.900  -2.252  0.00  0.00    +0.167 A 
ATOM     26  C   UNL     1       5.748  -4.042  -1.939  0.00  0.00    +0.061 A 
ATOM     27  O   UNL     1       7.968  -4.748  -2.856  0.00  0.00    -0.453 OA
ATOM     28  C   UNL     1       9.073  -3.923  -3.270  0.00  0.00    +0.466 C 
ATOM     29  O   UNL     1       9.052  -2.829  -2.334  0.00  0.00    -0.453 OA
ENDBRANCH  19  21
ENDBRANCH   8  19
TORSDOF 4
