REMARK  Name = ZINC63272118
REMARK  5 active torsions:
REMARK  status: ('A' for Active; 'I' for Inactive)
REMARK    1  A    between atoms: C_1  and  O_2
REMARK    2  A    between atoms: O_2  and  C_3
REMARK    3  A    between atoms: C_13  and  C_19
REMARK    4  A    between atoms: N_15  and  C_16
REMARK    5  A    between atoms: N_21  and  C_22
REMARK                            x       y       z     vdW  Elec       q    Type
REMARK                         _______ _______ _______ _____ _____    ______ ____
ROOT
ATOM      1  C   UNL     1      -1.198  -1.082   0.045  0.00  0.00    +0.180 A 
ATOM      2  C   UNL     1      -1.813  -1.174   1.286  0.00  0.00    +0.086 A 
ATOM      3  C   UNL     1      -3.069  -1.792   1.402  0.00  0.00    +0.050 A 
ATOM      4  C   UNL     1      -3.688  -2.325   0.269  0.00  0.00    +0.055 A 
ATOM      5  C   UNL     1      -3.066  -2.230  -0.958  0.00  0.00    +0.163 A 
ATOM      6  C   UNL     1      -1.830  -1.604  -1.075  0.00  0.00    +0.202 A 
ATOM      7  F   UNL     1      -1.237  -1.508  -2.285  0.00  0.00    -0.199 F 
ATOM      8  F   UNL     1      -3.663  -2.744  -2.055  0.00  0.00    -0.202 F 
ATOM      9  C   UNL     1      -3.714  -1.848   2.723  0.00  0.00    +0.198 C 
ATOM     10  O   UNL     1      -4.793  -2.639   2.921  0.00  0.00    -0.287 OA
ATOM     11  C   UNL     1      -3.216  -1.098   3.746  0.00  0.00    +0.079 C 
ATOM     12  C   UNL     1      -2.054  -0.166   3.523  0.00  0.00    +0.149 C 
ATOM     13  N   UNL     1      -1.206  -0.672   2.437  0.00  0.00    -0.319 N 
ENDROOT
BRANCH  11  14
ATOM     14  C   UNL     1      -3.796  -1.194   5.027  0.00  0.00    +0.248 C 
ATOM     15  O   UNL     1      -4.737  -1.945   5.215  0.00  0.00    -0.270 OA
ATOM     16  N   UNL     1      -3.310  -0.456   6.044  0.00  0.00    -0.275 N 
ATOM     17  H   UNL     1      -2.561   0.142   5.895  0.00  0.00    +0.153 HD
BRANCH  16  18
ATOM     18  C   UNL     1      -3.913  -0.556   7.375  0.00  0.00    +0.269 C 
ATOM     19  N   UNL     1      -5.163   0.212   7.422  0.00  0.00    -0.348 N 
ATOM     20  C   UNL     1      -5.022   1.134   8.330  0.00  0.00    +0.061 A 
ATOM     21  C   UNL     1      -5.912   2.193   8.825  0.00  0.00    +0.027 A 
ATOM     22  C   UNL     1      -5.482   3.021   9.798  0.00  0.00    +0.002 A 
ATOM     23  C   UNL     1      -4.202   2.920  10.370  0.00  0.00    +0.002 A 
ATOM     24  C   UNL     1      -3.307   1.986   9.988  0.00  0.00    +0.027 A 
ATOM     25  C   UNL     1      -3.666   1.026   8.935  0.00  0.00    +0.061 A 
ATOM     26  N   UNL     1      -3.022   0.042   8.378  0.00  0.00    -0.348 N 
ATOM     27  H   UNL     1      -5.950   0.060   6.876  0.00  0.00    +0.163 HD
ATOM     28  H   UNL     1      -2.119  -0.245   8.588  0.00  0.00    +0.163 HD
ENDBRANCH  16  18
ENDBRANCH  11  14
BRANCH  13  29
ATOM     29  C   UNL     1       0.254  -0.650   2.561  0.00  0.00    +0.074 C 
ATOM     30  C   UNL     1       0.842  -0.404   3.952  0.00  0.00    +0.024 C 
ATOM     31  C   UNL     1       0.915   0.691   2.886  0.00  0.00    +0.024 C 
ENDBRANCH  13  29
BRANCH   1  33
ATOM     32  C   UNL     1       0.019   0.928  -0.327  0.00  0.00    +0.277 C 
ATOM     33  O   UNL     1       0.016  -0.478  -0.074  0.00  0.00    -0.490 OA
ENDBRANCH   1  33
TORSDOF 4
