REMARK  Name = ZINC38890369
REMARK  7 active torsions:
REMARK  status: ('A' for Active; 'I' for Inactive)
REMARK    1  A    between atoms: C_1  and  C_2
REMARK    2  A    between atoms: C_5  and  N_8
REMARK    3  A    between atoms: C_9  and  S_20
REMARK    4  A    between atoms: S_20  and  C_21
REMARK    5  A    between atoms: C_21  and  C_22
REMARK    6  A    between atoms: N_24  and  N_25
REMARK    7  A    between atoms: C_26  and  C_27
REMARK                            x       y       z     vdW  Elec       q    Type
REMARK                         _______ _______ _______ _____ _____    ______ ____
ROOT
ATOM      1  N   UNL     1       0.059  -4.169  -0.021  0.00  0.00    -0.239 N 
ATOM      2  C   UNL     1       0.180  -4.893   1.245  0.00  0.00    +0.227 C 
ATOM      3  N   UNL     1       0.925  -6.141   1.048  0.00  0.00    -0.317 N 
ATOM      4  C   UNL     1       0.640  -6.924  -0.066  0.00  0.00    +0.041 A 
ATOM      5  C   UNL     1       0.813  -8.297  -0.055  0.00  0.00    +0.024 A 
ATOM      6  C   UNL     1       0.525  -9.032  -1.190  0.00  0.00    +0.002 A 
ATOM      7  C   UNL     1       0.067  -8.405  -2.337  0.00  0.00    +0.001 A 
ATOM      8  C   UNL     1      -0.116  -7.038  -2.363  0.00  0.00    +0.015 A 
ATOM      9  C   UNL     1       0.165  -6.285  -1.225  0.00  0.00    +0.058 A 
ATOM     10  C   UNL     1      -0.041  -4.826  -1.194  0.00  0.00    +0.255 C 
ATOM     11  O   UNL     1      -0.296  -4.220  -2.217  0.00  0.00    -0.269 OA
ATOM     12  H   UNL     1       1.605  -6.416   1.683  0.00  0.00    +0.149 HD
ENDROOT
BRANCH   1  17
ATOM     13  C   UNL     1      -0.016   1.503   0.012  0.00  0.00    +0.044 C 
ATOM     14  C   UNL     1       0.004  -0.004   0.003  0.00  0.00    -0.050 A 
ATOM     15  C   UNL     1      -1.183  -0.710   0.087  0.00  0.00    +0.005 A 
ATOM     16  C   UNL     1      -1.168  -2.091   0.079  0.00  0.00    +0.024 A 
ATOM     17  C   UNL     1       0.040  -2.771  -0.013  0.00  0.00    +0.039 A 
ATOM     18  C   UNL     1       1.230  -2.058  -0.097  0.00  0.00    +0.024 A 
ATOM     19  C   UNL     1       1.207  -0.678  -0.094  0.00  0.00    +0.005 A 
ENDBRANCH   1  17
BRANCH   2  20
ATOM     20  S   UNL     1      -1.476  -5.281   1.876  0.00  0.00    -0.110 S 
BRANCH  20  21
ATOM     21  C   UNL     1      -2.215  -6.301   0.571  0.00  0.00    +0.170 C 
BRANCH  21  22
ATOM     22  C   UNL     1      -3.612  -6.697   0.974  0.00  0.00    +0.242 C 
ATOM     23  O   UNL     1      -4.065  -6.328   2.036  0.00  0.00    -0.273 OA
ATOM     24  N   UNL     1      -4.359  -7.463   0.153  0.00  0.00    -0.206 N 
ATOM     25  H   UNL     1      -3.997  -7.758  -0.697  0.00  0.00    +0.177 HD
BRANCH  24  26
ATOM     26  N   UNL     1      -5.658  -7.831   0.527  0.00  0.00    -0.188 NA
ATOM     27  C   UNL     1      -6.383  -8.574  -0.270  0.00  0.00    +0.136 C 
BRANCH  27  28
ATOM     28  C   UNL     1      -7.683  -8.943   0.105  0.00  0.00    +0.000 C 
ATOM     29  C   UNL     1      -8.577  -9.728  -0.619  0.00  0.00    +0.004 A 
ATOM     30  C   UNL     1      -8.486 -10.367  -1.875  0.00  0.00    +0.010 A 
ATOM     31  C   UNL     1      -9.539 -11.083  -2.344  0.00  0.00    +0.001 A 
ATOM     32  C   UNL     1     -10.724 -11.208  -1.613  0.00  0.00    +0.002 A 
ATOM     33  C   UNL     1     -10.882 -10.623  -0.402  0.00  0.00    +0.026 A 
ATOM     34  C   UNL     1      -9.824  -9.856   0.156  0.00  0.00    +0.043 A 
ATOM     35  N   UNL     1      -9.729  -9.200   1.293  0.00  0.00    -0.380 N 
ATOM     36  C   UNL     1      -8.405  -8.577   1.383  0.00  0.00    +0.150 C 
ATOM     37  H   UNL     1     -10.424  -9.140   1.967  0.00  0.00    +0.160 HD
ENDBRANCH  27  28
ENDBRANCH  24  26
ENDBRANCH  21  22
ENDBRANCH  20  21
ENDBRANCH   2  20
TORSDOF 6
