REMARK  Name = ZINC64218942
REMARK  8 active torsions:
REMARK  status: ('A' for Active; 'I' for Inactive)
REMARK    1  A    between atoms: C_7  and  C_10
REMARK    2  A    between atoms: C_10  and  C_11
REMARK    3  A    between atoms: C_11  and  C_13
REMARK    4  A    between atoms: C_11  and  N_26
REMARK    5  A    between atoms: N_15  and  C_16
REMARK    6  A    between atoms: C_19  and  S_22
REMARK    7  A    between atoms: S_22  and  C_23
REMARK    8  A    between atoms: C_27  and  C_29
REMARK                            x       y       z     vdW  Elec       q    Type
REMARK                         _______ _______ _______ _____ _____    ______ ____
ROOT
ATOM      1  C   UNL     1       0.464  -3.680  -1.300  0.00  0.00    +0.163 C 
ENDROOT
BRANCH   1   2
ATOM      2  C   UNL     1      -0.582  -4.764  -1.303  0.00  0.00    +0.238 C 
ATOM      3  O   UNL     1      -0.250  -5.928  -1.223  0.00  0.00    -0.273 OA
ATOM      4  N   UNL     1      -1.887  -4.441  -1.394  0.00  0.00    -0.284 N 
ATOM      5  H   UNL     1      -2.158  -3.510  -1.381  0.00  0.00    +0.155 HD
BRANCH   4   6
ATOM      6  C   UNL     1      -2.853  -5.450  -1.508  0.00  0.00    +0.034 A 
ATOM      7  C   UNL     1      -4.109  -5.276  -0.943  0.00  0.00    +0.024 A 
ATOM      8  C   UNL     1      -5.061  -6.270  -1.056  0.00  0.00    +0.017 A 
ATOM      9  C   UNL     1      -4.761  -7.445  -1.735  0.00  0.00    +0.013 A 
ATOM     10  C   UNL     1      -3.504  -7.618  -2.300  0.00  0.00    +0.017 A 
ATOM     11  C   UNL     1      -2.555  -6.622  -2.192  0.00  0.00    +0.024 A 
BRANCH   9  12
ATOM     12  S   UNL     1      -5.975  -8.714  -1.878  0.00  0.00    -0.056 S 
BRANCH  12  13
ATOM     13  C   UNL     1      -5.139 -10.016  -2.824  0.00  0.00    +0.404 C 
ATOM     14  F   UNL     1      -4.753  -9.512  -4.071  0.00  0.00    -0.197 F 
ATOM     15  F   UNL     1      -4.006 -10.447  -2.125  0.00  0.00    -0.197 F 
ENDBRANCH  12  13
ENDBRANCH   9  12
ENDBRANCH   4   6
ENDBRANCH   1   2
BRANCH   1  16
ATOM     16  N   UNL     1       1.761  -4.252  -1.670  0.00  0.00    -0.299 N 
ATOM     17  C   UNL     1       2.305  -5.231  -0.920  0.00  0.00    +0.251 C 
ATOM     18  O   UNL     1       1.718  -5.640   0.065  0.00  0.00    -0.270 OA
ATOM     19  H   UNL     1       2.229  -3.926  -2.455  0.00  0.00    +0.150 HD
BRANCH  17  20
ATOM     20  C   UNL     1       3.603  -5.803  -1.290  0.00  0.00    +0.074 A 
ATOM     21  C   UNL     1       4.325  -6.808  -0.665  0.00  0.00    +0.021 A 
ATOM     22  C   UNL     1       5.524  -7.135  -1.251  0.00  0.00    +0.008 A 
ATOM     23  C   UNL     1       5.912  -6.473  -2.369  0.00  0.00    +0.046 A 
ATOM     24  S   UNL     1       4.660  -5.393  -2.665  0.00  0.00    -0.092 S 
ENDBRANCH  17  20
ENDBRANCH   1  16
BRANCH   1  25
ATOM     25  C   UNL     1       0.558  -3.065   0.098  0.00  0.00    +0.065 C 
BRANCH  25  32
ATOM     26  C   UNL     1      -0.070   1.451  -0.412  0.00  0.00    +0.001 A 
ATOM     27  C   UNL     1       1.119   2.192  -0.374  0.00  0.00    +0.002 A 
ATOM     28  C   UNL     1       2.329   1.620  -0.203  0.00  0.00    +0.026 A 
ATOM     29  C   UNL     1       2.443   0.210  -0.052  0.00  0.00    +0.043 A 
ATOM     30  N   UNL     1       3.483  -0.568   0.123  0.00  0.00    -0.380 N 
ATOM     31  C   UNL     1       3.019  -1.956   0.218  0.00  0.00    +0.144 C 
ATOM     32  C   UNL     1       1.514  -1.901   0.072  0.00  0.00    -0.039 C 
ATOM     33  C   UNL     1       1.201  -0.595  -0.087  0.00  0.00    -0.001 A 
ATOM     34  C   UNL     1      -0.075   0.106  -0.277  0.00  0.00    +0.010 A 
ATOM     35  H   UNL     1       4.406  -0.275   0.180  0.00  0.00    +0.160 HD
ENDBRANCH  25  32
ENDBRANCH   1  25
TORSDOF 8
