REMARK  Name = ZINC59466346
REMARK  8 active torsions:
REMARK  status: ('A' for Active; 'I' for Inactive)
REMARK    1  A    between atoms: C_1  and  O_2
REMARK    2  A    between atoms: O_2  and  C_3
REMARK    3  A    between atoms: C_7  and  C_10
REMARK    4  A    between atoms: C_8  and  O_9
REMARK    5  A    between atoms: N_11  and  C_12
REMARK    6  A    between atoms: C_15  and  S_18
REMARK    7  A    between atoms: S_18  and  N_21
REMARK    8  A    between atoms: N_21  and  C_22
REMARK                            x       y       z     vdW  Elec       q    Type
REMARK                         _______ _______ _______ _____ _____    ______ ____
ROOT
ATOM      1  C   UNL     1      -1.539  -6.214   0.007  0.00  0.00    +0.064 A 
ATOM      2  C   UNL     1      -2.423  -6.874   0.863  0.00  0.00    +0.029 A 
ATOM      3  C   UNL     1      -2.484  -8.252   0.857  0.00  0.00    +0.031 A 
ATOM      4  C   UNL     1      -1.672  -8.980   0.006  0.00  0.00    +0.111 A 
ATOM      5  C   UNL     1      -0.793  -8.333  -0.845  0.00  0.00    +0.031 A 
ATOM      6  C   UNL     1      -0.726  -6.955  -0.854  0.00  0.00    +0.029 A 
ENDROOT
BRANCH   4   7
ATOM      7  S   UNL     1      -1.756 -10.740   0.005  0.00  0.00    +0.093 S 
ATOM      8  O   UNL     1      -0.508 -11.206  -0.490  0.00  0.00    -0.148 OA
ATOM      9  O   UNL     1      -2.262 -11.123   1.277  0.00  0.00    -0.148 OA
BRANCH   7  10
ATOM     10  N   UNL     1      -2.900 -11.176  -1.110  0.00  0.00    -0.070 NA
BRANCH  10  11
ATOM     11  C   UNL     1      -3.182 -12.515  -1.327  0.00  0.00    +0.201 A 
ATOM     12  N   UNL     1      -2.651 -13.568  -0.742  0.00  0.00    -0.231 NA
ATOM     13  C   UNL     1      -3.032 -14.792  -1.064  0.00  0.00    +0.120 A 
ATOM     14  C   UNL     1      -3.988 -14.909  -2.017  0.00  0.00    +0.068 A 
ATOM     15  S   UNL     1      -4.291 -13.191  -2.397  0.00  0.00    -0.058 S 
ENDBRANCH  10  11
ENDBRANCH   7  10
ENDBRANCH   4   7
BRANCH   1  17
ATOM     16  C   UNL     1      -2.570  -4.142   0.017  0.00  0.00    +0.123 C 
ATOM     17  N   UNL     1      -1.473  -4.847   0.008  0.00  0.00    -0.255 NA
BRANCH  16  22
ATOM     18  C   UNL     1      -1.201  -0.638   0.010  0.00  0.00    +0.162 A 
ATOM     19  C   UNL     1      -2.373   0.101   0.019  0.00  0.00    +0.049 A 
ATOM     20  C   UNL     1      -3.603  -0.536   0.028  0.00  0.00    +0.004 A 
ATOM     21  C   UNL     1      -3.674  -1.913   0.027  0.00  0.00    +0.013 A 
ATOM     22  C   UNL     1      -2.499  -2.673   0.017  0.00  0.00    +0.038 A 
ATOM     23  C   UNL     1      -1.255  -2.027   0.003  0.00  0.00    +0.167 A 
BRANCH  18  25
ATOM     24  C   UNL     1      -0.017   1.425   0.010  0.00  0.00    +0.277 C 
ATOM     25  O   UNL     1       0.002  -0.004   0.002  0.00  0.00    -0.491 OA
ENDBRANCH  18  25
BRANCH  23  26
ATOM     26  O   UNL     1      -0.108  -2.755  -0.012  0.00  0.00    -0.503 OA
ATOM     27  H   UNL     1       0.233  -2.970   0.867  0.00  0.00    +0.292 HD
ENDBRANCH  23  26
ENDBRANCH  16  22
ENDBRANCH   1  17
TORSDOF 7
