REMARK  Name = ZINC08928038
REMARK  5 active torsions:
REMARK  status: ('A' for Active; 'I' for Inactive)
REMARK    1  A    between atoms: C_1  and  C_2
REMARK    2  A    between atoms: C_2  and  N_48
REMARK    3  A    between atoms: C_10  and  O_28
REMARK    4  A    between atoms: C_12  and  C_15
REMARK    5  A    between atoms: C_18  and  C_20
REMARK                            x       y       z     vdW  Elec       q    Type
REMARK                         _______ _______ _______ _____ _____    ______ ____
ROOT
ATOM      1  C   UNL     1      -0.205   0.937  -2.401  0.00  0.00    -0.074 C 
ATOM      2  C   UNL     1      -1.178   1.155  -3.563  0.00  0.00    +0.018 C 
ATOM      3  C   UNL     1      -1.486   2.646  -3.652  0.00  0.00    -0.027 A 
ATOM      4  C   UNL     1      -1.224   3.454  -2.598  0.00  0.00    -0.021 A 
ATOM      5  S   UNL     1      -1.722   5.070  -3.128  0.00  0.00    -0.080 S 
ATOM      6  C   UNL     1      -2.260   4.678  -4.705  0.00  0.00    +0.080 A 
ATOM      7  C   UNL     1      -2.059   3.296  -4.816  0.00  0.00    +0.067 A 
ATOM      8  C   UNL     1      -2.454   2.653  -6.096  0.00  0.00    +0.220 C 
ATOM      9  N   UNL     1      -2.728   3.432  -7.106  0.00  0.00    -0.220 NA
ATOM     10  C   UNL     1      -2.612   4.885  -7.089  0.00  0.00    +0.260 C 
ATOM     11  N   UNL     1      -2.785   5.428  -5.729  0.00  0.00    -0.311 N 
ATOM     12  C   UNL     1      -0.639   3.042  -1.284  0.00  0.00    -0.035 C 
ATOM     13  H   UNL     1      -3.244   6.267  -5.567  0.00  0.00    +0.149 HD
ATOM     14  N   UNL     1      -0.749   1.566  -1.181  0.00  0.00    +0.383 N 
ATOM     15  H   UNL     1      -1.739   1.310  -1.086  0.00  0.00    -0.081 HD
ENDROOT
BRANCH  10  16
ATOM     16  C   UNL     1      -1.252   5.276  -7.605  0.00  0.00    +0.148 A 
ATOM     17  C   UNL     1      -0.523   4.584  -8.503  0.00  0.00    +0.049 A 
ATOM     18  C   UNL     1       0.673   5.300  -8.705  0.00  0.00    +0.050 A 
ATOM     19  C   UNL     1       0.613   6.397  -7.903  0.00  0.00    +0.137 A 
ATOM     20  O   UNL     1      -0.560   6.369  -7.242  0.00  0.00    -0.456 OA
BRANCH  19  21
ATOM     21  C   UNL     1       1.653   7.439  -7.779  0.00  0.00    +0.037 A 
ATOM     22  C   UNL     1       1.311   8.788  -7.887  0.00  0.00    +0.013 A 
ATOM     23  C   UNL     1       2.287   9.756  -7.769  0.00  0.00    +0.002 A 
ATOM     24  C   UNL     1       3.603   9.393  -7.545  0.00  0.00    +0.021 A 
ATOM     25  C   UNL     1       3.951   8.058  -7.436  0.00  0.00    +0.060 A 
ATOM     26  C   UNL     1       2.982   7.078  -7.546  0.00  0.00    +0.070 A 
ATOM     27 CL   UNL     1       3.418   5.404  -7.403  0.00  0.00    -0.081 Cl
ATOM     28 CL   UNL     1       5.605   7.613  -7.155  0.00  0.00    -0.082 Cl
ENDBRANCH  19  21
ENDBRANCH  10  16
BRANCH  14  30
ATOM     29  C   UNL     1      -0.729   1.579   1.267  0.00  0.00    -0.017 C 
ATOM     30  C   UNL     1      -0.013   1.086   0.008  0.00  0.00    -0.082 C 
ENDBRANCH  14  30
BRANCH   8  31
ATOM     31  O   UNL     1      -2.527   1.306  -6.210  0.00  0.00    -0.492 OA
ATOM     32  H   UNL     1      -2.794   1.000  -7.087  0.00  0.00    +0.294 HD
ENDBRANCH   8  31
TORSDOF 4
