REMARK  Name = ZINC36895152
REMARK  8 active torsions:
REMARK  status: ('A' for Active; 'I' for Inactive)
REMARK    1  A    between atoms: C_1  and  C_2
REMARK    2  A    between atoms: C_7  and  C_9
REMARK    3  A    between atoms: C_7  and  C_10
REMARK    4  A    between atoms: N_13  and  C_17
REMARK    5  A    between atoms: C_17  and  C_18
REMARK    6  A    between atoms: N_20  and  N_21
REMARK    7  A    between atoms: C_22  and  C_24
REMARK    8  A    between atoms: C_24  and  C_25
REMARK                            x       y       z     vdW  Elec       q    Type
REMARK                         _______ _______ _______ _____ _____    ______ ____
ROOT
ATOM      1  C   UNL     1      -4.972  -3.399  -2.310  0.00  0.00    +0.247 C 
ATOM      2  O   UNL     1      -4.651  -2.256  -2.558  0.00  0.00    -0.273 OA
ATOM      3  N   UNL     1      -6.127  -3.895  -2.795  0.00  0.00    -0.233 N 
ATOM      4  H   UNL     1      -6.383  -4.809  -2.596  0.00  0.00    +0.173 HD
ENDROOT
BRANCH   3   5
ATOM      5  N   UNL     1      -6.957  -3.091  -3.587  0.00  0.00    -0.234 N 
ATOM      6  C   UNL     1      -8.113  -3.587  -4.072  0.00  0.00    +0.230 C 
ATOM      7  O   UNL     1      -8.433  -4.731  -3.824  0.00  0.00    -0.274 OA
ATOM      8  H   UNL     1      -6.701  -2.177  -3.785  0.00  0.00    +0.173 HD
BRANCH   6   9
ATOM      9  C   UNL     1      -9.006  -2.722  -4.924  0.00  0.00    +0.104 C 
BRANCH   9  10
ATOM     10  C   UNL     1     -10.242  -3.521  -5.341  0.00  0.00    -0.020 C 
ATOM     11  C   UNL     1     -11.005  -3.969  -4.093  0.00  0.00    +0.011 C 
ATOM     12  C   UNL     1     -12.241  -4.768  -4.511  0.00  0.00    -0.010 C 
ATOM     13  C   UNL     1     -13.148  -3.890  -5.375  0.00  0.00    +0.007 C 
ATOM     14  C   UNL     1     -12.385  -3.442  -6.623  0.00  0.00    -0.010 C 
ATOM     15  C   UNL     1     -11.149  -2.643  -6.206  0.00  0.00    +0.011 C 
ATOM     16  C   UNL     1     -11.951  -4.671  -7.424  0.00  0.00    +0.007 C 
ATOM     17  C   UNL     1     -11.044  -5.549  -6.560  0.00  0.00    -0.010 C 
ATOM     18  C   UNL     1     -11.808  -5.997  -5.312  0.00  0.00    +0.007 C 
ATOM     19  C   UNL     1      -9.808  -4.750  -6.142  0.00  0.00    +0.011 C 
ENDBRANCH   9  10
ENDBRANCH   6   9
ENDBRANCH   3   5
BRANCH   1  20
ATOM     20  C   UNL     1      -4.079  -4.264  -1.458  0.00  0.00    +0.215 C 
BRANCH  20  32
ATOM     21  C   UNL     1      -0.159   1.471  -0.048  0.00  0.00    +0.007 C 
ATOM     22  C   UNL     1      -0.085  -0.057  -0.027  0.00  0.00    -0.011 C 
ATOM     23  C   UNL     1      -1.501  -0.636   0.015  0.00  0.00    +0.038 C 
ATOM     24  C   UNL     1      -1.428  -2.159   0.057  0.00  0.00    +0.113 C 
ATOM     25  C   UNL     1      -0.642  -2.627   1.276  0.00  0.00    +0.041 C 
ATOM     26  C   UNL     1       0.772  -2.041   1.230  0.00  0.00    -0.032 C 
ATOM     27  C   UNL     1       0.688  -0.513   1.212  0.00  0.00    +0.009 C 
ATOM     28  C   UNL     1       1.553  -2.495   2.465  0.00  0.00    +0.011 C 
ATOM     29  C   UNL     1       1.485  -2.527  -0.033  0.00  0.00    +0.011 C 
ATOM     30  C   UNL     1      -2.817  -2.754   0.064  0.00  0.00    +0.247 C 
ATOM     31  O   UNL     1      -3.679  -2.595   0.901  0.00  0.00    -0.273 OA
ATOM     32  N   UNL     1      -2.895  -3.499  -1.058  0.00  0.00    -0.215 N 
ATOM     33  C   UNL     1      -1.756  -3.453  -1.761  0.00  0.00    +0.310 C 
ATOM     34  O   UNL     1      -1.585  -4.042  -2.810  0.00  0.00    -0.252 OA
ATOM     35  N   UNL     1      -0.823  -2.679  -1.176  0.00  0.00    -0.285 N 
ATOM     36  H   UNL     1       0.073  -2.500  -1.504  0.00  0.00    +0.151 HD
ENDBRANCH  20  32
ENDBRANCH   1  20
TORSDOF 5
