REMARK  Name = ZINC02420278
REMARK  6 active torsions:
REMARK  status: ('A' for Active; 'I' for Inactive)
REMARK    1  A    between atoms: C_1  and  C_2
REMARK    2  A    between atoms: C_2  and  C_4
REMARK    3  A    between atoms: C_2  and  O_25
REMARK    4  A    between atoms: N_6  and  C_7
REMARK    5  A    between atoms: C_12  and  C_18
REMARK    6  A    between atoms: O_25  and  C_26
REMARK                            x       y       z     vdW  Elec       q    Type
REMARK                         _______ _______ _______ _____ _____    ______ ____
ROOT
ATOM      1  C   UNL     1       2.526  -1.495   2.450  0.00  0.00    +0.273 A 
ATOM      2  N   UNL     1       1.889  -1.665   3.622  0.00  0.00    -0.176 NA
ATOM      3  C   UNL     1       2.728  -2.110   4.514  0.00  0.00    +0.222 A 
ATOM      4  N   UNL     1       3.944  -2.236   3.924  0.00  0.00    -0.223 N 
ATOM      5  N   UNL     1       3.791  -1.843   2.597  0.00  0.00    -0.127 NA
ATOM      6  C   UNL     1       5.131  -2.709   4.634  0.00  0.00    +0.149 C 
ATOM      7  C   UNL     1       5.005  -2.326   6.111  0.00  0.00    +0.128 C 
ATOM      8  C   UNL     1       3.621  -2.602   6.628  0.00  0.00    +0.222 C 
ATOM      9  O   UNL     1       3.482  -2.986   7.770  0.00  0.00    -0.275 OA
ATOM     10  N   UNL     1       2.528  -2.432   5.852  0.00  0.00    -0.255 N 
ATOM     11  H   UNL     1       1.634  -2.531   6.215  0.00  0.00    +0.158 HD
ENDROOT
BRANCH   6  12
ATOM     12  C   UNL     1       5.234  -4.207   4.504  0.00  0.00    -0.022 A 
ATOM     13  C   UNL     1       4.216  -5.013   4.977  0.00  0.00    +0.007 A 
ATOM     14  C   UNL     1       4.309  -6.387   4.858  0.00  0.00    +0.020 A 
ATOM     15  C   UNL     1       5.423  -6.955   4.266  0.00  0.00    +0.041 A 
ATOM     16  C   UNL     1       6.442  -6.148   3.793  0.00  0.00    +0.020 A 
ATOM     17  C   UNL     1       6.345  -4.774   3.908  0.00  0.00    +0.007 A 
ATOM     18 CL   UNL     1       5.542  -8.681   4.117  0.00  0.00    -0.084 Cl
ENDBRANCH   6  12
BRANCH   1  21
ATOM     19  C   UNL     1       0.693  -0.727   1.265  0.00  0.00    +0.290 C 
ATOM     20  O   UNL     1      -0.053  -0.849   2.382  0.00  0.00    -0.267 OA
ATOM     21  N   UNL     1       1.954  -1.040   1.288  0.00  0.00    -0.171 NA
BRANCH  19  23
ATOM     22  C   UNL     1       0.290   1.280  -0.134  0.00  0.00    +0.062 C 
ATOM     23  C   UNL     1       0.064  -0.228  -0.010  0.00  0.00    +0.260 C 
BRANCH  23  24
ATOM     24  O   UNL     1      -1.339  -0.499   0.012  0.00  0.00    -0.480 OA
BRANCH  24  25
ATOM     25  C   UNL     1      -1.965  -0.607  -1.189  0.00  0.00    +0.122 A 
ATOM     26  C   UNL     1      -1.270  -0.349  -2.361  0.00  0.00    +0.045 A 
ATOM     27  C   UNL     1      -1.909  -0.460  -3.581  0.00  0.00    +0.004 A 
ATOM     28  C   UNL     1      -3.241  -0.827  -3.634  0.00  0.00    +0.000 A 
ATOM     29  C   UNL     1      -3.937  -1.084  -2.466  0.00  0.00    +0.004 A 
ATOM     30  C   UNL     1      -3.300  -0.981  -1.245  0.00  0.00    +0.045 A 
ENDBRANCH  24  25
ENDBRANCH  23  24
ENDBRANCH  19  23
ENDBRANCH   1  21
TORSDOF 5
