REMARK  Name = ZINC12699381
REMARK  4 active torsions:
REMARK  status: ('A' for Active; 'I' for Inactive)
REMARK    1  A    between atoms: C_1  and  N_2
REMARK    2  A    between atoms: C_12  and  C_14
REMARK    3  A    between atoms: C_17  and  O_20
REMARK    4  A    between atoms: O_20  and  C_21
REMARK                            x       y       z     vdW  Elec       q    Type
REMARK                         _______ _______ _______ _____ _____    ______ ____
ROOT
ATOM      1  C   UNL     1      -0.012   5.291   0.032  0.00  0.00    +0.135 C 
ATOM      2  N   UNL     1      -0.013   3.826   0.023  0.00  0.00    -0.308 N 
ATOM      3  C   UNL     1       1.165   3.153   0.008  0.00  0.00    +0.075 C 
ATOM      4  C   UNL     1       1.187   1.798   0.000  0.00  0.00    +0.015 C 
ATOM      5  C   UNL     1      -0.013   1.076   0.008  0.00  0.00    +0.003 C 
ATOM      6  C   UNL     1      -1.203   1.749   0.017  0.00  0.00    +0.026 C 
ATOM      7  C   UNL     1      -1.199   3.148   0.030  0.00  0.00    +0.066 C 
ATOM      8  C   UNL     1      -2.422   3.861   0.046  0.00  0.00    +0.173 C 
ATOM      9  C   UNL     1      -3.714   3.309   0.049  0.00  0.00    +0.366 C 
ATOM     10  O   UNL     1      -4.003   2.122   0.039  0.00  0.00    -0.243 OA
ATOM     11  O   UNL     1      -4.572   4.350   0.069  0.00  0.00    -0.402 OA
ATOM     12  C   UNL     1      -3.852   5.491   0.069  0.00  0.00    +0.232 C 
ATOM     13  N   UNL     1      -2.575   5.212   0.055  0.00  0.00    -0.203 NA
ENDROOT
BRANCH  12  14
ATOM     14  C   UNL     1      -4.422   6.853   0.081  0.00  0.00    +0.037 A 
ATOM     15  C   UNL     1      -3.578   7.966   0.085  0.00  0.00    +0.017 A 
ATOM     16  C   UNL     1      -4.114   9.235   0.092  0.00  0.00    +0.046 A 
ATOM     17  C   UNL     1      -5.492   9.409   0.106  0.00  0.00    +0.127 A 
ATOM     18  C   UNL     1      -6.335   8.306   0.108  0.00  0.00    +0.046 A 
ATOM     19  C   UNL     1      -5.808   7.032   0.096  0.00  0.00    +0.017 A 
BRANCH  17  20
ATOM     20  O   UNL     1      -6.016  10.662   0.118  0.00  0.00    -0.434 OA
BRANCH  20  21
ATOM     21  C   UNL     1      -5.092  11.752   0.116  0.00  0.00    +0.541 C 
ATOM     22  F   UNL     1      -4.277  11.675   1.250  0.00  0.00    -0.166 F 
ATOM     23  F   UNL     1      -4.298  11.688  -1.034  0.00  0.00    -0.166 F 
ENDBRANCH  20  21
ENDBRANCH  17  20
ENDBRANCH  12  14
TORSDOF 3
