REMARK  Name = ZINC60198332
REMARK  8 active torsions:
REMARK  status: ('A' for Active; 'I' for Inactive)
REMARK    1  A    between atoms: C_1  and  C_2
REMARK    2  A    between atoms: C_7  and  N_8
REMARK    3  A    between atoms: C_9  and  C_11
REMARK    4  A    between atoms: C_11  and  N_12
REMARK    5  A    between atoms: N_12  and  C_13
REMARK    6  A    between atoms: N_12  and  C_14
REMARK    7  A    between atoms: C_14  and  C_15
REMARK    8  A    between atoms: N_18  and  C_20
REMARK                            x       y       z     vdW  Elec       q    Type
REMARK                         _______ _______ _______ _____ _____    ______ ____
ROOT
ATOM      1  N   UNL     1      -0.241  -0.906   5.992  0.00  0.00    +0.387 N 
ATOM      2  C   UNL     1      -1.481  -1.685   5.884  0.00  0.00    -0.095 C 
ATOM      3  H   UNL     1       0.552  -1.529   5.951  0.00  0.00    -0.081 HD
ENDROOT
BRANCH   1   4
ATOM      4  C   UNL     1      -0.167   0.054   4.882  0.00  0.00    +0.019 C 
BRANCH   4   6
ATOM      5  N   UNL     1       0.026  -0.014   2.417  0.00  0.00    -0.287 N 
ATOM      6  C   UNL     1      -0.056  -0.694   3.578  0.00  0.00    +0.201 C 
ATOM      7  O   UNL     1      -0.040  -1.906   3.574  0.00  0.00    -0.278 OA
ATOM      8  H   UNL     1       0.079   0.955   2.425  0.00  0.00    +0.155 HD
BRANCH   5  15
ATOM      9  C   UNL     1      -1.265   1.183   0.182  0.00  0.00    +0.046 C 
ATOM     10  C   UNL     1      -0.584  -0.158   0.085  0.00  0.00    -0.028 A 
ATOM     11  C   UNL     1      -0.570  -0.840  -1.116  0.00  0.00    +0.020 A 
ATOM     12  C   UNL     1       0.055  -2.071  -1.206  0.00  0.00    +0.018 A 
ATOM     13  C   UNL     1       0.666  -2.623  -0.094  0.00  0.00    +0.017 A 
ATOM     14  C   UNL     1       0.655  -1.945   1.109  0.00  0.00    +0.024 A 
ATOM     15  C   UNL     1       0.034  -0.706   1.201  0.00  0.00    +0.036 A 
ATOM     16 BR   UNL     1       0.072  -3.002  -2.852  0.00  0.00    -0.050 Br
ENDBRANCH   5  15
ENDBRANCH   4   6
ENDBRANCH   1   4
BRANCH   1  17
ATOM     17  C   UNL     1      -0.228  -0.180   7.269  0.00  0.00    -0.020 C 
BRANCH  17  18
ATOM     18  C   UNL     1      -0.180  -1.167   8.407  0.00  0.00    +0.050 A 
ATOM     19  C   UNL     1      -1.290  -1.734   9.050  0.00  0.00    -0.005 A 
ATOM     20  C   UNL     1      -0.831  -2.566  10.012  0.00  0.00    +0.048 A 
ATOM     21  N   UNL     1       0.523  -2.526   9.980  0.00  0.00    -0.236 N 
ATOM     22  N   UNL     1       0.904  -1.645   8.961  0.00  0.00    -0.173 NA
ATOM     23  C   UNL     1      -1.988  -3.210  10.743  0.00  0.00    +0.056 C 
ATOM     24  C   UNL     1      -3.216  -2.342  10.393  0.00  0.00    +0.011 C 
ATOM     25  C   UNL     1      -2.803  -1.735   9.034  0.00  0.00    +0.039 C 
BRANCH  21  26
ATOM     26  C   UNL     1       1.389  -3.244  10.816  0.00  0.00    +0.066 A 
ATOM     27  C   UNL     1       1.037  -3.488  12.137  0.00  0.00    +0.028 A 
ATOM     28  C   UNL     1       1.892  -4.196  12.959  0.00  0.00    +0.002 A 
ATOM     29  C   UNL     1       3.098  -4.662  12.467  0.00  0.00    +0.000 A 
ATOM     30  C   UNL     1       3.451  -4.421  11.152  0.00  0.00    +0.002 A 
ATOM     31  C   UNL     1       2.597  -3.719  10.324  0.00  0.00    +0.028 A 
ENDBRANCH  21  26
ENDBRANCH  17  18
ENDBRANCH   1  17
TORSDOF 6
