REMARK  Name = ZINC54702754
REMARK  4 active torsions:
REMARK  status: ('A' for Active; 'I' for Inactive)
REMARK    1  A    between atoms: C_1  and  O_2
REMARK    2  A    between atoms: O_2  and  C_3
REMARK    3  A    between atoms: C_5  and  C_10
REMARK    4  A    between atoms: C_8  and  O_9
REMARK                            x       y       z     vdW  Elec       q    Type
REMARK                         _______ _______ _______ _____ _____    ______ ____
ROOT
ATOM      1  C   UNL     1      -5.015   0.415   0.051  0.00  0.00    +0.199 C 
ATOM      2  N   UNL     1      -4.829   1.637  -0.740  0.00  0.00    -0.321 N 
ATOM      3  C   UNL     1      -4.643   1.524  -2.113  0.00  0.00    +0.041 A 
ATOM      4  C   UNL     1      -3.908   2.454  -2.829  0.00  0.00    +0.024 A 
ATOM      5  C   UNL     1      -3.764   2.308  -4.195  0.00  0.00    +0.002 A 
ATOM      6  C   UNL     1      -4.350   1.238  -4.854  0.00  0.00    +0.001 A 
ATOM      7  C   UNL     1      -5.080   0.299  -4.156  0.00  0.00    +0.015 A 
ATOM      8  C   UNL     1      -5.226   0.430  -2.776  0.00  0.00    +0.058 A 
ATOM      9  C   UNL     1      -5.972  -0.561  -1.982  0.00  0.00    +0.255 C 
ATOM     10  O   UNL     1      -6.622  -1.427  -2.535  0.00  0.00    -0.269 OA
ATOM     11  N   UNL     1      -5.926  -0.499  -0.639  0.00  0.00    -0.229 N 
ATOM     12  C   UNL     1      -6.763  -1.325   0.108  0.00  0.00    +0.130 A 
ATOM     13  C   UNL     1      -6.586  -1.421   1.484  0.00  0.00    +0.045 A 
ATOM     14  C   UNL     1      -7.424  -2.244   2.215  0.00  0.00    +0.025 A 
ATOM     15  C   UNL     1      -8.415  -2.947   1.541  0.00  0.00    +0.059 A 
ATOM     16  C   UNL     1      -8.533  -2.804   0.171  0.00  0.00    +0.132 A 
ATOM     17  N   UNL     1      -7.722  -2.007  -0.498  0.00  0.00    -0.238 NA
ATOM     18 CL   UNL     1      -9.493  -3.995   2.409  0.00  0.00    -0.082 Cl
ATOM     19  H   UNL     1      -4.835   2.508  -0.312  0.00  0.00    +0.148 HD
ENDROOT
BRANCH   1  22
ATOM     20  C   UNL     1      -1.299  -0.126   0.466  0.00  0.00    +0.162 A 
ATOM     21  C   UNL     1      -2.525   0.494   0.286  0.00  0.00    +0.056 A 
ATOM     22  C   UNL     1      -3.683  -0.261   0.246  0.00  0.00    -0.005 A 
ATOM     23  C   UNL     1      -3.620  -1.635   0.385  0.00  0.00    +0.011 A 
ATOM     24  C   UNL     1      -2.400  -2.260   0.565  0.00  0.00    +0.049 A 
ATOM     25  C   UNL     1      -1.236  -1.510   0.600  0.00  0.00    +0.158 A 
BRANCH  20  27
ATOM     26  C   UNL     1      -0.301   2.030   0.361  0.00  0.00    +0.277 C 
ATOM     27  O   UNL     1      -0.160   0.615   0.505  0.00  0.00    -0.491 OA
ENDBRANCH  20  27
BRANCH  25  28
ATOM     28  O   UNL     1      -0.035  -2.124   0.770  0.00  0.00    -0.503 OA
ATOM     29  H   UNL     1       0.230  -2.220   1.695  0.00  0.00    +0.292 HD
ENDBRANCH  25  28
ENDBRANCH   1  22
TORSDOF 3
