REMARK  Name = ZINC29391973
REMARK  13 active torsions:
REMARK  status: ('A' for Active; 'I' for Inactive)
REMARK    1  A    between atoms: C_1  and  C_2
REMARK    2  A    between atoms: C_2  and  O_3
REMARK    3  A    between atoms: O_3  and  C_4
REMARK    4  A    between atoms: C_4  and  C_6
REMARK    5  A    between atoms: C_6  and  S_7
REMARK    6  A    between atoms: S_7  and  C_8
REMARK    7  A    between atoms: C_11  and  N_13
REMARK    8  A    between atoms: C_14  and  C_15
REMARK    9  A    between atoms: C_14  and  O_31
REMARK   10  A    between atoms: C_18  and  S_24
REMARK   11  A    between atoms: C_19  and  N_21
REMARK   12  A    between atoms: S_24  and  C_25
REMARK   13  A    between atoms: C_27  and  C_30
REMARK                            x       y       z     vdW  Elec       q    Type
REMARK                         _______ _______ _______ _____ _____    ______ ____
ROOT
ATOM      1  N   UNL     1       4.458  -5.469  -7.302  0.00  0.00    -0.185 NA
ATOM      2  C   UNL     1       5.068  -5.093  -8.429  0.00  0.00    +0.222 C 
ENDROOT
BRANCH   2   3
ATOM      3  C   UNL     1       5.532  -6.071  -9.343  0.00  0.00    +0.039 A 
ATOM      4  C   UNL     1       5.347  -7.440  -9.068  0.00  0.00    +0.014 A 
ATOM      5  C   UNL     1       5.794  -8.376  -9.948  0.00  0.00    +0.018 A 
ATOM      6  C   UNL     1       6.438  -7.979 -11.127  0.00  0.00    +0.045 A 
ATOM      7  C   UNL     1       6.625  -6.619 -11.405  0.00  0.00    +0.141 A 
ATOM      8  C   UNL     1       6.175  -5.677 -10.533  0.00  0.00    +0.047 A 
BRANCH   7   9
ATOM      9  N   UNL     1       7.306  -6.206 -12.653  0.00  0.00    +0.058 N 
ATOM     10  O   UNL     1       7.481  -4.928 -12.915  0.00  0.00    -0.126 OA
ATOM     11  O   UNL     1       7.736  -7.117 -13.501  0.00  0.00    -0.126 OA
ENDBRANCH   7   9
BRANCH   6  12
ATOM     12  S   UNL     1       7.016  -9.195 -12.264  0.00  0.00    -0.061 S 
BRANCH  12  13
ATOM     13  C   UNL     1       5.812  -9.184 -13.550  0.00  0.00    +0.139 A 
ATOM     14  N   UNL     1       5.805  -9.840 -14.702  0.00  0.00    -0.238 NA
ATOM     15  C   UNL     1       4.814  -9.712 -15.553  0.00  0.00    +0.047 A 
ATOM     16  C   UNL     1       3.768  -8.892 -15.257  0.00  0.00    +0.070 A 
ATOM     17  S   UNL     1       4.266  -8.290 -13.649  0.00  0.00    -0.069 S 
ATOM     18  C   UNL     1       4.834 -10.471 -16.856  0.00  0.00    +0.066 C 
ENDBRANCH  12  13
ENDBRANCH   6  12
ENDBRANCH   2   3
BRANCH   1  22
ATOM     19  C   UNL     1       3.024  -3.023  -4.502  0.00  0.00    +0.161 A 
ATOM     20  N   UNL     1       3.621  -2.466  -5.600  0.00  0.00    -0.133 NA
ATOM     21  N   UNL     1       4.094  -3.189  -6.519  0.00  0.00    -0.120 NA
ATOM     22  C   UNL     1       4.025  -4.556  -6.448  0.00  0.00    +0.219 A 
ATOM     23  S   UNL     1       3.193  -4.764  -4.878  0.00  0.00    -0.020 S 
BRANCH  19  24
ATOM     24  S   UNL     1       2.338  -2.286  -3.182  0.00  0.00    -0.086 S 
BRANCH  24  25
ATOM     25  C   UNL     1       2.543  -0.514  -3.512  0.00  0.00    +0.196 C 
BRANCH  25  26
ATOM     26  C   UNL     1       1.955   0.280  -2.375  0.00  0.00    +0.317 C 
ATOM     27  O   UNL     1       1.449  -0.290  -1.438  0.00  0.00    -0.250 OA
BRANCH  26  28
ATOM     28  O   UNL     1       1.993   1.622  -2.403  0.00  0.00    -0.464 OA
BRANCH  28  30
ATOM     29  C   UNL     1       1.553   3.820  -1.501  0.00  0.00    +0.048 C 
ATOM     30  C   UNL     1       1.416   2.310  -1.292  0.00  0.00    +0.229 C 
ENDBRANCH  28  30
ENDBRANCH  26  28
ENDBRANCH  25  26
ENDBRANCH  24  25
ENDBRANCH  19  24
ENDBRANCH   1  22
BRANCH   2  31
ATOM     31  O   UNL     1       5.241  -3.784  -8.697  0.00  0.00    -0.492 OA
ATOM     32  H   UNL     1       5.691  -3.610  -9.535  0.00  0.00    +0.294 HD
ENDBRANCH   2  31
TORSDOF 11
