REMARK  Name = ZINC02246064
REMARK  8 active torsions:
REMARK  status: ('A' for Active; 'I' for Inactive)
REMARK    1  A    between atoms: C_1  and  C_2
REMARK    2  A    between atoms: N_8  and  C_9
REMARK    3  A    between atoms: C_9  and  C_10
REMARK    4  A    between atoms: C_16  and  C_24
REMARK    5  A    between atoms: C_18  and  C_22
REMARK    6  A    between atoms: C_19  and  N_21
REMARK    7  A    between atoms: C_28  and  O_30
REMARK    8  A    between atoms: O_30  and  C_31
REMARK                            x       y       z     vdW  Elec       q    Type
REMARK                         _______ _______ _______ _____ _____    ______ ____
ROOT
ATOM      1  C   UNL     1       2.592   5.414  -1.077  0.00  0.00    +0.064 C 
ATOM      2  C   UNL     1       2.446   4.021  -0.521  0.00  0.00    +0.023 A 
ATOM      3  C   UNL     1       1.214   3.492  -0.366  0.00  0.00    +0.068 A 
ATOM      4  C   UNL     1       1.072   2.188   0.153  0.00  0.00    +0.141 A 
ATOM      5  C   UNL     1       2.203   1.479   0.495  0.00  0.00    +0.072 A 
ATOM      6  C   UNL     1       3.461   2.069   0.317  0.00  0.00    +0.259 A 
ATOM      7  O   UNL     1       4.472   1.452   0.615  0.00  0.00    -0.267 OA
ATOM      8  N   UNL     1       3.557   3.316  -0.181  0.00  0.00    -0.306 N 
ATOM      9  C   UNL     1       2.098   0.086   1.054  0.00  0.00    +0.103 C 
ATOM     10  C   UNL     1       0.730  -0.477   0.785  0.00  0.00    +0.098 C 
ATOM     11  C   UNL     1      -0.303   0.325   0.434  0.00  0.00    +0.199 C 
ATOM     12  O   UNL     1      -0.159   1.656   0.308  0.00  0.00    -0.441 OA
ENDROOT
BRANCH   9  13
ATOM     13  C   UNL     1       2.338   0.128   2.541  0.00  0.00    -0.027 A 
ATOM     14  C   UNL     1       3.390  -0.582   3.089  0.00  0.00    +0.054 A 
ATOM     15  C   UNL     1       3.618  -0.543   4.456  0.00  0.00    +0.170 A 
ATOM     16  C   UNL     1       2.780   0.204   5.277  0.00  0.00    +0.208 A 
ATOM     17  C   UNL     1       1.721   0.912   4.722  0.00  0.00    +0.166 A 
ATOM     18  C   UNL     1       1.503   0.871   3.353  0.00  0.00    +0.054 A 
ATOM     19  O   UNL     1       3.207   0.077   6.569  0.00  0.00    -0.449 OA
ATOM     20  C   UNL     1       4.554  -0.423   6.480  0.00  0.00    +0.467 C 
ATOM     21  O   UNL     1       4.571  -1.139   5.231  0.00  0.00    -0.452 OA
BRANCH  17  22
ATOM     22  O   UNL     1       0.899   1.644   5.521  0.00  0.00    -0.491 OA
ATOM     23  C   UNL     1      -0.169   2.347   4.882  0.00  0.00    +0.277 C 
ENDBRANCH  17  22
ENDBRANCH   9  13
BRANCH  11  24
ATOM     24  N   UNL     1      -1.533  -0.237   0.200  0.00  0.00    -0.328 N 
ATOM     25  H   UNL     1      -2.283   0.324  -0.053  0.00  0.00    +0.145 HD
ATOM     26  H   UNL     1      -1.653  -1.196   0.287  0.00  0.00    +0.145 HD
ENDBRANCH  11  24
BRANCH  10  27
ATOM     27  C   UNL     1       0.515  -1.888   0.903  0.00  0.00    +0.101 C 
ATOM     28  N   UNL     1       0.345  -3.007   0.996  0.00  0.00    -0.191 NA
ENDBRANCH  10  27
BRANCH   8  29
ATOM     29  C   UNL     1       4.878   3.921  -0.362  0.00  0.00    +0.180 C 
BRANCH  29  30
ATOM     30  C   UNL     1       5.300   4.597   0.917  0.00  0.00    +0.061 A 
ATOM     31  C   UNL     1       6.096   3.916   1.819  0.00  0.00    +0.025 A 
ATOM     32  C   UNL     1       6.479   4.547   2.993  0.00  0.00    +0.003 A 
ATOM     33  C   UNL     1       6.045   5.845   3.216  0.00  0.00    +0.020 A 
ATOM     34  C   UNL     1       5.250   6.462   2.269  0.00  0.00    +0.111 A 
ATOM     35  N   UNL     1       4.910   5.832   1.161  0.00  0.00    -0.258 NA
ENDBRANCH  29  30
ENDBRANCH   8  29
TORSDOF 6
