REMARK  Name = ZINC09282358
REMARK  9 active torsions:
REMARK  status: ('A' for Active; 'I' for Inactive)
REMARK    1  A    between atoms: C_1  and  O_2
REMARK    2  A    between atoms: O_2  and  C_3
REMARK    3  A    between atoms: C_7  and  C_9
REMARK    4  A    between atoms: C_16  and  N_32
REMARK    5  A    between atoms: C_17  and  C_30
REMARK    6  A    between atoms: C_18  and  C_20
REMARK    7  A    between atoms: C_22  and  O_28
REMARK    8  A    between atoms: C_23  and  O_27
REMARK    9  A    between atoms: O_28  and  C_29
REMARK                            x       y       z     vdW  Elec       q    Type
REMARK                         _______ _______ _______ _____ _____    ______ ____
ROOT
ATOM      1  C   UNL     1      -2.582  -4.264   0.007  0.00  0.00    +0.100 A 
ATOM      2  C   UNL     1      -3.492  -5.000   0.771  0.00  0.00    +0.054 A 
ATOM      3  C   UNL     1      -3.262  -6.326   0.542  0.00  0.00    +0.223 A 
ATOM      4  N   UNL     1      -2.243  -6.419  -0.338  0.00  0.00    -0.246 N 
ATOM      5  H   UNL     1      -1.863  -7.241  -0.685  0.00  0.00    +0.192 HD
ATOM      6  N   UNL     1      -1.833  -5.117  -0.665  0.00  0.00    -0.171 NA
ATOM      7  O   UNL     1      -3.981  -7.308   1.140  0.00  0.00    -0.423 OA
ATOM      8  C   UNL     1      -4.760  -6.964   2.186  0.00  0.00    +0.200 C 
ATOM      9  C   UNL     1      -5.069  -5.688   2.505  0.00  0.00    +0.098 C 
ATOM     10  C   UNL     1      -4.568  -4.511   1.706  0.00  0.00    +0.102 C 
ENDROOT
BRANCH  10  11
ATOM     11  C   UNL     1      -5.702  -3.917   0.911  0.00  0.00    -0.030 A 
ATOM     12  C   UNL     1      -6.016  -2.578   1.053  0.00  0.00    +0.054 A 
ATOM     13  C   UNL     1      -7.058  -2.030   0.322  0.00  0.00    +0.163 A 
ATOM     14  C   UNL     1      -7.786  -2.829  -0.554  0.00  0.00    +0.173 A 
ATOM     15  C   UNL     1      -7.465  -4.170  -0.692  0.00  0.00    +0.063 A 
ATOM     16  C   UNL     1      -6.420  -4.710   0.037  0.00  0.00    +0.023 A 
ATOM     17 BR   UNL     1      -8.451  -5.261  -1.882  0.00  0.00    -0.046 Br
BRANCH  14  18
ATOM     18  O   UNL     1      -8.810  -2.296  -1.273  0.00  0.00    -0.503 OA
ATOM     19  H   UNL     1      -8.544  -1.940  -2.132  0.00  0.00    +0.292 HD
ENDBRANCH  14  18
BRANCH  13  20
ATOM     20  O   UNL     1      -7.370  -0.713   0.462  0.00  0.00    -0.491 OA
ATOM     21  C   UNL     1      -6.511   0.072   1.291  0.00  0.00    +0.277 C 
ENDBRANCH  13  20
ENDBRANCH  10  11
BRANCH   1  26
ATOM     22  C   UNL     1      -2.479  -0.657   1.075  0.00  0.00    +0.121 A 
ATOM     23  C   UNL     1      -2.289  -0.021  -0.144  0.00  0.00    +0.045 A 
ATOM     24  C   UNL     1      -2.196  -0.761  -1.307  0.00  0.00    +0.004 A 
ATOM     25  C   UNL     1      -2.290  -2.138  -1.263  0.00  0.00    +0.010 A 
ATOM     26  C   UNL     1      -2.480  -2.784  -0.043  0.00  0.00    +0.006 A 
ATOM     27  C   UNL     1      -2.569  -2.038   1.129  0.00  0.00    +0.055 A 
BRANCH  22  29
ATOM     28  C   UNL     1      -2.469   1.495   2.086  0.00  0.00    +0.277 C 
ATOM     29  O   UNL     1      -2.570   0.075   2.216  0.00  0.00    -0.495 OA
ENDBRANCH  22  29
ENDBRANCH   1  26
BRANCH   8  30
ATOM     30  N   UNL     1      -5.268  -7.969   2.971  0.00  0.00    -0.328 N 
ATOM     31  H   UNL     1      -5.064  -8.895   2.767  0.00  0.00    +0.145 HD
ATOM     32  H   UNL     1      -5.831  -7.753   3.731  0.00  0.00    +0.145 HD
ENDBRANCH   8  30
BRANCH   9  33
ATOM     33  C   UNL     1      -5.903  -5.445   3.643  0.00  0.00    +0.101 C 
ATOM     34  N   UNL     1      -6.565  -5.252   4.546  0.00  0.00    -0.191 NA
ENDBRANCH   9  33
TORSDOF 7
