REMARK  Name = ZINC08849824
REMARK  8 active torsions:
REMARK  status: ('A' for Active; 'I' for Inactive)
REMARK    1  A    between atoms: C_3  and  C_6
REMARK    2  A    between atoms: C_6  and  C_8
REMARK    3  A    between atoms: C_6  and  N_58
REMARK    4  A    between atoms: C_8  and  N_9
REMARK    5  A    between atoms: N_12  and  C_13
REMARK    6  A    between atoms: C_13  and  C_14
REMARK    7  A    between atoms: C_17  and  N_20
REMARK    8  A    between atoms: C_21  and  C_23
REMARK                            x       y       z     vdW  Elec       q    Type
REMARK                         _______ _______ _______ _____ _____    ______ ____
ROOT
ATOM      1  N   UNL     1       2.636  -3.714   1.027  0.00  0.00    -0.301 N 
ATOM      2  C   UNL     1       2.786  -4.528   2.091  0.00  0.00    +0.300 C 
ATOM      3  O   UNL     1       2.466  -4.144   3.200  0.00  0.00    -0.253 OA
ATOM      4  N   UNL     1       3.291  -5.766   1.926  0.00  0.00    -0.295 N 
ATOM      5  H   UNL     1       2.891  -4.020   0.143  0.00  0.00    +0.150 HD
ATOM      6  H   UNL     1       3.547  -6.072   1.042  0.00  0.00    +0.151 HD
ENDROOT
BRANCH   1   7
ATOM      7  C   UNL     1       2.086  -2.368   1.206  0.00  0.00    +0.095 C 
BRANCH   7   8
ATOM      8  C   UNL     1       1.897  -1.709  -0.161  0.00  0.00    -0.013 C 
BRANCH   8  14
ATOM      9  C   UNL     1       4.227  -1.048  -0.142  0.00  0.00    -0.049 C 
ATOM     10  C   UNL     1       5.544  -1.148  -0.915  0.00  0.00    +0.141 C 
ATOM     11  O   UNL     1       5.367  -0.596  -2.223  0.00  0.00    -0.383 OA
ATOM     12  C   UNL     1       4.344  -1.239  -2.986  0.00  0.00    +0.141 C 
ATOM     13  C   UNL     1       3.014  -1.140  -2.234  0.00  0.00    -0.049 C 
ATOM     14  N   UNL     1       3.177  -1.758  -0.901  0.00  0.00    +0.389 N 
ATOM     15  H   UNL     1       3.456  -2.739  -1.020  0.00  0.00    -0.081 HD
ENDBRANCH   8  14
BRANCH   8  18
ATOM     16  C   UNL     1      -1.240  -3.008  -1.889  0.00  0.00    +0.008 A 
ATOM     17  C   UNL     1      -0.458  -2.161  -1.126  0.00  0.00    +0.009 A 
ATOM     18  C   UNL     1       0.850  -2.462  -0.942  0.00  0.00    -0.022 A 
ATOM     19  S   UNL     1       1.012  -3.983  -1.862  0.00  0.00    -0.103 S 
ATOM     20  C   UNL     1      -0.675  -4.114  -2.430  0.00  0.00    +0.045 A 
ENDBRANCH   8  18
ENDBRANCH   7   8
ENDBRANCH   1   7
BRANCH   4  21
ATOM     21  C   UNL     1       3.455  -6.651   3.083  0.00  0.00    +0.141 C 
BRANCH  21  22
ATOM     22  C   UNL     1       4.035  -7.966   2.631  0.00  0.00    -0.030 A 
ATOM     23  C   UNL     1       3.194  -8.999   2.259  0.00  0.00    +0.007 A 
ATOM     24  C   UNL     1       3.722 -10.204   1.840  0.00  0.00    +0.023 A 
ATOM     25  C   UNL     1       5.098 -10.382   1.803  0.00  0.00    +0.033 A 
ATOM     26  C   UNL     1       5.940  -9.345   2.182  0.00  0.00    +0.023 A 
ATOM     27  C   UNL     1       5.406  -8.140   2.596  0.00  0.00    +0.007 A 
BRANCH  25  28
ATOM     28  N   UNL     1       5.636 -11.604   1.383  0.00  0.00    -0.285 N 
ATOM     29  C   UNL     1       6.787 -12.054   1.921  0.00  0.00    +0.220 C 
ATOM     30  O   UNL     1       7.310 -11.445   2.831  0.00  0.00    -0.275 OA
ATOM     31  H   UNL     1       5.181 -12.127   0.705  0.00  0.00    +0.155 HD
BRANCH  29  32
ATOM     32  C   UNL     1       7.425 -13.312   1.392  0.00  0.00    +0.075 C 
ATOM     33  C   UNL     1       7.433 -14.539   2.307  0.00  0.00    +0.013 C 
ATOM     34  C   UNL     1       8.731 -13.771   2.045  0.00  0.00    +0.013 C 
ENDBRANCH  29  32
ENDBRANCH  25  28
ENDBRANCH  21  22
ENDBRANCH   4  21
TORSDOF 8
