REMARK  Name = ZINC19936516
REMARK  4 active torsions:
REMARK  status: ('A' for Active; 'I' for Inactive)
REMARK    1  A    between atoms: C_4  and  C_22
REMARK    2  A    between atoms: C_6  and  N_7
REMARK    3  A    between atoms: N_7  and  S_8
REMARK    4  A    between atoms: S_8  and  C_11
REMARK                            x       y       z     vdW  Elec       q    Type
REMARK                         _______ _______ _______ _____ _____    ______ ____
ROOT
ATOM      1  S   UNL     1      -2.644   0.086   0.029  0.00  0.00    +0.092 S 
ATOM      2  O   UNL     1      -2.718   0.759   1.278  0.00  0.00    -0.148 OA
ATOM      3  O   UNL     1      -2.743   0.772  -1.212  0.00  0.00    -0.148 OA
ENDROOT
BRANCH   1   4
ATOM      4  C   UNL     1      -3.920  -1.129   0.035  0.00  0.00    +0.114 A 
ATOM      5  C   UNL     1      -4.426  -1.602  -1.163  0.00  0.00    +0.031 A 
ATOM      6  C   UNL     1      -5.426  -2.555  -1.167  0.00  0.00    +0.031 A 
ATOM      7  C   UNL     1      -5.922  -3.039   0.034  0.00  0.00    +0.087 A 
ATOM      8  C   UNL     1      -5.412  -2.563   1.242  0.00  0.00    +0.159 A 
ATOM      9  C   UNL     1      -4.405  -1.610   1.235  0.00  0.00    +0.077 A 
ATOM     10  O   UNL     1      -6.074  -3.202   2.238  0.00  0.00    -0.408 OA
ATOM     11  C   UNL     1      -6.967  -4.048   1.702  0.00  0.00    +0.419 A 
ATOM     12  O   UNL     1      -7.718  -4.768   2.331  0.00  0.00    -0.223 OA
ATOM     13  N   UNL     1      -6.903  -3.976   0.357  0.00  0.00    -0.288 N 
ATOM     14  H   UNL     1      -7.441  -4.483  -0.271  0.00  0.00    +0.172 HD
ENDBRANCH   1   4
BRANCH   1  15
ATOM     15  N   UNL     1      -1.198  -0.721   0.010  0.00  0.00    -0.098 NA
BRANCH  15  21
ATOM     16  C   UNL     1      -0.017   1.384   0.010  0.00  0.00    +0.029 A 
ATOM     17  C   UNL     1       1.171   2.090   0.002  0.00  0.00    +0.041 A 
ATOM     18  C   UNL     1       2.379   1.414  -0.013  0.00  0.00    +0.135 A 
ATOM     19  C   UNL     1       2.400   0.030  -0.021  0.00  0.00    +0.092 A 
ATOM     20  C   UNL     1       1.215  -0.680  -0.014  0.00  0.00    +0.042 A 
ATOM     21  C   UNL     1       0.002  -0.004   0.002  0.00  0.00    +0.075 A 
ATOM     22  F   UNL     1       3.539   2.107  -0.020  0.00  0.00    -0.205 F 
BRANCH  19  23
ATOM     23  C   UNL     1       3.717  -0.703  -0.038  0.00  0.00    +0.420 C 
ATOM     24  F   UNL     1       3.483  -2.082  -0.044  0.00  0.00    -0.166 F 
ATOM     25  F   UNL     1       4.434  -0.347  -1.185  0.00  0.00    -0.166 F 
ATOM     26  F   UNL     1       4.456  -0.360   1.099  0.00  0.00    -0.166 F 
ENDBRANCH  19  23
ENDBRANCH  15  21
ENDBRANCH   1  15
TORSDOF 4
