REMARK  Name = ZINC23805831
REMARK  3 active torsions:
REMARK  status: ('A' for Active; 'I' for Inactive)
REMARK    1  A    between atoms: C_6  and  C_7
REMARK    2  A    between atoms: C_16  and  S_19
REMARK    3  A    between atoms: S_19  and  N_22
REMARK                            x       y       z     vdW  Elec       q    Type
REMARK                         _______ _______ _______ _____ _____    ______ ____
ROOT
ATOM      1  C   UNL     1      -2.265   1.531   0.720  0.00  0.00    +0.105 C 
ATOM      2  C   UNL     1      -0.801   1.617   1.234  0.00  0.00    +0.029 C 
ATOM      3  C   UNL     1      -0.013   1.086   0.008  0.00  0.00    +0.021 C 
ATOM      4  C   UNL     1      -0.820   1.627  -1.191  0.00  0.00    +0.107 C 
ATOM      5  N   UNL     1      -2.187   1.900  -0.709  0.00  0.00    -0.308 N 
ATOM      6  C   UNL     1      -3.127   1.201  -1.457  0.00  0.00    +0.122 A 
ATOM      7  C   UNL     1      -3.221   1.422  -2.827  0.00  0.00    +0.045 A 
ATOM      8  C   UNL     1      -4.162   0.720  -3.559  0.00  0.00    +0.033 A 
ATOM      9  C   UNL     1      -4.979  -0.184  -2.893  0.00  0.00    +0.123 A 
ATOM     10  C   UNL     1      -4.831  -0.353  -1.531  0.00  0.00    +0.141 A 
ATOM     11  N   UNL     1      -3.922   0.327  -0.859  0.00  0.00    -0.238 NA
ENDROOT
BRANCH   1  17
ATOM     12  C   UNL     1      -3.072   3.853   1.180  0.00  0.00    +0.009 A 
ATOM     13  C   UNL     1      -3.880   4.751   1.857  0.00  0.00    +0.050 A 
ATOM     14  C   UNL     1      -4.750   4.292   2.830  0.00  0.00    +0.162 A 
ATOM     15  C   UNL     1      -4.816   2.937   3.121  0.00  0.00    +0.162 A 
ATOM     16  C   UNL     1      -4.012   2.041   2.438  0.00  0.00    +0.055 A 
ATOM     17  C   UNL     1      -3.143   2.503   1.466  0.00  0.00    -0.023 A 
ATOM     18  O   UNL     1      -5.677   2.495   4.083  0.00  0.00    -0.488 OA
ATOM     19  C   UNL     1      -7.068   2.603   3.774  0.00  0.00    +0.232 C 
ATOM     20  C   UNL     1      -7.588   3.993   4.105  0.00  0.00    +0.082 C 
ATOM     21  C   UNL     1      -6.949   5.070   3.243  0.00  0.00    +0.232 C 
ATOM     22  O   UNL     1      -5.548   5.167   3.509  0.00  0.00    -0.488 OA
ENDBRANCH   1  17
BRANCH   9  23
ATOM     23  S   UNL     1      -6.193  -1.105  -3.777  0.00  0.00    +0.057 S 
ATOM     24  O   UNL     1      -7.189  -1.476  -2.834  0.00  0.00    -0.153 OA
ATOM     25  O   UNL     1      -6.494  -0.360  -4.949  0.00  0.00    -0.153 OA
BRANCH  23  26
ATOM     26  N   UNL     1      -5.472  -2.508  -4.280  0.00  0.00    -0.203 NA
ATOM     27  H   UNL     1      -6.200  -3.115  -4.840  0.00  0.00    +0.144 HD
ATOM     28  H   UNL     1      -5.120  -3.074  -3.405  0.00  0.00    +0.144 HD
ENDBRANCH  23  26
ENDBRANCH   9  23
TORSDOF 3
