REMARK  Name = ZINC13641867
REMARK  12 active torsions:
REMARK  status: ('A' for Active; 'I' for Inactive)
REMARK    1  A    between atoms: C_1  and  C_2
REMARK    2  A    between atoms: C_2  and  C_3
REMARK    3  A    between atoms: C_2  and  C_4
REMARK    4  A    between atoms: C_2  and  N_5
REMARK    5  A    between atoms: C_6  and  C_8
REMARK    6  A    between atoms: C_21  and  C_24
REMARK    7  A    between atoms: C_26  and  O_34
REMARK    8  A    between atoms: C_27  and  O_32
REMARK    9  A    between atoms: C_28  and  O_30
REMARK   10  A    between atoms: O_30  and  C_31
REMARK   11  A    between atoms: O_32  and  C_33
REMARK   12  A    between atoms: O_34  and  C_35
REMARK                            x       y       z     vdW  Elec       q    Type
REMARK                         _______ _______ _______ _____ _____    ______ ____
ROOT
ATOM      1  C   UNL     1       2.248   1.794  -0.071  0.00  0.00    +0.037 A 
ATOM      2  C   UNL     1       2.375   0.401  -0.086  0.00  0.00    +0.015 A 
ATOM      3  C   UNL     1       1.246  -0.383  -0.066  0.00  0.00    +0.024 A 
ATOM      4  C   UNL     1      -0.017   0.205  -0.030  0.00  0.00    +0.031 A 
ATOM      5  C   UNL     1      -0.154   1.587  -0.015  0.00  0.00    -0.019 A 
ATOM      6  C   UNL     1       0.981   2.377  -0.035  0.00  0.00    +0.019 A 
ATOM      7  C   UNL     1      -1.492   2.258   0.017  0.00  0.00    +0.049 C 
ATOM      8  C   UNL     1      -1.794   2.818   1.386  0.00  0.00    -0.023 C 
ATOM      9  C   UNL     1      -3.069   2.688   1.659  0.00  0.00    -0.030 C 
ATOM     10  C   UNL     1      -3.792   2.027   0.519  0.00  0.00    +0.033 C 
ATOM     11  C   UNL     1      -2.658   1.288  -0.250  0.00  0.00    +0.029 C 
ATOM     12  C   UNL     1      -2.410  -0.041   0.469  0.00  0.00    +0.105 C 
ATOM     13  N   UNL     1      -1.146  -0.611  -0.008  0.00  0.00    -0.336 N 
ATOM     14  H   UNL     1      -1.097  -1.535  -0.300  0.00  0.00    +0.147 HD
ENDROOT
BRANCH  12  15
ATOM     15  C   UNL     1      -2.327   0.197   1.955  0.00  0.00    -0.020 A 
ATOM     16  C   UNL     1      -1.108   0.482   2.540  0.00  0.00    +0.055 A 
ATOM     17  C   UNL     1      -1.029   0.708   3.906  0.00  0.00    +0.165 A 
ATOM     18  C   UNL     1      -2.175   0.636   4.688  0.00  0.00    +0.204 A 
ATOM     19  C   UNL     1      -3.398   0.343   4.096  0.00  0.00    +0.165 A 
ATOM     20  C   UNL     1      -3.470   0.124   2.729  0.00  0.00    +0.055 A 
BRANCH  19  21
ATOM     21  O   UNL     1      -4.523   0.271   4.857  0.00  0.00    -0.491 OA
ATOM     22  C   UNL     1      -5.745  -0.034   4.182  0.00  0.00    +0.277 C 
ENDBRANCH  19  21
BRANCH  18  23
ATOM     23  O   UNL     1      -2.101   0.852   6.030  0.00  0.00    -0.488 OA
ATOM     24  C   UNL     1      -1.859  -0.288   6.858  0.00  0.00    +0.277 C 
ENDBRANCH  18  23
BRANCH  17  25
ATOM     25  O   UNL     1       0.171   0.993   4.481  0.00  0.00    -0.491 OA
ATOM     26  C   UNL     1       1.307   1.051   3.616  0.00  0.00    +0.277 C 
ENDBRANCH  17  25
ENDBRANCH  12  15
BRANCH   1  28
ATOM     27  N   UNL     1       4.676   2.081  -0.127  0.00  0.00    -0.307 N 
ATOM     28  C   UNL     1       3.452   2.645  -0.093  0.00  0.00    +0.244 C 
ATOM     29  O   UNL     1       3.341   3.856  -0.080  0.00  0.00    -0.270 OA
ATOM     30  H   UNL     1       4.764   1.115  -0.138  0.00  0.00    +0.150 HD
BRANCH  27  32
ATOM     31  C   UNL     1       5.903   3.799   1.107  0.00  0.00    +0.031 C 
ATOM     32  C   UNL     1       5.872   2.926  -0.149  0.00  0.00    +0.026 C 
ATOM     33  C   UNL     1       7.120   2.042  -0.187  0.00  0.00    +0.031 C 
ATOM     34  C   UNL     1       5.842   3.820  -1.390  0.00  0.00    +0.031 C 
ENDBRANCH  27  32
ENDBRANCH   1  28
TORSDOF 6
