REMARK  Name = ZINC04753973
REMARK  5 active torsions:
REMARK  status: ('A' for Active; 'I' for Inactive)
REMARK    1  A    between atoms: C_1  and  C_2
REMARK    2  A    between atoms: C_2  and  C_32
REMARK    3  A    between atoms: C_6  and  C_19
REMARK    4  A    between atoms: C_8  and  N_10
REMARK    5  A    between atoms: C_11  and  C_13
REMARK                            x       y       z     vdW  Elec       q    Type
REMARK                         _______ _______ _______ _____ _____    ______ ____
ROOT
ATOM      1  C   UNL     1       3.623   2.807  -0.639  0.00  0.00    +0.013 C 
ATOM      2  C   UNL     1       4.267   1.716   0.218  0.00  0.00    -0.011 C 
ATOM      3  C   UNL     1       3.609   0.369  -0.092  0.00  0.00    +0.073 C 
ATOM      4  C   UNL     1       2.115   0.447   0.225  0.00  0.00    +0.171 C 
ATOM      5  C   UNL     1       1.916   0.785   1.704  0.00  0.00    +0.075 C 
ATOM      6  C   UNL     1       2.576   2.131   2.012  0.00  0.00    +0.045 C 
ATOM      7  C   UNL     1       4.072   2.048   1.699  0.00  0.00    +0.087 C 
ATOM      8  O   UNL     1       1.507   1.468  -0.583  0.00  0.00    -0.346 OA
ATOM      9  C   UNL     1       0.192   0.954  -0.900  0.00  0.00    +0.191 C 
ATOM     10  C   UNL     1       0.476  -0.560  -1.062  0.00  0.00    +0.191 C 
ATOM     11  O   UNL     1       1.493  -0.809  -0.070  0.00  0.00    -0.346 OA
ATOM     12  C   UNL     1       5.762   1.637  -0.094  0.00  0.00    +0.013 C 
ENDROOT
BRANCH   6  13
ATOM     13  C   UNL     1       2.385   2.462   3.470  0.00  0.00    -0.039 A 
ATOM     14  C   UNL     1       2.885   1.614   4.441  0.00  0.00    +0.008 A 
ATOM     15  C   UNL     1       2.712   1.913   5.779  0.00  0.00    +0.050 A 
ATOM     16  C   UNL     1       2.038   3.065   6.151  0.00  0.00    +0.166 A 
ATOM     17  C   UNL     1       1.535   3.919   5.172  0.00  0.00    +0.166 A 
ATOM     18  C   UNL     1       1.716   3.615   3.833  0.00  0.00    +0.053 A 
ATOM     19  O   UNL     1       0.920   4.972   5.786  0.00  0.00    -0.453 OA
ATOM     20  C   UNL     1       1.407   4.964   7.142  0.00  0.00    +0.466 C 
ATOM     21  O   UNL     1       1.738   3.583   7.378  0.00  0.00    -0.453 OA
ENDBRANCH   6  13
BRANCH   7  22
ATOM     22  N   UNL     1       4.704   3.336   1.997  0.00  0.00    -0.307 N 
ATOM     23  C   UNL     1       5.113   3.611   3.252  0.00  0.00    +0.244 C 
ATOM     24  O   UNL     1       4.957   2.791   4.135  0.00  0.00    -0.270 OA
ATOM     25  H   UNL     1       4.828   3.990   1.292  0.00  0.00    +0.149 HD
BRANCH  23  26
ATOM     26  C   UNL     1       5.751   4.910   3.553  0.00  0.00    +0.037 A 
ATOM     27  C   UNL     1       5.937   5.851   2.539  0.00  0.00    +0.013 A 
ATOM     28  C   UNL     1       6.529   7.064   2.828  0.00  0.00    +0.001 A 
ATOM     29  C   UNL     1       6.947   7.343   4.117  0.00  0.00    +0.000 A 
ATOM     30  C   UNL     1       6.772   6.412   5.125  0.00  0.00    +0.001 A 
ATOM     31  C   UNL     1       6.176   5.198   4.851  0.00  0.00    +0.013 A 
ENDBRANCH  23  26
ENDBRANCH   7  22
TORSDOF 3
