REMARK  Name = ZINC38685585
REMARK  12 active torsions:
REMARK  status: ('A' for Active; 'I' for Inactive)
REMARK    1  A    between atoms: C_1  and  O_2
REMARK    2  A    between atoms: O_2  and  C_3
REMARK    3  A    between atoms: C_7  and  N_17
REMARK    4  A    between atoms: C_8  and  C_13
REMARK    5  A    between atoms: C_13  and  O_15
REMARK    6  A    between atoms: O_15  and  C_16
REMARK    7  A    between atoms: C_18  and  C_20
REMARK    8  A    between atoms: C_20  and  C_21
REMARK    9  A    between atoms: C_21  and  N_22
REMARK   10  A    between atoms: N_25  and  C_28
REMARK   11  A    between atoms: C_28  and  C_29
REMARK   12  A    between atoms: C_30  and  C_31
REMARK                            x       y       z     vdW  Elec       q    Type
REMARK                         _______ _______ _______ _____ _____    ______ ____
ROOT
ATOM      1  N   UNL     1       3.343  -3.208   4.719  0.00  0.00    -0.286 N 
ATOM      2  C   UNL     1       3.859  -2.132   5.346  0.00  0.00    +0.218 C 
ATOM      3  O   UNL     1       3.483  -1.019   5.047  0.00  0.00    -0.275 OA
ATOM      4  H   UNL     1       3.588  -4.101   5.007  0.00  0.00    +0.155 HD
ENDROOT
BRANCH   1   9
ATOM      5  C   UNL     1       0.096  -5.572   1.403  0.00  0.00    +0.122 A 
ATOM      6  C   UNL     1       0.870  -6.165   2.413  0.00  0.00    +0.046 A 
ATOM      7  C   UNL     1       1.678  -5.428   3.210  0.00  0.00    +0.015 A 
ATOM      8  C   UNL     1       1.754  -4.025   3.030  0.00  0.00    +0.018 A 
ATOM      9  C   UNL     1       2.476  -3.041   3.680  0.00  0.00    +0.053 C 
ATOM     10  C   UNL     1       2.104  -1.741   3.003  0.00  0.00    +0.234 C 
ATOM     11  N   UNL     1       1.142  -2.093   1.953  0.00  0.00    -0.367 N 
ATOM     12  C   UNL     1       0.944  -3.397   1.971  0.00  0.00    +0.048 A 
ATOM     13  C   UNL     1       0.125  -4.230   1.172  0.00  0.00    +0.071 A 
ATOM     14  H   UNL     1       0.719  -1.468   1.344  0.00  0.00    +0.161 HD
BRANCH   5  16
ATOM     15  C   UNL     1      -0.694  -7.758   0.913  0.00  0.00    +0.277 C 
ATOM     16  O   UNL     1      -0.698  -6.357   0.632  0.00  0.00    -0.495 OA
ENDBRANCH   5  16
BRANCH  10  17
ATOM     17  C   UNL     1       3.327  -1.105   2.395  0.00  0.00    +0.335 C 
ATOM     18  O   UNL     1       3.751  -1.500   1.335  0.00  0.00    -0.248 OA
BRANCH  17  19
ATOM     19  O   UNL     1       3.946  -0.098   3.031  0.00  0.00    -0.466 OA
ATOM     20  C   UNL     1       5.099   0.459   2.397  0.00  0.00    +0.280 C 
ENDBRANCH  17  19
ENDBRANCH  10  17
ENDBRANCH   1   9
BRANCH   2  21
ATOM     21  C   UNL     1       4.902  -2.313   6.418  0.00  0.00    +0.111 C 
BRANCH  21  22
ATOM     22  C   UNL     1       5.316  -0.945   6.963  0.00  0.00    +0.093 C 
BRANCH  22  23
ATOM     23  N   UNL     1       6.334  -1.121   8.007  0.00  0.00    -0.305 NA
ATOM     24  C   UNL     1       5.771  -1.803   9.181  0.00  0.00    +0.066 C 
ATOM     25  C   UNL     1       6.874  -2.020  10.219  0.00  0.00    -0.063 C 
ATOM     26  N   UNL     1       7.441  -0.723  10.610  0.00  0.00    +0.384 N 
ATOM     27  C   UNL     1       8.021  -0.065   9.432  0.00  0.00    -0.063 C 
ATOM     28  C   UNL     1       6.927   0.169   8.388  0.00  0.00    +0.066 C 
ATOM     29  H   UNL     1       6.713  -0.141  10.996  0.00  0.00    -0.081 HD
BRANCH  26  30
ATOM     30  C   UNL     1       8.488  -0.930  11.620  0.00  0.00    -0.051 C 
BRANCH  30  31
ATOM     31  C   UNL     1       8.983   0.405  12.111  0.00  0.00    -0.045 C 
ATOM     32  C   UNL     1       8.969   0.682  13.408  0.00  0.00    +0.002 C 
BRANCH  32  33
ATOM     33  C   UNL     1       9.456   1.992  13.889  0.00  0.00    -0.025 A 
ATOM     34  C   UNL     1       9.925   2.942  12.982  0.00  0.00    +0.008 A 
ATOM     35  C   UNL     1      10.378   4.162  13.438  0.00  0.00    +0.001 A 
ATOM     36  C   UNL     1      10.367   4.446  14.792  0.00  0.00    +0.000 A 
ATOM     37  C   UNL     1       9.903   3.508  15.697  0.00  0.00    +0.001 A 
ATOM     38  C   UNL     1       9.442   2.286  15.253  0.00  0.00    +0.008 A 
ENDBRANCH  32  33
ENDBRANCH  30  31
ENDBRANCH  26  30
ENDBRANCH  22  23
ENDBRANCH  21  22
ENDBRANCH   2  21
TORSDOF 10
