REMARK  Name = ZINC39665241
REMARK  12 active torsions:
REMARK  status: ('A' for Active; 'I' for Inactive)
REMARK    1  A    between atoms: C_1  and  C_2
REMARK    2  A    between atoms: C_7  and  N_12
REMARK    3  A    between atoms: C_9  and  C_11
REMARK    4  A    between atoms: C_13  and  C_15
REMARK    5  A    between atoms: C_15  and  S_16
REMARK    6  A    between atoms: S_16  and  C_17
REMARK    7  A    between atoms: C_20  and  C_30
REMARK    8  A    between atoms: N_21  and  C_22
REMARK    9  A    between atoms: C_22  and  C_24
REMARK   10  A    between atoms: C_22  and  C_27
REMARK   11  A    between atoms: C_24  and  C_25
REMARK   12  A    between atoms: C_24  and  C_26
REMARK                            x       y       z     vdW  Elec       q    Type
REMARK                         _______ _______ _______ _____ _____    ______ ____
ROOT
ATOM      1  C   UNL     1      -4.010  -6.429   2.400  0.00  0.00    +0.193 A 
ATOM      2  N   UNL     1      -5.000  -5.704   1.932  0.00  0.00    -0.122 NA
ATOM      3  N   UNL     1      -6.108  -6.344   2.042  0.00  0.00    -0.128 NA
ATOM      4  C   UNL     1      -5.894  -7.521   2.589  0.00  0.00    +0.172 A 
ATOM      5  N   UNL     1      -4.542  -7.613   2.829  0.00  0.00    -0.287 N 
ENDROOT
BRANCH   4   6
ATOM      6  C   UNL     1      -6.908  -8.547   2.882  0.00  0.00    +0.056 A 
ATOM      7  C   UNL     1      -8.196  -8.648   2.419  0.00  0.00    +0.019 A 
ATOM      8  C   UNL     1      -8.966  -9.709   2.836  0.00  0.00    +0.008 A 
ATOM      9  C   UNL     1      -8.432 -10.621   3.690  0.00  0.00    +0.046 A 
ATOM     10  S   UNL     1      -6.780  -9.989   3.927  0.00  0.00    -0.094 S 
ENDBRANCH   4   6
BRANCH   1  11
ATOM     11  S   UNL     1      -2.311  -5.965   2.458  0.00  0.00    -0.077 S 
BRANCH  11  12
ATOM     12  C   UNL     1      -2.287  -4.298   1.743  0.00  0.00    +0.173 C 
BRANCH  12  14
ATOM     13  N   UNL     1      -0.612  -2.548   1.244  0.00  0.00    -0.312 N 
ATOM     14  C   UNL     1      -0.873  -3.776   1.733  0.00  0.00    +0.224 C 
ATOM     15  O   UNL     1       0.030  -4.462   2.164  0.00  0.00    -0.275 OA
ATOM     16  H   UNL     1      -1.333  -2.000   0.898  0.00  0.00    +0.149 HD
BRANCH  13  22
ATOM     17  C   UNL     1      -0.019   1.526   0.010  0.00  0.00    +0.008 C 
ATOM     18  C   UNL     1       0.002  -0.004   0.002  0.00  0.00    -0.009 C 
ATOM     19  C   UNL     1       0.718  -0.497  -1.257  0.00  0.00    +0.003 C 
ATOM     20  C   UNL     1       0.739  -2.027  -1.265  0.00  0.00    +0.002 C 
ATOM     21  C   UNL     1       1.479  -2.534  -0.026  0.00  0.00    +0.022 C 
ATOM     22  C   UNL     1       0.763  -2.041   1.233  0.00  0.00    +0.076 C 
ATOM     23  C   UNL     1       0.742  -0.511   1.242  0.00  0.00    +0.009 C 
ATOM     24  C   UNL     1       0.026  -0.018   2.500  0.00  0.00    +0.009 C 
ENDBRANCH  13  22
ENDBRANCH  12  14
ENDBRANCH  11  12
ENDBRANCH   1  11
BRANCH   5  25
ATOM     25  C   UNL     1      -3.823  -8.743   3.424  0.00  0.00    +0.206 C 
BRANCH  25  26
ATOM     26  C   UNL     1      -2.781  -9.263   2.432  0.00  0.00    +0.017 C 
ATOM     27  C   UNL     1      -2.030 -10.443   3.053  0.00  0.00    +0.010 C 
ATOM     28  C   UNL     1      -3.480  -9.721   1.150  0.00  0.00    +0.010 C 
ENDBRANCH  25  26
BRANCH  25  29
ATOM     29  C   UNL     1      -3.134  -8.293   4.686  0.00  0.00    +0.379 C 
ATOM     30  O   UNL     1      -3.789  -7.841   5.610  0.00  0.00    -0.244 OA
ATOM     31  O   UNL     1      -1.922  -8.379   4.784  0.00  0.00    -0.244 OA
ENDBRANCH  25  29
ENDBRANCH   5  25
TORSDOF 8
