REMARK  Name = ZINC05478126
REMARK  9 active torsions:
REMARK  status: ('A' for Active; 'I' for Inactive)
REMARK    1  A    between atoms: C_1  and  C_2
REMARK    2  A    between atoms: C_2  and  C_3
REMARK    3  A    between atoms: C_3  and  C_4
REMARK    4  A    between atoms: C_4  and  C_6
REMARK    5  A    between atoms: C_4  and  N_8
REMARK    6  A    between atoms: C_12  and  C_13
REMARK    7  A    between atoms: C_16  and  O_21
REMARK    8  A    between atoms: C_17  and  O_19
REMARK    9  A    between atoms: O_19  and  C_20
REMARK                            x       y       z     vdW  Elec       q    Type
REMARK                         _______ _______ _______ _____ _____    ______ ____
ROOT
ATOM      1  N   UNL     1       3.543   1.528   0.861  0.00  0.00    -0.241 N 
ATOM      2  C   UNL     1       2.487   0.810   0.516  0.00  0.00    +0.259 C 
ATOM      3  O   UNL     1       2.560  -0.392   0.344  0.00  0.00    -0.269 OA
ATOM      4  C   UNL     1       1.215   1.542   0.352  0.00  0.00    +0.077 C 
ATOM      5  C   UNL     1      -0.013   1.076   0.008  0.00  0.00    +0.028 C 
ATOM      6  S   UNL     1       1.738   3.211   0.722  0.00  0.00    -0.061 S 
ATOM      7  C   UNL     1       3.458   2.860   1.052  0.00  0.00    +0.121 C 
ATOM      8  S   UNL     1       4.699   3.953   1.496  0.00  0.00    -0.027 S 
ENDROOT
BRANCH   5   9
ATOM      9  C   UNL     1      -1.178   1.968   0.062  0.00  0.00    -0.020 A 
ATOM     10  C   UNL     1      -2.408   1.548  -0.458  0.00  0.00    +0.012 A 
ATOM     11  C   UNL     1      -3.500   2.387  -0.405  0.00  0.00    +0.050 A 
ATOM     12  C   UNL     1      -3.384   3.649   0.162  0.00  0.00    +0.158 A 
ATOM     13  C   UNL     1      -2.162   4.074   0.682  0.00  0.00    +0.162 A 
ATOM     14  C   UNL     1      -1.063   3.238   0.639  0.00  0.00    +0.057 A 
BRANCH  13  15
ATOM     15  O   UNL     1      -2.053   5.311   1.237  0.00  0.00    -0.491 OA
ATOM     16  C   UNL     1      -0.772   5.682   1.750  0.00  0.00    +0.277 C 
ENDBRANCH  13  15
BRANCH  12  17
ATOM     17  O   UNL     1      -4.464   4.471   0.210  0.00  0.00    -0.503 OA
ATOM     18  H   UNL     1      -4.995   4.376   1.012  0.00  0.00    +0.292 HD
ENDBRANCH  12  17
ENDBRANCH   5   9
BRANCH   1  19
ATOM     19  C   UNL     1       4.835   0.861   1.040  0.00  0.00    +0.195 C 
BRANCH  19  20
ATOM     20  C   UNL     1       5.316   1.069   2.453  0.00  0.00    +0.376 C 
ATOM     21  O   UNL     1       4.648   1.709   3.231  0.00  0.00    -0.244 OA
ATOM     22  O   UNL     1       6.486   0.543   2.848  0.00  0.00    -0.244 OA
ENDBRANCH  19  20
BRANCH  19  23
ATOM     23  C   UNL     1       5.854   1.450   0.063  0.00  0.00    +0.034 C 
BRANCH  23  25
ATOM     24  C   UNL     1       6.447   1.720  -2.349  0.00  0.00    +0.004 C 
ATOM     25  C   UNL     1       5.428   1.130  -1.371  0.00  0.00    -0.001 C 
ENDBRANCH  23  25
ENDBRANCH  19  23
ENDBRANCH   1  19
TORSDOF 7
