REMARK  Name = ZINC22001334
REMARK  6 active torsions:
REMARK  status: ('A' for Active; 'I' for Inactive)
REMARK    1  A    between atoms: C_1  and  C_2
REMARK    2  A    between atoms: C_5  and  N_9
REMARK    3  A    between atoms: C_19  and  S_20
REMARK    4  A    between atoms: S_20  and  C_21
REMARK    5  A    between atoms: C_21  and  C_23
REMARK    6  A    between atoms: C_21  and  C_24
REMARK                            x       y       z     vdW  Elec       q    Type
REMARK                         _______ _______ _______ _____ _____    ______ ____
ROOT
ATOM      1  N   UNL     1      -2.461   4.097   0.046  0.00  0.00    -0.255 N 
ATOM      2  C   UNL     1      -2.472   5.445   0.155  0.00  0.00    +0.267 A 
ATOM      3  O   UNL     1      -1.436   6.079   0.241  0.00  0.00    -0.267 OA
ATOM      4  C   UNL     1      -3.778   6.117   0.165  0.00  0.00    +0.065 A 
ATOM      5  C   UNL     1      -3.894   7.502   0.273  0.00  0.00    +0.015 A 
ATOM      6  C   UNL     1      -5.135   8.076   0.277  0.00  0.00    +0.001 A 
ATOM      7  C   UNL     1      -6.279   7.295   0.175  0.00  0.00    +0.002 A 
ATOM      8  C   UNL     1      -6.195   5.935   0.068  0.00  0.00    +0.028 A 
ATOM      9  C   UNL     1      -4.940   5.318   0.061  0.00  0.00    +0.079 A 
ATOM     10  N   UNL     1      -4.811   3.975  -0.043  0.00  0.00    -0.223 NA
ATOM     11  C   UNL     1      -3.634   3.399  -0.056  0.00  0.00    +0.177 A 
ENDROOT
BRANCH   1  16
ATOM     12  C   UNL     1       2.486   1.315  -0.020  0.00  0.00    +0.047 C 
ATOM     13  C   UNL     1       1.172   2.053  -0.002  0.00  0.00    -0.015 A 
ATOM     14  C   UNL     1       0.610   2.490  -1.187  0.00  0.00    +0.008 A 
ATOM     15  C   UNL     1      -0.594   3.167  -1.174  0.00  0.00    +0.027 A 
ATOM     16  C   UNL     1      -1.241   3.410   0.031  0.00  0.00    +0.055 A 
ATOM     17  C   UNL     1      -0.678   2.967   1.220  0.00  0.00    +0.065 A 
ATOM     18  C   UNL     1       0.531   2.293   1.202  0.00  0.00    +0.128 A 
ATOM     19  F   UNL     1       1.082   1.865   2.358  0.00  0.00    -0.205 F 
ENDBRANCH   1  16
BRANCH  11  20
ATOM     20  S   UNL     1      -3.558   1.645  -0.202  0.00  0.00    -0.075 S 
BRANCH  20  21
ATOM     21  C   UNL     1      -5.324   1.261  -0.298  0.00  0.00    +0.137 C 
ATOM     22  C   UNL     1      -5.906   1.857  -1.581  0.00  0.00    +0.029 C 
BRANCH  21  23
ATOM     23  C   UNL     1      -5.513  -0.234  -0.307  0.00  0.00    +0.233 C 
ATOM     24  O   UNL     1      -4.592  -0.960  -0.616  0.00  0.00    -0.274 OA
ATOM     25  N   UNL     1      -6.706  -0.764   0.028  0.00  0.00    -0.260 N 
ATOM     26  C   UNL     1      -7.839   0.094   0.407  0.00  0.00    +0.209 C 
ATOM     27  C   UNL     1      -8.547  -0.520   1.588  0.00  0.00    +0.235 C 
ATOM     28  O   UNL     1      -9.126   0.197   2.376  0.00  0.00    -0.274 OA
ATOM     29  N   UNL     1      -8.543  -1.852   1.778  0.00  0.00    -0.283 N 
ATOM     30  C   UNL     1      -7.840  -2.697   0.912  0.00  0.00    +0.055 A 
ATOM     31  C   UNL     1      -6.909  -2.153   0.021  0.00  0.00    +0.058 A 
ATOM     32  C   UNL     1      -6.205  -2.974  -0.841  0.00  0.00    +0.025 A 
ATOM     33  C   UNL     1      -6.431  -4.339  -0.827  0.00  0.00    +0.002 A 
ATOM     34  C   UNL     1      -7.356  -4.882   0.045  0.00  0.00    +0.002 A 
ATOM     35  C   UNL     1      -8.059  -4.065   0.923  0.00  0.00    +0.025 A 
ATOM     36  H   UNL     1      -9.097  -2.289   2.622  0.00  0.00    +0.155 HD
ENDBRANCH  21  23
ENDBRANCH  20  21
ENDBRANCH  11  20
TORSDOF 4
