REMARK  Name = ZINC44577409
REMARK  5 active torsions:
REMARK  status: ('A' for Active; 'I' for Inactive)
REMARK    1  A    between atoms: C_1  and  C_2
REMARK    2  A    between atoms: C_2  and  C_3
REMARK    3  A    between atoms: C_2  and  N_4
REMARK    4  A    between atoms: C_5  and  C_22
REMARK    5  A    between atoms: C_8  and  C_15
REMARK                            x       y       z     vdW  Elec       q    Type
REMARK                         _______ _______ _______ _____ _____    ______ ____
ROOT
ATOM      1  N   UNL     1       0.556  -0.527  -0.985  0.00  0.00    -0.282 N 
ATOM      2  C   UNL     1       1.762  -1.283  -1.344  0.00  0.00    +0.142 C 
ATOM      3  C   UNL     1       1.842  -1.263  -2.846  0.00  0.00    +0.035 A 
ATOM      4  C   UNL     1       2.513  -1.641  -3.965  0.00  0.00    +0.072 A 
ATOM      5  N   UNL     1       1.815  -1.144  -5.028  0.00  0.00    -0.276 N 
ATOM      6  H   UNL     1       2.062  -1.258  -5.959  0.00  0.00    +0.189 HD
ATOM      7  N   UNL     1       0.782  -0.501  -4.612  0.00  0.00    -0.168 NA
ATOM      8  C   UNL     1       0.723  -0.525  -3.295  0.00  0.00    +0.153 A 
ATOM      9  C   UNL     1      -0.042  -0.098  -2.110  0.00  0.00    +0.268 C 
ATOM     10  O   UNL     1      -1.067   0.554  -2.144  0.00  0.00    -0.268 OA
ENDROOT
BRANCH   2  11
ATOM     11  C   UNL     1       2.981  -0.625  -0.751  0.00  0.00    -0.013 A 
ATOM     12  C   UNL     1       3.909  -1.375  -0.086  0.00  0.00    +0.006 A 
ATOM     13  C   UNL     1       5.035  -0.778   0.464  0.00  0.00    +0.002 A 
ATOM     14  C   UNL     1       5.237   0.580   0.349  0.00  0.00    +0.026 A 
ATOM     15  C   UNL     1       4.305   1.363  -0.325  0.00  0.00    +0.047 A 
ATOM     16  C   UNL     1       3.168   0.752  -0.884  0.00  0.00    +0.005 A 
ATOM     17  C   UNL     1       2.402   1.827  -1.518  0.00  0.00    +0.028 A 
ATOM     18  C   UNL     1       3.085   2.966  -1.321  0.00  0.00    +0.083 A 
ATOM     19  N   UNL     1       4.221   2.709  -0.603  0.00  0.00    -0.361 N 
ATOM     20  H   UNL     1       4.875   3.374  -0.337  0.00  0.00    +0.165 HD
ENDBRANCH   2  11
BRANCH   4  21
ATOM     21  C   UNL     1       3.760  -2.437  -4.021  0.00  0.00    +0.000 A 
ATOM     22  C   UNL     1       4.834  -2.115  -3.191  0.00  0.00    +0.011 A 
ATOM     23  C   UNL     1       5.994  -2.860  -3.248  0.00  0.00    +0.020 A 
ATOM     24  C   UNL     1       6.092  -3.926  -4.125  0.00  0.00    +0.041 A 
ATOM     25  C   UNL     1       5.029  -4.251  -4.950  0.00  0.00    +0.020 A 
ATOM     26  C   UNL     1       3.862  -3.517  -4.898  0.00  0.00    +0.011 A 
ATOM     27 CL   UNL     1       7.555  -4.859  -4.191  0.00  0.00    -0.084 Cl
ENDBRANCH   4  21
BRANCH   1  29
ATOM     28  C   UNL     1      -0.079   1.220   0.604  0.00  0.00    +0.028 C 
ATOM     29  C   UNL     1       0.078  -0.285   0.378  0.00  0.00    +0.071 C 
ATOM     30  C   UNL     1      -1.274  -0.975   0.574  0.00  0.00    +0.028 C 
ENDBRANCH   1  29
TORSDOF 3
