REMARK  Name = ZINC45261459
REMARK  8 active torsions:
REMARK  status: ('A' for Active; 'I' for Inactive)
REMARK    1  A    between atoms: C_1  and  C_2
REMARK    2  A    between atoms: C_7  and  N_8
REMARK    3  A    between atoms: C_10  and  C_15
REMARK    4  A    between atoms: C_17  and  N_21
REMARK    5  A    between atoms: N_21  and  C_22
REMARK    6  A    between atoms: C_26  and  N_27
REMARK    7  A    between atoms: N_27  and  C_28
REMARK    8  A    between atoms: C_32  and  C_34
REMARK                            x       y       z     vdW  Elec       q    Type
REMARK                         _______ _______ _______ _____ _____    ______ ____
ROOT
ATOM      1  C   UNL     1      -2.104   0.339   0.776  0.00  0.00    +0.045 C 
ATOM      2  C   UNL     1      -0.891  -0.352   0.210  0.00  0.00    -0.029 A 
ATOM      3  C   UNL     1      -0.917  -0.830  -1.096  0.00  0.00    +0.006 A 
ATOM      4  C   UNL     1       0.163  -1.460  -1.638  0.00  0.00    +0.012 A 
ATOM      5  C   UNL     1       1.325  -1.634  -0.874  0.00  0.00    +0.024 A 
ATOM      6  C   UNL     1       1.364  -1.152   0.457  0.00  0.00    +0.008 A 
ATOM      7  C   UNL     1       0.237  -0.499   0.992  0.00  0.00    +0.043 A 
ATOM      8  C   UNL     1       2.544  -1.340   1.201  0.00  0.00    +0.030 A 
ATOM      9  C   UNL     1       3.596  -1.975   0.616  0.00  0.00    +0.113 A 
ATOM     10  N   UNL     1       3.541  -2.420  -0.633  0.00  0.00    -0.240 NA
ATOM     11  C   UNL     1       2.470  -2.281  -1.391  0.00  0.00    +0.131 A 
ENDROOT
BRANCH   7  12
ATOM     12  N   UNL     1       0.258  -0.012   2.299  0.00  0.00    -0.298 N 
ATOM     13  C   UNL     1       0.407   1.347   2.530  0.00  0.00    +0.132 A 
ATOM     14  C   UNL     1       0.601   1.815   3.839  0.00  0.00    +0.041 A 
ATOM     15  C   UNL     1       0.748   3.187   4.048  0.00  0.00    +0.015 A 
ATOM     16  C   UNL     1       0.697   4.031   2.950  0.00  0.00    +0.020 A 
ATOM     17  C   UNL     1       0.503   3.496   1.690  0.00  0.00    +0.113 A 
ATOM     18  N   UNL     1       0.371   2.195   1.514  0.00  0.00    -0.240 NA
ATOM     19  H   UNL     1       0.168  -0.624   3.047  0.00  0.00    +0.154 HD
BRANCH  14  20
ATOM     20  C   UNL     1       0.647   0.870   4.978  0.00  0.00    +0.079 A 
ATOM     21  C   UNL     1       0.991   1.315   6.253  0.00  0.00    +0.072 A 
ATOM     22  C   UNL     1       1.019   0.384   7.290  0.00  0.00    +0.122 A 
ATOM     23  N   UNL     1       0.718  -0.885   7.027  0.00  0.00    -0.221 NA
ATOM     24  C   UNL     1       0.398  -1.267   5.807  0.00  0.00    +0.223 A 
ATOM     25  N   UNL     1       0.354  -0.420   4.800  0.00  0.00    -0.235 NA
BRANCH  22  26
ATOM     26  N   UNL     1       1.355   0.775   8.577  0.00  0.00    -0.332 N 
ATOM     27  C   UNL     1       1.684   2.176   8.854  0.00  0.00    +0.127 C 
ATOM     28  H   UNL     1       1.372   0.122   9.293  0.00  0.00    +0.147 HD
ENDBRANCH  22  26
ENDBRANCH  14  20
ENDBRANCH   7  12
BRANCH  11  29
ATOM     29  N   UNL     1       2.468  -2.766  -2.689  0.00  0.00    -0.299 N 
ATOM     30  H   UNL     1       1.707  -2.603  -3.267  0.00  0.00    +0.154 HD
BRANCH  29  31
ATOM     31  C   UNL     1       3.564  -3.491  -3.165  0.00  0.00    +0.034 A 
ATOM     32  C   UNL     1       4.297  -4.294  -2.298  0.00  0.00    +0.023 A 
ATOM     33  C   UNL     1       5.381  -5.013  -2.764  0.00  0.00    +0.003 A 
ATOM     34  C   UNL     1       5.745  -4.938  -4.093  0.00  0.00    +0.017 A 
ATOM     35  C   UNL     1       5.016  -4.135  -4.972  0.00  0.00    +0.026 A 
ATOM     36  C   UNL     1       3.918  -3.414  -4.503  0.00  0.00    +0.040 A 
BRANCH  35  37
ATOM     37  C   UNL     1       5.392  -4.055  -6.352  0.00  0.00    -0.070 C 
ATOM     38  C   UNL     1       5.700  -3.990  -7.483  0.00  0.00    +0.009 C 
ENDBRANCH  35  37
ENDBRANCH  29  31
ENDBRANCH  11  29
TORSDOF 6
