REMARK  Name = ZINC38653390
REMARK  6 active torsions:
REMARK  status: ('A' for Active; 'I' for Inactive)
REMARK    1  A    between atoms: C_1  and  C_2
REMARK    2  A    between atoms: C_5  and  S_9
REMARK    3  A    between atoms: S_9  and  C_10
REMARK    4  A    between atoms: C_10  and  C_24
REMARK    5  A    between atoms: C_11  and  C_12
REMARK    6  A    between atoms: C_15  and  C_17
REMARK                            x       y       z     vdW  Elec       q    Type
REMARK                         _______ _______ _______ _____ _____    ______ ____
ROOT
ATOM      1  C   UNL     1       3.926  -0.429  -0.825  0.00  0.00    +0.103 C 
ATOM      2  C   UNL     1       3.260   0.636  -0.293  0.00  0.00    +0.068 C 
ENDROOT
BRANCH   2   3
ATOM      3  C   UNL     1       3.971   1.796   0.087  0.00  0.00    +0.130 A 
ATOM      4  C   UNL     1       3.777   2.525   1.246  0.00  0.00    +0.050 A 
ATOM      5  C   UNL     1       4.690   3.583   1.214  0.00  0.00    +0.050 A 
ATOM      6  C   UNL     1       5.401   3.466   0.053  0.00  0.00    +0.136 A 
ATOM      7  O   UNL     1       4.963   2.383  -0.615  0.00  0.00    -0.455 OA
BRANCH   6   8
ATOM      8  C   UNL     1       6.475   4.374  -0.392  0.00  0.00    +0.019 A 
ATOM      9  C   UNL     1       6.848   5.463   0.401  0.00  0.00    +0.011 A 
ATOM     10  C   UNL     1       7.853   6.307  -0.020  0.00  0.00    +0.002 A 
ATOM     11  C   UNL     1       8.494   6.080  -1.225  0.00  0.00    +0.020 A 
ATOM     12  C   UNL     1       8.130   5.003  -2.017  0.00  0.00    +0.042 A 
ATOM     13  C   UNL     1       7.129   4.146  -1.605  0.00  0.00    +0.031 A 
ATOM     14 CL   UNL     1       8.940   4.726  -3.528  0.00  0.00    -0.084 Cl
ENDBRANCH   6   8
ENDBRANCH   2   3
BRANCH   1  15
ATOM     15  C   UNL     1       5.342  -0.458  -0.810  0.00  0.00    +0.393 C 
ATOM     16  O   UNL     1       5.967   0.409  -0.209  0.00  0.00    -0.240 OA
ATOM     17  O   UNL     1       5.943  -1.350  -1.398  0.00  0.00    -0.240 OA
ENDBRANCH   1  15
BRANCH   1  18
ATOM     18  S   UNL     1       3.024  -1.768  -1.531  0.00  0.00    -0.074 S 
BRANCH  18  22
ATOM     19  C   UNL     1       0.316   2.151  -1.042  0.00  0.00    +0.052 C 
ATOM     20  C   UNL     1       0.063   0.643  -1.093  0.00  0.00    +0.194 C 
ATOM     21  N   UNL     1       1.016  -0.009  -2.026  0.00  0.00    -0.262 NA
ATOM     22  C   UNL     1       1.288  -1.288  -1.321  0.00  0.00    +0.260 C 
ATOM     23  N   UNL     1       1.000  -1.004   0.091  0.00  0.00    -0.160 NA
ATOM     24  N   UNL     1       0.339   0.034   0.214  0.00  0.00    -0.171 NA
ATOM     25  H   UNL     1       0.587  -0.176  -2.924  0.00  0.00    +0.127 HD
ENDBRANCH  18  22
ENDBRANCH   1  18
TORSDOF 5
