REMARK  Name = ZINC66925098
REMARK  5 active torsions:
REMARK  status: ('A' for Active; 'I' for Inactive)
REMARK    1  A    between atoms: C_1  and  N_2
REMARK    2  A    between atoms: C_7  and  N_12
REMARK    3  A    between atoms: C_18  and  N_21
REMARK    4  A    between atoms: C_22  and  C_24
REMARK    5  A    between atoms: C_24  and  C_25
REMARK                            x       y       z     vdW  Elec       q    Type
REMARK                         _______ _______ _______ _____ _____    ______ ____
ROOT
ATOM      1  N   UNL     1       1.018  -4.257  -1.119  0.00  0.00    -0.292 N 
ATOM      2  C   UNL     1       0.658  -5.157  -0.183  0.00  0.00    +0.303 C 
ATOM      3  O   UNL     1      -0.443  -5.095   0.329  0.00  0.00    -0.253 OA
ATOM      4  N   UNL     1       1.519  -6.127   0.185  0.00  0.00    -0.286 N 
ATOM      5  C   UNL     1       2.892  -6.148  -0.338  0.00  0.00    +0.111 C 
ATOM      6  C   UNL     1       3.162  -7.522  -0.959  0.00  0.00    +0.041 C 
ATOM      7  C   UNL     1       2.867  -8.611   0.075  0.00  0.00    +0.076 C 
ATOM      8  C   UNL     1       1.393  -8.546   0.479  0.00  0.00    +0.041 C 
ATOM      9  C   UNL     1       1.103  -7.181   1.121  0.00  0.00    +0.111 C 
ATOM     10  H   UNL     1       1.920  -4.262  -1.475  0.00  0.00    +0.151 HD
ENDROOT
BRANCH   1  17
ATOM     11  C   UNL     1      -0.014   1.461   0.008  0.00  0.00    +0.172 C 
ATOM     12  N   UNL     1       0.005  -0.004   0.000  0.00  0.00    -0.271 N 
ATOM     13  C   UNL     1       0.009  -0.789  -1.089  0.00  0.00    +0.044 A 
ATOM     14  C   UNL     1       0.031  -2.081  -0.671  0.00  0.00    +0.013 A 
ATOM     15  C   UNL     1       0.038  -2.081   0.722  0.00  0.00    +0.140 A 
ATOM     16  N   UNL     1       0.028  -0.836   1.130  0.00  0.00    -0.179 NA
ATOM     17  C   UNL     1       0.047  -3.270  -1.598  0.00  0.00    +0.108 C 
ATOM     18  C   UNL     1       0.447  -2.788  -2.998  0.00  0.00    +0.027 C 
ATOM     19  C   UNL     1      -0.412  -1.581  -3.387  0.00  0.00    +0.008 C 
ATOM     20  C   UNL     1      -0.009  -0.370  -2.538  0.00  0.00    +0.055 C 
ENDBRANCH   1  17
BRANCH   7  21
ATOM     21  N   UNL     1       3.156  -9.925  -0.505  0.00  0.00    -0.312 N 
ATOM     22  C   UNL     1       3.463 -10.963   0.298  0.00  0.00    +0.214 C 
ATOM     23  O   UNL     1       3.500 -10.810   1.500  0.00  0.00    -0.276 OA
ATOM     24  H   UNL     1       3.127 -10.048  -1.467  0.00  0.00    +0.149 HD
BRANCH  22  25
ATOM     25  C   UNL     1       3.761 -12.315  -0.299  0.00  0.00    +0.099 C 
BRANCH  25  26
ATOM     26  C   UNL     1       4.077 -13.308   0.821  0.00  0.00    -0.002 C 
ATOM     27  C   UNL     1       5.411 -12.934   1.499  0.00  0.00    +0.004 C 
ATOM     28  C   UNL     1       6.071 -14.299   1.817  0.00  0.00    +0.000 C 
ATOM     29  C   UNL     1       5.700 -15.155   0.580  0.00  0.00    +0.000 C 
ATOM     30  C   UNL     1       4.260 -14.720   0.238  0.00  0.00    +0.004 C 
ENDBRANCH  25  26
ENDBRANCH  22  25
ENDBRANCH   7  21
TORSDOF 4
