REMARK  Name = ZINC36016736
REMARK  12 active torsions:
REMARK  status: ('A' for Active; 'I' for Inactive)
REMARK    1  A    between atoms: C_1  and  C_2
REMARK    2  A    between atoms: C_2  and  C_3
REMARK    3  A    between atoms: N_8  and  C_13
REMARK    4  A    between atoms: C_10  and  C_12
REMARK    5  A    between atoms: C_13  and  C_14
REMARK    6  A    between atoms: C_15  and  C_32
REMARK    7  A    between atoms: C_16  and  C_24
REMARK    8  A    between atoms: N_21  and  C_22
REMARK    9  A    between atoms: C_22  and  C_23
REMARK   10  A    between atoms: C_32  and  O_34
REMARK   11  A    between atoms: O_34  and  C_35
REMARK   12  A    between atoms: C_35  and  C_36
REMARK                            x       y       z     vdW  Elec       q    Type
REMARK                         _______ _______ _______ _____ _____    ______ ____
ROOT
ATOM      1  C   UNL     1      -0.903  -6.476  -1.507  0.00  0.00    +0.041 C 
ATOM      2  C   UNL     1      -1.311  -7.657  -0.994  0.00  0.00    +0.080 C 
ATOM      3  C   UNL     1      -0.271  -8.745  -0.816  0.00  0.00    +0.145 C 
ATOM      4  N   UNL     1       1.108  -8.423  -1.220  0.00  0.00    -0.288 N 
ATOM      5  C   UNL     1       1.360  -7.196  -1.717  0.00  0.00    +0.307 C 
ATOM      6  O   UNL     1       2.495  -6.920  -2.053  0.00  0.00    -0.252 OA
ATOM      7  N   UNL     1       0.401  -6.273  -1.858  0.00  0.00    -0.258 N 
ATOM      8  H   UNL     1       1.817  -9.078  -1.130  0.00  0.00    +0.151 HD
ENDROOT
BRANCH   3   9
ATOM      9  C   UNL     1      -0.250  -9.133   0.640  0.00  0.00    -0.004 A 
ATOM     10  C   UNL     1      -0.777  -8.279   1.591  0.00  0.00    +0.008 A 
ATOM     11  C   UNL     1      -0.758  -8.634   2.926  0.00  0.00    +0.020 A 
ATOM     12  C   UNL     1      -0.211  -9.845   3.312  0.00  0.00    +0.042 A 
ATOM     13  C   UNL     1       0.317 -10.700   2.362  0.00  0.00    +0.040 A 
ATOM     14  C   UNL     1       0.293 -10.346   1.024  0.00  0.00    +0.048 A 
ATOM     15 CL   UNL     1       0.949 -11.422  -0.170  0.00  0.00    -0.083 Cl
ATOM     16 CL   UNL     1      -0.186 -10.291   4.990  0.00  0.00    -0.083 Cl
ENDBRANCH   3   9
BRANCH   7  17
ATOM     17  C   UNL     1       0.772  -4.970  -2.414  0.00  0.00    +0.111 C 
ATOM     18  C   UNL     1       1.288  -4.065  -1.293  0.00  0.00    +0.025 C 
ENDBRANCH   7  17
BRANCH   2  19
ATOM     19  C   UNL     1      -2.662  -7.871  -0.635  0.00  0.00    +0.339 C 
ATOM     20  O   UNL     1      -3.504  -7.037  -0.910  0.00  0.00    -0.245 OA
BRANCH  19  21
ATOM     21  O   UNL     1      -3.018  -9.001   0.012  0.00  0.00    -0.462 OA
BRANCH  21  22
ATOM     22  C   UNL     1      -4.400  -9.151   0.344  0.00  0.00    +0.229 C 
ATOM     23  C   UNL     1      -4.609 -10.482   1.068  0.00  0.00    +0.048 C 
ENDBRANCH  21  22
ENDBRANCH  19  21
ENDBRANCH   2  19
BRANCH   1  24
ATOM     24  C   UNL     1      -1.905  -5.367  -1.701  0.00  0.00    +0.136 C 
BRANCH  24  30
ATOM     25  C   UNL     1      -5.255  -5.214  -5.966  0.00  0.00    +0.216 C 
ATOM     26  O   UNL     1      -5.741  -4.134  -6.227  0.00  0.00    -0.276 OA
ATOM     27  N   UNL     1      -4.099  -5.285  -5.278  0.00  0.00    -0.296 N 
ATOM     28  C   UNL     1      -3.545  -6.583  -4.864  0.00  0.00    +0.123 C 
ATOM     29  C   UNL     1      -3.231  -6.522  -3.365  0.00  0.00    +0.104 C 
ATOM     30  N   UNL     1      -2.369  -5.364  -3.095  0.00  0.00    -0.294 NA
ATOM     31  C   UNL     1      -3.050  -4.105  -3.420  0.00  0.00    +0.107 C 
ATOM     32  C   UNL     1      -3.353  -4.066  -4.926  0.00  0.00    +0.087 C 
ATOM     33  C   UNL     1      -4.201  -2.834  -5.251  0.00  0.00    +0.029 C 
BRANCH  25  35
ATOM     34  C   UNL     1      -7.226  -6.120  -7.168  0.00  0.00    +0.013 C 
ATOM     35  C   UNL     1      -5.945  -6.478  -6.412  0.00  0.00    +0.092 C 
ENDBRANCH  25  35
ENDBRANCH  24  30
ENDBRANCH   1  24
TORSDOF 8
