REMARK  Name = ZINC19819805
REMARK  6 active torsions:
REMARK  status: ('A' for Active; 'I' for Inactive)
REMARK    1  A    between atoms: C_6  and  S_7
REMARK    2  A    between atoms: S_7  and  N_10
REMARK    3  A    between atoms: N_10  and  C_11
REMARK    4  A    between atoms: C_11  and  C_12
REMARK    5  A    between atoms: C_12  and  C_14
REMARK    6  A    between atoms: C_12  and  N_23
REMARK                            x       y       z     vdW  Elec       q    Type
REMARK                         _______ _______ _______ _____ _____    ______ ____
ROOT
ATOM      1  C   UNL     1      -1.792  -2.350  -3.758  0.00  0.00    +0.102 C 
ENDROOT
BRANCH   1   2
ATOM      2  C   UNL     1      -0.899  -3.186  -4.639  0.00  0.00    -0.025 A 
ATOM      3  C   UNL     1       0.069  -2.577  -5.415  0.00  0.00    +0.009 A 
ATOM      4  C   UNL     1       0.891  -3.339  -6.223  0.00  0.00    +0.050 A 
ATOM      5  C   UNL     1       0.746  -4.717  -6.258  0.00  0.00    +0.166 A 
ATOM      6  C   UNL     1      -0.230  -5.330  -5.476  0.00  0.00    +0.167 A 
ATOM      7  C   UNL     1      -1.046  -4.560  -4.664  0.00  0.00    +0.054 A 
ATOM      8  O   UNL     1      -0.172  -6.678  -5.685  0.00  0.00    -0.453 OA
ATOM      9  C   UNL     1       0.572  -6.846  -6.906  0.00  0.00    +0.466 C 
ATOM     10  O   UNL     1       1.415  -5.680  -6.957  0.00  0.00    -0.453 OA
ENDBRANCH   1   2
BRANCH   1  11
ATOM     11  N   UNL     1      -2.177  -1.126  -4.473  0.00  0.00    -0.290 NA
ATOM     12  C   UNL     1      -2.943  -0.225  -3.599  0.00  0.00    +0.113 C 
ATOM     13  C   UNL     1      -3.271   1.061  -4.363  0.00  0.00    +0.175 C 
ATOM     14  O   UNL     1      -3.982   0.731  -5.559  0.00  0.00    -0.377 OA
ATOM     15  C   UNL     1      -3.264  -0.144  -6.433  0.00  0.00    +0.175 C 
ATOM     16  C   UNL     1      -2.937  -1.442  -5.691  0.00  0.00    +0.113 C 
ENDBRANCH   1  11
BRANCH   1  17
ATOM     17  C   UNL     1      -1.043  -1.980  -2.477  0.00  0.00    +0.129 C 
BRANCH  17  18
ATOM     18  N   UNL     1      -0.712  -3.199  -1.735  0.00  0.00    -0.188 NA
ATOM     19  H   UNL     1      -1.146  -4.037  -1.960  0.00  0.00    +0.148 HD
BRANCH  18  20
ATOM     20  S   UNL     1       0.406  -3.147  -0.514  0.00  0.00    +0.058 S 
ATOM     21  O   UNL     1       1.540  -2.464  -1.030  0.00  0.00    -0.153 OA
ATOM     22  O   UNL     1       0.486  -4.462   0.019  0.00  0.00    -0.153 OA
BRANCH  20  28
ATOM     23  C   UNL     1      -1.029  -2.688   1.762  0.00  0.00    +0.030 A 
ATOM     24  C   UNL     1      -1.552  -1.888   2.761  0.00  0.00    +0.022 A 
ATOM     25  C   UNL     1      -1.307  -0.527   2.757  0.00  0.00    +0.041 A 
ATOM     26  C   UNL     1      -0.538   0.034   1.752  0.00  0.00    +0.022 A 
ATOM     27  C   UNL     1      -0.015  -0.767   0.754  0.00  0.00    +0.030 A 
ATOM     28  C   UNL     1      -0.261  -2.127   0.759  0.00  0.00    +0.105 A 
ATOM     29 CL   UNL     1      -1.964   0.478   4.011  0.00  0.00    -0.084 Cl
ENDBRANCH  20  28
ENDBRANCH  18  20
ENDBRANCH  17  18
ENDBRANCH   1  17
TORSDOF 6
