REMARK  Name = ZINC61957792
REMARK  6 active torsions:
REMARK  status: ('A' for Active; 'I' for Inactive)
REMARK    1  A    between atoms: C_1  and  N_2
REMARK    2  A    between atoms: N_2  and  C_3
REMARK    3  A    between atoms: N_2  and  S_11
REMARK    4  A    between atoms: C_6  and  C_9
REMARK    5  A    between atoms: S_11  and  C_14
REMARK    6  A    between atoms: C_15  and  N_21
REMARK                            x       y       z     vdW  Elec       q    Type
REMARK                         _______ _______ _______ _____ _____    ______ ____
ROOT
ATOM      1  S   UNL     1      -0.028  -0.795  -1.481  0.00  0.00    +0.079 S 
ATOM      2  O   UNL     1      -0.828  -1.961  -1.623  0.00  0.00    -0.150 OA
ATOM      3  O   UNL     1      -0.389   0.452  -2.057  0.00  0.00    -0.150 OA
ENDROOT
BRANCH   1   4
ATOM      4  C   UNL     1       1.566  -1.199  -2.115  0.00  0.00    +0.164 A 
ATOM      5  C   UNL     1       2.549  -0.222  -2.199  0.00  0.00    +0.054 A 
ATOM      6  C   UNL     1       3.805  -0.544  -2.699  0.00  0.00    +0.025 A 
ATOM      7  C   UNL     1       4.072  -1.835  -3.112  0.00  0.00    +0.005 A 
ATOM      8  C   UNL     1       3.093  -2.807  -3.028  0.00  0.00    +0.040 A 
ATOM      9  C   UNL     1       1.841  -2.491  -2.525  0.00  0.00    +0.152 A 
ATOM     10  F   UNL     1       0.888  -3.444  -2.439  0.00  0.00    -0.203 F 
BRANCH   5  11
ATOM     11  N   UNL     1       2.276   1.083  -1.781  0.00  0.00    -0.356 N 
ATOM     12  H   UNL     1       1.373   1.333  -1.533  0.00  0.00    +0.142 HD
ATOM     13  H   UNL     1       2.990   1.738  -1.740  0.00  0.00    +0.142 HD
ENDBRANCH   5  11
ENDBRANCH   1   4
BRANCH   1  15
ATOM     14  C   UNL     1       0.314   0.829   0.654  0.00  0.00    +0.157 C 
ATOM     15  N   UNL     1       0.144  -0.534   0.145  0.00  0.00    -0.206 N 
BRANCH  15  16
ATOM     16  C   UNL     1       0.128  -1.610   1.028  0.00  0.00    +0.051 A 
ATOM     17  C   UNL     1       0.518  -2.873   0.592  0.00  0.00    +0.026 A 
ATOM     18  C   UNL     1       0.503  -3.939   1.463  0.00  0.00    +0.021 A 
ATOM     19  C   UNL     1       0.094  -3.752   2.787  0.00  0.00    +0.052 A 
ATOM     20  C   UNL     1      -0.298  -2.482   3.221  0.00  0.00    +0.021 A 
ATOM     21  C   UNL     1      -0.275  -1.420   2.347  0.00  0.00    +0.026 A 
BRANCH  19  22
ATOM     22  C   UNL     1       0.076  -4.859   3.695  0.00  0.00    +0.099 C 
ATOM     23  N   UNL     1       0.062  -5.737   4.416  0.00  0.00    -0.191 NA
ENDBRANCH  19  22
ENDBRANCH  15  16
ENDBRANCH   1  15
TORSDOF 5
