REMARK  Name = ZINC14457544
REMARK  7 active torsions:
REMARK  status: ('A' for Active; 'I' for Inactive)
REMARK    1  A    between atoms: C_1  and  N_2
REMARK    2  A    between atoms: N_2  and  C_3
REMARK    3  A    between atoms: C_9  and  C_11
REMARK    4  A    between atoms: C_24  and  C_27
REMARK    5  A    between atoms: C_30  and  O_34
REMARK    6  A    between atoms: C_31  and  O_33
REMARK    7  A    between atoms: O_34  and  C_35
REMARK                            x       y       z     vdW  Elec       q    Type
REMARK                         _______ _______ _______ _____ _____    ______ ____
ROOT
ATOM      1  C   UNL     1       3.847   5.158   0.218  0.00  0.00    +0.038 A 
ATOM      2  C   UNL     1       4.962   4.318   0.294  0.00  0.00    +0.015 A 
ATOM      3  C   UNL     1       6.223   4.864   0.320  0.00  0.00    +0.024 A 
ATOM      4  C   UNL     1       6.390   6.247   0.271  0.00  0.00    +0.031 A 
ATOM      5  C   UNL     1       5.289   7.091   0.197  0.00  0.00    -0.019 A 
ATOM      6  C   UNL     1       4.020   6.542   0.164  0.00  0.00    +0.019 A 
ATOM      7  C   UNL     1       5.425   8.580   0.145  0.00  0.00    +0.049 C 
ATOM      8  C   UNL     1       5.170   9.109  -1.247  0.00  0.00    -0.023 C 
ATOM      9  C   UNL     1       5.963  10.121  -1.500  0.00  0.00    -0.030 C 
ATOM     10  C   UNL     1       6.854  10.409  -0.307  0.00  0.00    +0.033 C 
ATOM     11  C   UNL     1       6.850   9.064   0.478  0.00  0.00    +0.029 C 
ATOM     12  C   UNL     1       7.880   8.134  -0.171  0.00  0.00    +0.105 C 
ATOM     13  N   UNL     1       7.678   6.777   0.296  0.00  0.00    -0.336 N 
ATOM     14  H   UNL     1       8.424   6.252   0.625  0.00  0.00    +0.147 HD
ENDROOT
BRANCH  12  15
ATOM     15  C   UNL     1       7.707   8.156  -1.668  0.00  0.00    -0.023 A 
ATOM     16  C   UNL     1       6.831   7.274  -2.274  0.00  0.00    +0.009 A 
ATOM     17  C   UNL     1       6.665   7.294  -3.646  0.00  0.00    +0.050 A 
ATOM     18  C   UNL     1       7.385   8.191  -4.418  0.00  0.00    +0.161 A 
ATOM     19  C   UNL     1       8.270   9.075  -3.809  0.00  0.00    +0.159 A 
ATOM     20  C   UNL     1       8.428   9.054  -2.433  0.00  0.00    +0.054 A 
BRANCH  19  21
ATOM     21  O   UNL     1       8.979   9.958  -4.563  0.00  0.00    -0.503 OA
ATOM     22  H   UNL     1       9.833   9.620  -4.864  0.00  0.00    +0.292 HD
ENDBRANCH  19  21
BRANCH  18  23
ATOM     23  O   UNL     1       7.226   8.208  -5.769  0.00  0.00    -0.491 OA
ATOM     24  C   UNL     1       6.300   7.273  -6.326  0.00  0.00    +0.277 C 
ENDBRANCH  18  23
ENDBRANCH  12  15
BRANCH   1  27
ATOM     25  C   UNL     1       3.359   2.615   1.331  0.00  0.00    +0.138 C 
ATOM     26  N   UNL     1       2.271   3.347   0.679  0.00  0.00    -0.271 N 
ATOM     27  C   UNL     1       2.489   4.583   0.187  0.00  0.00    +0.251 C 
ATOM     28  O   UNL     1       1.568   5.223  -0.281  0.00  0.00    -0.270 OA
BRANCH  26  29
ATOM     29  C   UNL     1       1.004   2.764   0.566  0.00  0.00    +0.036 A 
ATOM     30  C   UNL     1      -0.064   3.508   0.082  0.00  0.00    +0.023 A 
ATOM     31  C   UNL     1      -1.313   2.929  -0.028  0.00  0.00    +0.002 A 
ATOM     32  C   UNL     1      -1.501   1.610   0.344  0.00  0.00    +0.000 A 
ATOM     33  C   UNL     1      -0.439   0.867   0.827  0.00  0.00    +0.002 A 
ATOM     34  C   UNL     1       0.812   1.440   0.939  0.00  0.00    +0.023 A 
ENDBRANCH  26  29
ENDBRANCH   1  27
TORSDOF 5
