REMARK  Name = ZINC23882658
REMARK  4 active torsions:
REMARK  status: ('A' for Active; 'I' for Inactive)
REMARK    1  A    between atoms: C_1  and  C_2
REMARK    2  A    between atoms: C_2  and  C_22
REMARK    3  A    between atoms: N_5  and  C_9
REMARK    4  A    between atoms: C_9  and  N_10
REMARK                            x       y       z     vdW  Elec       q    Type
REMARK                         _______ _______ _______ _____ _____    ______ ____
ROOT
ATOM      1  C   UNL     1      -3.025   7.541  -2.201  0.00  0.00    +0.047 C 
ATOM      2  C   UNL     1      -1.886   8.563  -2.241  0.00  0.00    +0.136 C 
ATOM      3  C   UNL     1      -0.691   8.061  -1.456  0.00  0.00    +0.252 C 
ATOM      4  O   UNL     1      -0.649   7.800  -0.273  0.00  0.00    -0.272 OA
ATOM      5  N   UNL     1       0.316   7.965  -2.347  0.00  0.00    -0.210 N 
ATOM      6  C   UNL     1      -0.072   8.338  -3.572  0.00  0.00    +0.311 C 
ATOM      7  O   UNL     1       0.661   8.340  -4.541  0.00  0.00    -0.252 OA
ATOM      8  N   UNL     1      -1.366   8.705  -3.612  0.00  0.00    -0.281 N 
ATOM      9  H   UNL     1      -2.027   9.057  -4.418  0.00  0.00    +0.152 HD
ENDROOT
BRANCH   2  10
ATOM     10  C   UNL     1      -2.351   9.893  -1.707  0.00  0.00    -0.008 A 
ATOM     11  C   UNL     1      -2.305  11.002  -2.496  0.00  0.00    +0.007 A 
ATOM     12  C   UNL     1      -2.731  12.240  -2.020  0.00  0.00    +0.001 A 
ATOM     13  C   UNL     1      -3.205  12.377  -0.751  0.00  0.00    +0.008 A 
ATOM     14  C   UNL     1      -3.268  11.256   0.093  0.00  0.00    -0.018 A 
ATOM     15  C   UNL     1      -2.840   9.995  -0.394  0.00  0.00    -0.012 A 
ATOM     16  C   UNL     1      -2.897   8.875   0.453  0.00  0.00    +0.009 A 
ATOM     17  C   UNL     1      -3.371   9.012   1.721  0.00  0.00    +0.001 A 
ATOM     18  C   UNL     1      -3.797  10.251   2.197  0.00  0.00    +0.001 A 
ATOM     19  C   UNL     1      -3.751  11.359   1.409  0.00  0.00    +0.008 A 
ENDBRANCH   2  10
BRANCH   5  20
ATOM     20  C   UNL     1       1.669   7.515  -2.014  0.00  0.00    +0.205 C 
BRANCH  20  21
ATOM     21  N   UNL     1       1.754   6.057  -2.176  0.00  0.00    -0.283 NA
ATOM     22  C   UNL     1       2.818   5.494  -1.333  0.00  0.00    +0.105 C 
ATOM     23  C   UNL     1       2.927   3.990  -1.591  0.00  0.00    +0.123 C 
ATOM     24  N   UNL     1       1.636   3.351  -1.301  0.00  0.00    -0.297 N 
ATOM     25  C   UNL     1       0.572   3.914  -2.144  0.00  0.00    +0.123 C 
ATOM     26  C   UNL     1       0.463   5.419  -1.887  0.00  0.00    +0.105 C 
ATOM     27  C   UNL     1       1.716   1.978  -1.454  0.00  0.00    +0.218 A 
ATOM     28  N   UNL     1       0.639   1.238  -1.232  0.00  0.00    -0.223 NA
ATOM     29  C   UNL     1       0.681  -0.076  -1.370  0.00  0.00    +0.116 A 
ATOM     30  C   UNL     1       1.870  -0.678  -1.752  0.00  0.00    +0.039 A 
ATOM     31  C   UNL     1       2.978   0.125  -1.976  0.00  0.00    +0.116 A 
ATOM     32  N   UNL     1       2.867   1.434  -1.820  0.00  0.00    -0.223 NA
ENDBRANCH  20  21
ENDBRANCH   5  20
TORSDOF 3
