REMARK  Name = ZINC11567246
REMARK  5 active torsions:
REMARK  status: ('A' for Active; 'I' for Inactive)
REMARK    1  A    between atoms: C_1  and  C_2
REMARK    2  A    between atoms: C_4  and  C_23
REMARK    3  A    between atoms: C_8  and  C_22
REMARK    4  A    between atoms: C_10  and  N_12
REMARK    5  A    between atoms: C_15  and  C_17
REMARK                            x       y       z     vdW  Elec       q    Type
REMARK                         _______ _______ _______ _____ _____    ______ ____
ROOT
ATOM      1  C   UNL     1      -2.957  11.977   0.660  0.00  0.00    +0.044 C 
ATOM      2  C   UNL     1      -2.107  10.733   0.618  0.00  0.00    -0.050 A 
ATOM      3  C   UNL     1      -0.802  10.775   1.105  0.00  0.00    +0.008 A 
ATOM      4  C   UNL     1      -0.008   9.670   1.083  0.00  0.00    -0.024 A 
ATOM      5  C   UNL     1      -0.507   8.464   0.561  0.00  0.00    +0.077 A 
ATOM      6  C   UNL     1      -1.834   8.423   0.066  0.00  0.00    +0.004 A 
ATOM      7  C   UNL     1      -2.624   9.583   0.106  0.00  0.00    +0.013 A 
ATOM      8  C   UNL     1      -2.334   7.215  -0.457  0.00  0.00    -0.038 A 
ATOM      9  C   UNL     1      -1.512   6.126  -0.465  0.00  0.00    +0.052 A 
ATOM     10  C   UNL     1      -0.210   6.231   0.039  0.00  0.00    +0.155 A 
ATOM     11  N   UNL     1       0.249   7.362   0.531  0.00  0.00    -0.228 NA
ATOM     12  C   UNL     1      -3.739   7.127  -0.994  0.00  0.00    +0.044 C 
ATOM     13  C   UNL     1       1.400   9.739   1.615  0.00  0.00    +0.046 C 
ENDROOT
BRANCH  10  14
ATOM     14  N   UNL     1       0.619   5.108   0.024  0.00  0.00    -0.218 N 
ATOM     15  C   UNL     1       1.980   5.143   0.010  0.00  0.00    +0.051 A 
ATOM     16  C   UNL     1       2.408   3.862   0.005  0.00  0.00    +0.008 A 
ATOM     17  C   UNL     1       1.238   3.066   0.007  0.00  0.00    +0.177 A 
ATOM     18  N   UNL     1       0.209   3.890   0.021  0.00  0.00    -0.158 NA
ATOM     19  C   UNL     1       3.916   3.808  -0.002  0.00  0.00    +0.040 C 
ATOM     20  C   UNL     1       4.369   5.220   0.434  0.00  0.00    +0.011 C 
ATOM     21  C   UNL     1       3.162   6.087   0.003  0.00  0.00    +0.056 C 
BRANCH  17  22
ATOM     22  C   UNL     1       1.181   1.591  -0.001  0.00  0.00    +0.406 C 
ATOM     23  O   UNL     1       2.209   0.943  -0.014  0.00  0.00    -0.239 OA
ATOM     24  O   UNL     1      -0.011   0.963   0.007  0.00  0.00    -0.239 OA
ENDBRANCH  17  22
ENDBRANCH  10  14
TORSDOF 2
