REMARK  Name = ZINC13639673
REMARK  4 active torsions:
REMARK  status: ('A' for Active; 'I' for Inactive)
REMARK    1  A    between atoms: C_1  and  C_2
REMARK    2  A    between atoms: C_4  and  O_33
REMARK    3  A    between atoms: C_22  and  C_25
REMARK    4  A    between atoms: C_26  and  C_27
REMARK                            x       y       z     vdW  Elec       q    Type
REMARK                         _______ _______ _______ _____ _____    ______ ____
ROOT
ATOM      1  C   UNL     1      -5.785   3.058   0.042  0.00  0.00    +0.066 C 
ATOM      2  C   UNL     1      -4.673   2.042   0.032  0.00  0.00    +0.047 A 
ATOM      3  C   UNL     1      -4.961   0.690   0.025  0.00  0.00    +0.090 A 
ATOM      4  C   UNL     1      -3.901  -0.216   0.015  0.00  0.00    +0.217 A 
ATOM      5  N   UNL     1      -2.657   0.247   0.013  0.00  0.00    -0.176 NA
ATOM      6  C   UNL     1      -2.422   1.550   0.020  0.00  0.00    +0.256 A 
ATOM      7  N   UNL     1      -3.408   2.434   0.034  0.00  0.00    -0.216 NA
ATOM      8  N   UNL     1      -1.109   2.000   0.018  0.00  0.00    -0.182 N 
ATOM      9  C   UNL     1      -0.014   1.212   0.009  0.00  0.00    +0.284 A 
ATOM     10  O   UNL     1       0.002  -0.004   0.002  0.00  0.00    -0.265 OA
ATOM     11  C   UNL     1       1.156   2.104   0.002  0.00  0.00    +0.089 A 
ATOM     12  C   UNL     1       2.529   1.889  -0.014  0.00  0.00    -0.019 A 
ATOM     13  C   UNL     1       3.365   3.011  -0.011  0.00  0.00    +0.040 A 
ATOM     14  C   UNL     1       2.800   4.292   0.002  0.00  0.00    +0.124 A 
ATOM     15  N   UNL     1       1.494   4.455   0.014  0.00  0.00    -0.235 NA
ATOM     16  C   UNL     1       0.659   3.424   0.015  0.00  0.00    +0.159 A 
ATOM     17  N   UNL     1      -0.715   3.341   0.027  0.00  0.00    -0.270 N 
ATOM     18  H   UNL     1      -1.319   4.100   0.036  0.00  0.00    +0.189 HD
ATOM     19  C   UNL     1       4.826   2.841  -0.020  0.00  0.00    +0.165 C 
ATOM     20  O   UNL     1       5.569   3.776   0.193  0.00  0.00    -0.292 OA
ATOM     21  C   UNL     1       5.370   1.456  -0.303  0.00  0.00    +0.087 C 
ATOM     22  C   UNL     1       4.514   0.455   0.483  0.00  0.00    +0.023 C 
ATOM     23  C   UNL     1       3.079   0.493  -0.039  0.00  0.00    +0.044 C 
ENDROOT
BRANCH  22  24
ATOM     24  C   UNL     1       5.075  -0.933   0.308  0.00  0.00    -0.022 C 
ATOM     25  C   UNL     1       5.484  -1.620   1.365  0.00  0.00    +0.004 C 
BRANCH  25  26
ATOM     26  C   UNL     1       6.035  -2.981   1.194  0.00  0.00    -0.025 A 
ATOM     27  C   UNL     1       6.120  -3.547  -0.079  0.00  0.00    +0.008 A 
ATOM     28  C   UNL     1       6.641  -4.816  -0.233  0.00  0.00    +0.001 A 
ATOM     29  C   UNL     1       7.067  -5.531   0.873  0.00  0.00    +0.000 A 
ATOM     30  C   UNL     1       6.980  -4.977   2.138  0.00  0.00    +0.001 A 
ATOM     31  C   UNL     1       6.467  -3.708   2.304  0.00  0.00    +0.008 A 
ENDBRANCH  25  26
ENDBRANCH  22  24
BRANCH   4  32
ATOM     32  O   UNL     1      -4.138  -1.550   0.008  0.00  0.00    -0.492 OA
ATOM     33  H   UNL     1      -4.203  -1.943   0.890  0.00  0.00    +0.294 HD
ENDBRANCH   4  32
TORSDOF 3
