REMARK  Name = ZINC09439927
REMARK  4 active torsions:
REMARK  status: ('A' for Active; 'I' for Inactive)
REMARK    1  A    between atoms: C_8  and  C_20
REMARK    2  A    between atoms: N_10  and  S_12
REMARK    3  A    between atoms: S_12  and  C_15
REMARK    4  A    between atoms: N_22  and  C_23
REMARK                            x       y       z     vdW  Elec       q    Type
REMARK                         _______ _______ _______ _____ _____    ______ ____
ROOT
ATOM      1  C   UNL     1      12.367  -1.889   2.250  0.00  0.00    +0.000 A 
ATOM      2  C   UNL     1      12.773  -3.029   1.581  0.00  0.00    +0.000 A 
ATOM      3  C   UNL     1      11.891  -3.682   0.745  0.00  0.00    +0.005 A 
ATOM      4  C   UNL     1      10.599  -3.205   0.572  0.00  0.00    -0.028 A 
ATOM      5  C   UNL     1      10.190  -2.076   1.245  0.00  0.00    -0.041 A 
ATOM      6  C   UNL     1      11.082  -1.416   2.082  0.00  0.00    +0.004 A 
ATOM      7  C   UNL     1       8.796  -1.517   1.133  0.00  0.00    +0.065 C 
ATOM      8  C   UNL     1       8.107  -2.024  -0.134  0.00  0.00    +0.170 C 
ATOM      9  N   UNL     1       8.312  -3.480  -0.208  0.00  0.00    -0.160 NA
ATOM     10  C   UNL     1       9.689  -3.960  -0.365  0.00  0.00    +0.145 C 
ENDROOT
BRANCH   8  11
ATOM     11  C   UNL     1       6.633  -1.719  -0.069  0.00  0.00    +0.236 C 
ATOM     12  O   UNL     1       6.062  -1.710   1.001  0.00  0.00    -0.274 OA
ATOM     13  N   UNL     1       5.949  -1.456  -1.200  0.00  0.00    -0.284 N 
ATOM     14  H   UNL     1       6.386  -1.542  -2.062  0.00  0.00    +0.155 HD
BRANCH  13  15
ATOM     15  C   UNL     1       4.607  -1.058  -1.131  0.00  0.00    +0.036 A 
ATOM     16  C   UNL     1       3.737  -1.372  -2.169  0.00  0.00    +0.025 A 
ATOM     17  C   UNL     1       2.414  -0.984  -2.107  0.00  0.00    +0.029 A 
ATOM     18  C   UNL     1       1.950  -0.279  -1.006  0.00  0.00    +0.067 A 
ATOM     19  C   UNL     1       2.822   0.038   0.038  0.00  0.00    +0.069 A 
ATOM     20  C   UNL     1       4.150  -0.353  -0.028  0.00  0.00    +0.051 A 
ATOM     21  N   UNL     1       2.079   0.738   0.986  0.00  0.00    -0.306 N 
ATOM     22  H   UNL     1       2.416   1.090   1.824  0.00  0.00    +0.170 HD
ATOM     23  C   UNL     1       0.813   0.843   0.540  0.00  0.00    +0.325 A 
ATOM     24  O   UNL     1      -0.093   1.402   1.129  0.00  0.00    -0.247 OA
ATOM     25  N   UNL     1       0.703   0.240  -0.659  0.00  0.00    -0.306 N 
ATOM     26  H   UNL     1      -0.106   0.177  -1.191  0.00  0.00    +0.170 HD
ENDBRANCH  13  15
ENDBRANCH   8  11
BRANCH   9  27
ATOM     27  S   UNL     1       7.038  -4.534  -0.120  0.00  0.00    +0.068 S 
ATOM     28  O   UNL     1       7.566  -5.773   0.334  0.00  0.00    -0.152 OA
ATOM     29  O   UNL     1       5.995  -3.854   0.566  0.00  0.00    -0.152 OA
BRANCH  27  30
ATOM     30  C   UNL     1       6.468  -4.803  -1.765  0.00  0.00    +0.143 A 
ATOM     31  C   UNL     1       6.942  -5.657  -2.704  0.00  0.00    +0.036 A 
ATOM     32  C   UNL     1       6.330  -5.699  -3.943  0.00  0.00    +0.010 A 
ATOM     33  C   UNL     1       5.273  -4.885  -4.182  0.00  0.00    +0.047 A 
ATOM     34  S   UNL     1       5.111  -4.025  -2.626  0.00  0.00    -0.077 S 
ENDBRANCH  27  30
ENDBRANCH   9  27
TORSDOF 4
