REMARK  Name = ZINC42512081
REMARK  7 active torsions:
REMARK  status: ('A' for Active; 'I' for Inactive)
REMARK    1  A    between atoms: C_3  and  C_17
REMARK    2  A    between atoms: C_4  and  N_8
REMARK    3  A    between atoms: N_8  and  C_9
REMARK    4  A    between atoms: N_8  and  C_12
REMARK    5  A    between atoms: C_9  and  C_10
REMARK    6  A    between atoms: C_10  and  O_11
REMARK    7  A    between atoms: C_17  and  N_18
REMARK                            x       y       z     vdW  Elec       q    Type
REMARK                         _______ _______ _______ _____ _____    ______ ____
ROOT
ATOM      1  C   UNL     1       0.058   1.423  -0.603  0.00  0.00    +0.015 A 
ATOM      2  C   UNL     1       1.268   2.036  -0.335  0.00  0.00    +0.004 A 
ATOM      3  C   UNL     1       2.398   1.273  -0.117  0.00  0.00    -0.044 A 
ATOM      4  C   UNL     1       2.318  -0.113  -0.166  0.00  0.00    +0.032 A 
ATOM      5  C   UNL     1       1.101  -0.727  -0.434  0.00  0.00    +0.038 A 
ATOM      6  C   UNL     1      -0.026   0.043  -0.652  0.00  0.00    +0.020 A 
ATOM      7 BR   UNL     1      -1.683  -0.791  -1.018  0.00  0.00    -0.050 Br
ENDROOT
BRANCH   4   8
ATOM      8  N   UNL     1       3.459  -0.888   0.054  0.00  0.00    -0.324 N 
BRANCH   8   9
ATOM      9  C   UNL     1       3.862  -1.228   1.421  0.00  0.00    +0.074 C 
ATOM     10  C   UNL     1       5.349  -0.877   1.636  0.00  0.00    +0.022 C 
ATOM     11  C   UNL     1       5.880  -2.015   2.542  0.00  0.00    +0.002 C 
ATOM     12  C   UNL     1       5.143  -3.261   1.993  0.00  0.00    +0.002 C 
ATOM     13  C   UNL     1       3.731  -2.744   1.648  0.00  0.00    +0.022 C 
ENDBRANCH   8   9
BRANCH   8  14
ATOM     14  C   UNL     1       4.253  -1.361  -1.083  0.00  0.00    +0.133 C 
BRANCH  14  15
ATOM     15  C   UNL     1       3.631  -2.642  -1.642  0.00  0.00    +0.174 C 
BRANCH  15  16
ATOM     16  O   UNL     1       2.346  -2.346  -2.194  0.00  0.00    -0.393 OA
ATOM     17  H   UNL     1       1.892  -3.113  -2.568  0.00  0.00    +0.209 HD
ENDBRANCH  15  16
ENDBRANCH  14  15
ENDBRANCH   8  14
ENDBRANCH   4   8
BRANCH   3  18
ATOM     18  C   UNL     1       3.716   1.943   0.173  0.00  0.00    -0.049 C 
BRANCH  18  19
ATOM     19  N   UNL     1       4.515   2.006  -1.058  0.00  0.00    +0.381 N 
ATOM     20  H   UNL     1       5.418   2.405  -0.853  0.00  0.00    -0.090 HD
ATOM     21  H   UNL     1       4.635   1.075  -1.429  0.00  0.00    -0.090 HD
ATOM     22  H   UNL     1       4.040   2.580  -1.738  0.00  0.00    -0.090 HD
ENDBRANCH  18  19
ENDBRANCH   3  18
TORSDOF 7
