REMARK  Name = ZINC11821872
REMARK  3 active torsions:
REMARK  status: ('A' for Active; 'I' for Inactive)
REMARK    1  A    between atoms: C_11  and  C_29
REMARK    2  A    between atoms: C_16  and  C_18
REMARK    3  A    between atoms: C_23  and  N_24
REMARK                            x       y       z     vdW  Elec       q    Type
REMARK                         _______ _______ _______ _____ _____    ______ ____
ROOT
ATOM      1  C   UNL     1       0.062   1.471  -0.874  0.00  0.00    +0.001 A 
ATOM      2  C   UNL     1       1.259   2.174  -0.866  0.00  0.00    +0.002 A 
ATOM      3  C   UNL     1       2.461   1.512  -0.742  0.00  0.00    +0.026 A 
ATOM      4  C   UNL     1       2.478   0.127  -0.625  0.00  0.00    +0.047 A 
ATOM      5  C   UNL     1       1.262  -0.583  -0.634  0.00  0.00    +0.003 A 
ATOM      6  C   UNL     1       0.056   0.110  -0.760  0.00  0.00    +0.010 A 
ATOM      7  C   UNL     1       1.620  -1.992  -0.496  0.00  0.00    -0.015 A 
ATOM      8  C   UNL     1       2.963  -2.056  -0.414  0.00  0.00    +0.047 A 
ATOM      9  N   UNL     1       3.490  -0.799  -0.491  0.00  0.00    -0.356 N 
ATOM     10  H   UNL     1       4.437  -0.589  -0.456  0.00  0.00    +0.166 HD
ATOM     11  C   UNL     1       3.727  -3.353  -0.255  0.00  0.00    +0.172 C 
ATOM     12  N   UNL     1       2.779  -4.455  -0.493  0.00  0.00    -0.283 N 
ATOM     13  C   UNL     1       1.448  -4.378   0.129  0.00  0.00    +0.114 C 
ATOM     14  C   UNL     1       0.693  -3.179  -0.456  0.00  0.00    +0.056 C 
ATOM     15  C   UNL     1       3.122  -5.507  -1.262  0.00  0.00    +0.249 C 
ATOM     16  O   UNL     1       4.194  -5.516  -1.836  0.00  0.00    -0.270 OA
ENDROOT
BRANCH  15  17
ATOM     17  C   UNL     1       2.196  -6.647  -1.409  0.00  0.00    +0.062 A 
ATOM     18  C   UNL     1       0.916  -6.450  -1.930  0.00  0.00    +0.015 A 
ATOM     19  C   UNL     1       0.056  -7.519  -2.065  0.00  0.00    +0.001 A 
ATOM     20  C   UNL     1       0.457  -8.790  -1.685  0.00  0.00    +0.002 A 
ATOM     21  C   UNL     1       1.720  -8.999  -1.169  0.00  0.00    +0.028 A 
ATOM     22  C   UNL     1       2.600  -7.935  -1.031  0.00  0.00    +0.077 A 
BRANCH  22  23
ATOM     23  N   UNL     1       3.880  -8.146  -0.514  0.00  0.00    -0.239 N 
ATOM     24  C   UNL     1       4.442  -9.351  -0.233  0.00  0.00    +0.114 A 
ATOM     25  C   UNL     1       5.685  -9.121   0.248  0.00  0.00    +0.041 A 
ATOM     26  C   UNL     1       5.893  -7.737   0.262  0.00  0.00    +0.135 A 
ATOM     27  N   UNL     1       4.817  -7.154  -0.198  0.00  0.00    -0.175 NA
ENDBRANCH  22  23
ENDBRANCH  15  17
BRANCH  11  28
ATOM     28  C   UNL     1       4.286  -3.449   1.141  0.00  0.00    +0.068 A 
ATOM     29  C   UNL     1       3.998  -4.556   1.918  0.00  0.00    +0.025 A 
ATOM     30  C   UNL     1       4.518  -4.635   3.200  0.00  0.00    +0.003 A 
ATOM     31  C   UNL     1       5.312  -3.593   3.656  0.00  0.00    +0.020 A 
ATOM     32  C   UNL     1       5.556  -2.519   2.823  0.00  0.00    +0.111 A 
ATOM     33  N   UNL     1       5.049  -2.479   1.606  0.00  0.00    -0.258 NA
ENDBRANCH  11  28
TORSDOF 3
