REMARK  Name = ZINC09602659
REMARK  11 active torsions:
REMARK  status: ('A' for Active; 'I' for Inactive)
REMARK    1  A    between atoms: C_1  and  C_2
REMARK    2  A    between atoms: C_5  and  N_8
REMARK    3  A    between atoms: C_9  and  C_31
REMARK    4  A    between atoms: C_11  and  C_17
REMARK    5  A    between atoms: C_17  and  O_19
REMARK    6  A    between atoms: O_19  and  C_20
REMARK    7  A    between atoms: C_20  and  C_21
REMARK    8  A    between atoms: N_26  and  C_27
REMARK    9  A    between atoms: C_27  and  C_28
REMARK   10  A    between atoms: C_27  and  C_29
REMARK   11  A    between atoms: C_27  and  C_30
REMARK                            x       y       z     vdW  Elec       q    Type
REMARK                         _______ _______ _______ _____ _____    ______ ____
ROOT
ATOM      1  N   UNL     1      -1.907   5.986   3.725  0.00  0.00    -0.263 N 
ATOM      2  C   UNL     1      -1.710   5.261   2.476  0.00  0.00    +0.132 C 
ATOM      3  C   UNL     1      -1.715   3.752   2.727  0.00  0.00    +0.124 C 
ATOM      4  C   UNL     1      -0.741   3.437   3.869  0.00  0.00    +0.026 C 
ATOM      5  C   UNL     1      -1.300   4.034   5.162  0.00  0.00    +0.097 C 
ATOM      6  C   UNL     1      -1.708   5.461   4.934  0.00  0.00    +0.220 C 
ATOM      7  O   UNL     1      -1.866   6.175   5.902  0.00  0.00    -0.275 OA
ENDROOT
BRANCH   1  12
ATOM      8  C   UNL     1      -3.629  11.383   3.420  0.00  0.00    +0.044 C 
ATOM      9  C   UNL     1      -3.172   9.950   3.501  0.00  0.00    -0.050 A 
ATOM     10  C   UNL     1      -4.010   8.987   4.033  0.00  0.00    +0.005 A 
ATOM     11  C   UNL     1      -3.594   7.673   4.109  0.00  0.00    +0.024 A 
ATOM     12  C   UNL     1      -2.332   7.317   3.649  0.00  0.00    +0.037 A 
ATOM     13  C   UNL     1      -1.491   8.287   3.120  0.00  0.00    +0.024 A 
ATOM     14  C   UNL     1      -1.915   9.600   3.042  0.00  0.00    +0.005 A 
ENDBRANCH   1  12
BRANCH   2  15
ATOM     15  C   UNL     1      -2.817   5.610   1.516  0.00  0.00    +0.011 A 
ATOM     16  C   UNL     1      -2.733   5.986   0.216  0.00  0.00    +0.013 A 
ATOM     17  C   UNL     1      -3.897   6.257  -0.479  0.00  0.00    +0.008 A 
ATOM     18  C   UNL     1      -5.086   6.150   0.162  0.00  0.00    +0.045 A 
ATOM     19  S   UNL     1      -4.580   5.644   1.797  0.00  0.00    -0.100 S 
ENDBRANCH   2  15
BRANCH   3  20
ATOM     20  C   UNL     1      -1.281   3.030   1.478  0.00  0.00    +0.313 C 
ATOM     21  O   UNL     1      -1.000   3.658   0.484  0.00  0.00    -0.250 OA
BRANCH  20  22
ATOM     22  O   UNL     1      -1.205   1.690   1.469  0.00  0.00    -0.455 OA
BRANCH  22  23
ATOM     23  C   UNL     1      -0.779   1.062   0.231  0.00  0.00    +0.328 C 
BRANCH  23  24
ATOM     24  C   UNL     1      -0.754  -0.434   0.410  0.00  0.00    +0.258 C 
ATOM     25  O   UNL     1      -1.064  -0.923   1.475  0.00  0.00    -0.272 OA
ATOM     26  N   UNL     1      -0.387  -1.229  -0.615  0.00  0.00    -0.237 N 
ATOM     27  C   UNL     1      -0.364  -2.567  -0.455  0.00  0.00    +0.306 C 
ATOM     28  O   UNL     1      -0.675  -3.057   0.613  0.00  0.00    -0.252 OA
ATOM     29  N   UNL     1       0.003  -3.362  -1.480  0.00  0.00    -0.294 N 
ATOM     30  H   UNL     1      -0.138  -0.838  -1.467  0.00  0.00    +0.159 HD
ATOM     31  H   UNL     1       0.252  -2.971  -2.332  0.00  0.00    +0.151 HD
BRANCH  29  32
ATOM     32  C   UNL     1       0.028  -4.816  -1.306  0.00  0.00    +0.028 C 
ATOM     33  C   UNL     1      -1.373  -5.310  -0.940  0.00  0.00    +0.031 C 
ATOM     34  C   UNL     1       0.476  -5.478  -2.611  0.00  0.00    +0.031 C 
ATOM     35  C   UNL     1       1.006  -5.180  -0.187  0.00  0.00    +0.031 C 
ENDBRANCH  29  32
ENDBRANCH  23  24
ENDBRANCH  22  23
ENDBRANCH  20  22
ENDBRANCH   3  20
TORSDOF 7
