REMARK  Name = ZINC04479692
REMARK  5 active torsions:
REMARK  status: ('A' for Active; 'I' for Inactive)
REMARK    1  A    between atoms: C_1  and  C_2
REMARK    2  A    between atoms: C_2  and  C_4
REMARK    3  A    between atoms: C_2  and  N_10
REMARK    4  A    between atoms: N_13  and  C_14
REMARK    5  A    between atoms: N_19  and  C_21
REMARK                            x       y       z     vdW  Elec       q    Type
REMARK                         _______ _______ _______ _____ _____    ______ ____
ROOT
ATOM      1  C   UNL     1       5.101   3.961   0.346  0.00  0.00    +0.101 C 
ATOM      2  C   UNL     1       5.869   2.655   0.037  0.00  0.00    +0.120 C 
ATOM      3  C   UNL     1       4.803   1.582   0.063  0.00  0.00    +0.222 C 
ATOM      4  O   UNL     1       5.018   0.391   0.146  0.00  0.00    -0.275 OA
ATOM      5  N   UNL     1       3.583   2.140  -0.020  0.00  0.00    -0.269 N 
ATOM      6  C   UNL     1       3.672   3.602  -0.124  0.00  0.00    +0.136 C 
ENDROOT
BRANCH   5   7
ATOM      7  C   UNL     1       2.382   1.420  -0.013  0.00  0.00    +0.040 A 
ATOM      8  C   UNL     1       1.168   2.093   0.018  0.00  0.00    +0.027 A 
ATOM      9  C   UNL     1      -0.017   1.383   0.025  0.00  0.00    +0.051 A 
ATOM     10  C   UNL     1       0.002  -0.004   0.002  0.00  0.00    +0.162 A 
ATOM     11  C   UNL     1       1.216  -0.681  -0.030  0.00  0.00    +0.164 A 
ATOM     12  C   UNL     1       2.405   0.032  -0.036  0.00  0.00    +0.073 A 
ATOM     13  O   UNL     1       1.254  -2.041  -0.057  0.00  0.00    -0.485 OA
ATOM     14  C   UNL     1       0.057  -2.727   0.328  0.00  0.00    +0.270 C 
ATOM     15  C   UNL     1      -1.128  -2.061  -0.385  0.00  0.00    +0.270 C 
ATOM     16  O   UNL     1      -1.176  -0.687   0.014  0.00  0.00    -0.485 OA
ENDBRANCH   5   7
BRANCH   1  20
ATOM     17  N   UNL     1       6.184   5.221   3.626  0.00  0.00    -0.293 N 
ATOM     18  C   UNL     1       6.160   4.947   2.306  0.00  0.00    +0.300 C 
ATOM     19  O   UNL     1       7.069   5.321   1.591  0.00  0.00    -0.253 OA
ATOM     20  N   UNL     1       5.128   4.258   1.780  0.00  0.00    -0.295 N 
ATOM     21  H   UNL     1       5.459   4.922   4.197  0.00  0.00    +0.151 HD
ATOM     22  H   UNL     1       4.403   3.959   2.351  0.00  0.00    +0.151 HD
BRANCH  17  24
ATOM     23  C   UNL     1       7.051   7.470   4.040  0.00  0.00    +0.033 C 
ATOM     24  C   UNL     1       7.306   5.969   4.198  0.00  0.00    +0.102 C 
BRANCH  24  25
ATOM     25  C   UNL     1       7.441   5.633   5.660  0.00  0.00    -0.027 A 
ATOM     26  C   UNL     1       6.311   5.494   6.444  0.00  0.00    +0.005 A 
ATOM     27  C   UNL     1       6.434   5.181   7.785  0.00  0.00    +0.000 A 
ATOM     28  C   UNL     1       7.688   5.018   8.345  0.00  0.00    +0.000 A 
ATOM     29  C   UNL     1       8.818   5.162   7.562  0.00  0.00    +0.000 A 
ATOM     30  C   UNL     1       8.694   5.470   6.220  0.00  0.00    +0.005 A 
ENDBRANCH  24  25
ENDBRANCH  17  24
ENDBRANCH   1  20
TORSDOF 4
