REMARK  Name = ZINC32089651
REMARK  8 active torsions:
REMARK  status: ('A' for Active; 'I' for Inactive)
REMARK    1  A    between atoms: C_1  and  C_2
REMARK    2  A    between atoms: C_5  and  N_9
REMARK    3  A    between atoms: C_7  and  C_8
REMARK    4  A    between atoms: C_16  and  O_18
REMARK    5  A    between atoms: N_25  and  C_28
REMARK    6  A    between atoms: C_28  and  C_29
REMARK    7  A    between atoms: C_29  and  C_30
REMARK    8  A    between atoms: C_29  and  C_31
REMARK                            x       y       z     vdW  Elec       q    Type
REMARK                         _______ _______ _______ _____ _____    ______ ____
ROOT
ATOM      1  N   UNL     1       0.059  -4.171  -0.021  0.00  0.00    -0.214 N 
ATOM      2  C   UNL     1      -0.557  -4.972  -0.920  0.00  0.00    +0.164 A 
ATOM      3  C   UNL     1      -0.287  -6.285  -0.549  0.00  0.00    +0.036 A 
ATOM      4  C   UNL     1       0.507  -6.252   0.581  0.00  0.00    +0.142 A 
ATOM      5  N   UNL     1       0.725  -4.996   0.900  0.00  0.00    -0.173 NA
ATOM      6  C   UNL     1      -0.837  -7.444  -1.333  0.00  0.00    +0.112 C 
ATOM      7  C   UNL     1      -1.026  -7.008  -2.785  0.00  0.00    +0.121 C 
ATOM      8  C   UNL     1      -1.591  -5.619  -2.870  0.00  0.00    +0.191 C 
ATOM      9  N   UNL     1      -1.336  -4.686  -2.002  0.00  0.00    -0.197 NA
ATOM     10  C   UNL     1      -2.117  -7.943  -0.745  0.00  0.00    -0.006 A 
ATOM     11  C   UNL     1      -3.333  -7.327  -0.544  0.00  0.00    +0.007 A 
ATOM     12  C   UNL     1      -4.339  -8.090   0.040  0.00  0.00    +0.000 A 
ATOM     13  C   UNL     1      -4.124  -9.405   0.402  0.00  0.00    +0.002 A 
ATOM     14  C   UNL     1      -2.904 -10.031   0.203  0.00  0.00    +0.024 A 
ATOM     15  C   UNL     1      -1.886  -9.276  -0.382  0.00  0.00    +0.041 A 
ATOM     16  N   UNL     1      -0.588  -9.642  -0.694  0.00  0.00    -0.270 N 
ATOM     17  C   UNL     1       0.102  -8.627  -1.256  0.00  0.00    +0.235 C 
ATOM     18  O   UNL     1       1.256  -8.659  -1.630  0.00  0.00    -0.274 OA
ENDROOT
BRANCH   1  23
ATOM     19  C   UNL     1      -0.018   1.503   0.010  0.00  0.00    +0.044 C 
ATOM     20  C   UNL     1       0.002  -0.004   0.002  0.00  0.00    -0.047 A 
ATOM     21  C   UNL     1       0.006  -0.688  -1.200  0.00  0.00    +0.006 A 
ATOM     22  C   UNL     1       0.025  -2.068  -1.211  0.00  0.00    +0.028 A 
ATOM     23  C   UNL     1       0.040  -2.771  -0.013  0.00  0.00    +0.068 A 
ATOM     24  C   UNL     1       0.037  -2.082   1.192  0.00  0.00    +0.031 A 
ATOM     25  C   UNL     1       0.023  -0.700   1.196  0.00  0.00    -0.046 A 
ATOM     26  C   UNL     1       0.025   0.049   2.504  0.00  0.00    +0.044 C 
ENDBRANCH   1  23
BRANCH   8  27
ATOM     27  O   UNL     1      -2.404  -5.323  -3.905  0.00  0.00    -0.495 OA
ATOM     28  H   UNL     1      -2.732  -4.413  -3.900  0.00  0.00    +0.293 HD
ENDBRANCH   8  27
BRANCH  16  29
ATOM     29  C   UNL     1      -0.029 -10.972  -0.441  0.00  0.00    +0.116 C 
BRANCH  29  30
ATOM     30  C   UNL     1      -0.269 -11.866  -1.660  0.00  0.00    +0.001 C 
ATOM     31  C   UNL     1       0.422 -13.214  -1.448  0.00  0.00    +0.009 C 
ATOM     32  C   UNL     1      -1.772 -12.086  -1.843  0.00  0.00    +0.009 C 
ENDBRANCH  29  30
ENDBRANCH  16  29
TORSDOF 4
