REMARK  Name = ZINC03506113
REMARK  8 active torsions:
REMARK  status: ('A' for Active; 'I' for Inactive)
REMARK    1  A    between atoms: C_1  and  C_2
REMARK    2  A    between atoms: C_3  and  N_11
REMARK    3  A    between atoms: C_7  and  N_8
REMARK    4  A    between atoms: C_12  and  C_14
REMARK    5  A    between atoms: C_14  and  S_15
REMARK    6  A    between atoms: S_15  and  C_16
REMARK    7  A    between atoms: C_19  and  C_22
REMARK    8  A    between atoms: N_20  and  C_21
REMARK                            x       y       z     vdW  Elec       q    Type
REMARK                         _______ _______ _______ _____ _____    ______ ____
ROOT
ATOM      1  N   UNL     1       3.301   2.361   0.221  0.00  0.00    -0.285 N 
ATOM      2  C   UNL     1       1.962   2.222   0.290  0.00  0.00    +0.227 C 
ATOM      3  O   UNL     1       1.256   3.202   0.397  0.00  0.00    -0.275 OA
ATOM      4  H   UNL     1       3.937   1.482   0.037  0.00  0.00    +0.155 HD
ENDROOT
BRANCH   1   7
ATOM      5  C   UNL     1       5.845   2.516   1.487  0.00  0.00    +0.048 C 
ATOM      6  C   UNL     1       5.124   3.744   0.995  0.00  0.00    +0.001 A 
ATOM      7  C   UNL     1       3.883   3.623   0.382  0.00  0.00    +0.038 A 
ATOM      8  C   UNL     1       3.219   4.758  -0.065  0.00  0.00    +0.024 A 
ATOM      9  C   UNL     1       3.796   6.002   0.097  0.00  0.00    +0.004 A 
ATOM     10  C   UNL     1       5.034   6.119   0.702  0.00  0.00    +0.033 A 
ATOM     11  C   UNL     1       5.698   4.991   1.148  0.00  0.00    +0.131 A 
BRANCH  11  12
ATOM     12  N   UNL     1       7.023   5.120   1.795  0.00  0.00    +0.057 N 
ATOM     13  O   UNL     1       7.471   6.224   2.050  0.00  0.00    -0.126 OA
ATOM     14  O   UNL     1       7.665   4.123   2.071  0.00  0.00    -0.126 OA
ENDBRANCH  11  12
ENDBRANCH   1   7
BRANCH   2  15
ATOM     15  C   UNL     1       1.343   0.849   0.236  0.00  0.00    +0.173 C 
BRANCH  15  16
ATOM     16  S   UNL     1      -0.457   0.995   0.352  0.00  0.00    -0.077 S 
BRANCH  16  17
ATOM     17  C   UNL     1      -0.907  -0.707   0.266  0.00  0.00    +0.192 A 
ATOM     18  N   UNL     1      -0.086  -1.726   0.145  0.00  0.00    -0.122 NA
ATOM     19  N   UNL     1      -0.749  -2.826   0.117  0.00  0.00    -0.128 NA
ATOM     20  C   UNL     1      -2.034  -2.577   0.209  0.00  0.00    +0.165 A 
ATOM     21  N   UNL     1      -2.175  -1.212   0.307  0.00  0.00    -0.305 N 
ATOM     22  C   UNL     1      -3.425  -0.458   0.431  0.00  0.00    +0.153 C 
BRANCH  20  23
ATOM     23  C   UNL     1      -3.125  -3.575   0.207  0.00  0.00    +0.019 A 
ATOM     24  C   UNL     1      -2.853  -4.911   0.509  0.00  0.00    +0.011 A 
ATOM     25  C   UNL     1      -3.877  -5.836   0.509  0.00  0.00    +0.001 A 
ATOM     26  C   UNL     1      -5.168  -5.445   0.201  0.00  0.00    +0.000 A 
ATOM     27  C   UNL     1      -5.442  -4.124  -0.104  0.00  0.00    +0.001 A 
ATOM     28  C   UNL     1      -4.429  -3.188  -0.103  0.00  0.00    +0.011 A 
ENDBRANCH  20  23
ENDBRANCH  16  17
ENDBRANCH  15  16
ENDBRANCH   2  15
TORSDOF 6
