REMARK  Name = ZINC52496026
REMARK  5 active torsions:
REMARK  status: ('A' for Active; 'I' for Inactive)
REMARK    1  A    between atoms: C_4  and  C_22
REMARK    2  A    between atoms: C_5  and  C_7
REMARK    3  A    between atoms: C_7  and  N_8
REMARK    4  A    between atoms: C_15  and  C_17
REMARK    5  A    between atoms: C_22  and  N_23
REMARK                            x       y       z     vdW  Elec       q    Type
REMARK                         _______ _______ _______ _____ _____    ______ ____
ROOT
ATOM      1  N   UNL     1       1.490  -2.679   1.334  0.00  0.00    -0.295 N 
ATOM      2  C   UNL     1       1.553  -4.004   1.569  0.00  0.00    +0.306 C 
ATOM      3  O   UNL     1       1.394  -4.791   0.656  0.00  0.00    -0.252 OA
ATOM      4  N   UNL     1       1.793  -4.457   2.815  0.00  0.00    -0.247 N 
ATOM      5  C   UNL     1       1.858  -5.826   3.057  0.00  0.00    +0.189 A 
ATOM      6  N   UNL     1       1.723  -6.846   2.221  0.00  0.00    -0.125 NA
ATOM      7  N   UNL     1       1.812  -8.042   2.609  0.00  0.00    -0.140 NA
ATOM      8  C   UNL     1       2.047  -8.352   3.878  0.00  0.00    +0.134 A 
ATOM      9  S   UNL     1       2.157  -6.711   4.585  0.00  0.00    -0.030 S 
ATOM     10  H   UNL     1       1.617  -2.051   2.063  0.00  0.00    +0.151 HD
ATOM     11  H   UNL     1       1.920  -3.830   3.543  0.00  0.00    +0.158 HD
ENDROOT
BRANCH   8  12
ATOM     12  C   UNL     1       2.185  -9.675   4.523  0.00  0.00    +0.016 A 
ATOM     13  C   UNL     1       2.074 -10.847   3.778  0.00  0.00    +0.018 A 
ATOM     14  C   UNL     1       2.207 -12.038   4.404  0.00  0.00    +0.046 A 
ATOM     15  S   UNL     1       2.498 -11.547   6.095  0.00  0.00    -0.104 S 
ATOM     16  C   UNL     1       2.431  -9.778   5.866  0.00  0.00    +0.055 A 
ENDBRANCH   8  12
BRANCH   1  17
ATOM     17  C   UNL     1       1.229  -2.186  -0.020  0.00  0.00    +0.141 C 
BRANCH  17  22
ATOM     18  C   UNL     1      -0.017   1.378   0.010  0.00  0.00    +0.000 A 
ATOM     19  C   UNL     1       1.171   2.085   0.002  0.00  0.00    +0.000 A 
ATOM     20  C   UNL     1       2.377   1.411  -0.013  0.00  0.00    +0.006 A 
ATOM     21  C   UNL     1       2.396   0.028  -0.020  0.00  0.00    -0.021 A 
ATOM     22  C   UNL     1       1.209  -0.679  -0.012  0.00  0.00    -0.025 A 
ATOM     23  C   UNL     1       0.002  -0.004   0.002  0.00  0.00    +0.005 A 
BRANCH  21  24
ATOM     24  C   UNL     1       3.711  -0.707  -0.038  0.00  0.00    +0.180 C 
BRANCH  24  25
ATOM     25  N   UNL     1       4.064  -1.044  -1.419  0.00  0.00    -0.248 N 
ATOM     26  C   UNL     1       5.207  -0.736  -2.056  0.00  0.00    +0.219 A 
ATOM     27  N   UNL     1       5.135  -1.214  -3.272  0.00  0.00    -0.223 NA
ATOM     28  C   UNL     1       3.967  -1.830  -3.447  0.00  0.00    +0.245 A 
ATOM     29  N   UNL     1       3.278  -1.757  -2.339  0.00  0.00    -0.158 NA
ENDBRANCH  24  25
ENDBRANCH  21  24
ENDBRANCH  17  22
ENDBRANCH   1  17
TORSDOF 5
