REMARK  Name = ZINC14506449
REMARK  11 active torsions:
REMARK  status: ('A' for Active; 'I' for Inactive)
REMARK    1  A    between atoms: C_1  and  C_2
REMARK    2  A    between atoms: C_10  and  C_11
REMARK    3  A    between atoms: C_11  and  C_12
REMARK    4  A    between atoms: N_14  and  C_15
REMARK    5  A    between atoms: N_14  and  C_22
REMARK    6  A    between atoms: C_15  and  C_16
REMARK    7  A    between atoms: C_23  and  N_35
REMARK    8  A    between atoms: N_24  and  C_31
REMARK    9  A    between atoms: C_31  and  C_32
REMARK   10  A    between atoms: C_32  and  O_33
REMARK   11  A    between atoms: O_33  and  C_34
REMARK                            x       y       z     vdW  Elec       q    Type
REMARK                         _______ _______ _______ _____ _____    ______ ____
ROOT
ATOM      1  C   UNL     1      -2.304  -2.820  -4.469  0.00  0.00    +0.225 C 
ATOM      2  O   UNL     1      -1.689  -3.169  -3.483  0.00  0.00    -0.275 OA
ATOM      3  N   UNL     1      -2.627  -1.520  -4.637  0.00  0.00    -0.260 N 
ENDROOT
BRANCH   3   4
ATOM      4  C   UNL     1      -2.349  -0.586  -3.617  0.00  0.00    +0.140 A 
ATOM      5  C   UNL     1      -3.376   0.024  -2.926  0.00  0.00    +0.127 A 
ATOM      6  N   UNL     1      -3.073   0.931  -1.937  0.00  0.00    -0.278 N 
ATOM      7  C   UNL     1      -1.792   1.223  -1.650  0.00  0.00    +0.331 A 
ATOM      8  O   UNL     1      -1.545   2.031  -0.775  0.00  0.00    -0.246 OA
ATOM      9  N   UNL     1      -0.778   0.635  -2.309  0.00  0.00    -0.273 N 
ATOM     10  H   UNL     1       0.165   0.864  -2.072  0.00  0.00    +0.173 HD
ATOM     11  C   UNL     1      -1.020  -0.261  -3.287  0.00  0.00    +0.277 A 
ATOM     12  O   UNL     1      -0.094  -0.785  -3.882  0.00  0.00    -0.266 OA
BRANCH   5  13
ATOM     13  N   UNL     1      -4.685  -0.271  -3.222  0.00  0.00    -0.343 N 
ATOM     14  H   UNL     1      -5.400   0.104  -2.684  0.00  0.00    +0.144 HD
ATOM     15  H   UNL     1      -4.894  -0.853  -3.969  0.00  0.00    +0.144 HD
ENDBRANCH   5  13
BRANCH   6  16
ATOM     16  C   UNL     1      -4.153   1.587  -1.195  0.00  0.00    +0.156 C 
BRANCH  16  17
ATOM     17  C   UNL     1      -4.510   0.749   0.035  0.00  0.00    +0.181 C 
BRANCH  17  18
ATOM     18  O   UNL     1      -3.397   0.722   0.931  0.00  0.00    -0.381 OA
ATOM     19  C   UNL     1      -3.627  -0.039   2.119  0.00  0.00    +0.194 C 
ENDBRANCH  17  18
ENDBRANCH  16  17
ENDBRANCH   6  16
ENDBRANCH   3   4
BRANCH   1  20
ATOM     20  C   UNL     1      -2.707  -3.837  -5.505  0.00  0.00    +0.135 C 
BRANCH  20  30
ATOM     21  C   UNL     1      -4.754  -9.211  -1.712  0.00  0.00    +0.044 C 
ATOM     22  C   UNL     1      -4.193  -8.106  -2.570  0.00  0.00    -0.047 A 
ATOM     23  C   UNL     1      -4.920  -6.937  -2.745  0.00  0.00    +0.004 A 
ATOM     24  C   UNL     1      -4.426  -5.925  -3.520  0.00  0.00    +0.012 A 
ATOM     25  C   UNL     1      -3.184  -6.070  -4.137  0.00  0.00    +0.024 A 
ATOM     26  C   UNL     1      -2.445  -7.252  -3.966  0.00  0.00    +0.135 A 
ATOM     27  C   UNL     1      -2.967  -8.270  -3.178  0.00  0.00    +0.050 A 
ATOM     28  O   UNL     1      -1.299  -7.112  -4.662  0.00  0.00    -0.463 OA
ATOM     29  C   UNL     1      -1.254  -5.917  -5.276  0.00  0.00    +0.200 A 
ATOM     30  C   UNL     1      -2.366  -5.219  -5.011  0.00  0.00    +0.007 A 
ENDBRANCH  20  30
ENDBRANCH   1  20
BRANCH   3  31
ATOM     31  C   UNL     1      -3.266  -1.080  -5.880  0.00  0.00    +0.149 C 
BRANCH  31  32
ATOM     32  C   UNL     1      -2.217  -0.551  -6.824  0.00  0.00    -0.030 A 
ATOM     33  C   UNL     1      -1.818   0.770  -6.744  0.00  0.00    +0.005 A 
ATOM     34  C   UNL     1      -0.852   1.253  -7.607  0.00  0.00    +0.000 A 
ATOM     35  C   UNL     1      -0.294   0.418  -8.557  0.00  0.00    +0.000 A 
ATOM     36  C   UNL     1      -0.697  -0.901  -8.640  0.00  0.00    +0.000 A 
ATOM     37  C   UNL     1      -1.659  -1.386  -7.774  0.00  0.00    +0.005 A 
ENDBRANCH  31  32
ENDBRANCH   3  31
TORSDOF 9
