REMARK  Name = ZINC00225615
REMARK  7 active torsions:
REMARK  status: ('A' for Active; 'I' for Inactive)
REMARK    1  A    between atoms: C_1  and  C_2
REMARK    2  A    between atoms: C_2  and  N_3
REMARK    3  A    between atoms: N_6  and  C_14
REMARK    4  A    between atoms: C_7  and  C_12
REMARK    5  A    between atoms: C_7  and  O_13
REMARK    6  A    between atoms: C_9  and  C_10
REMARK    7  A    between atoms: C_9  and  C_11
REMARK                            x       y       z     vdW  Elec       q    Type
REMARK                         _______ _______ _______ _____ _____    ______ ____
ROOT
ATOM      1  N   UNL     1      -1.966   1.187   2.013  0.00  0.00    -0.280 N 
ATOM      2  C   UNL     1      -2.735   2.093   2.637  0.00  0.00    +0.312 C 
ATOM      3  O   UNL     1      -3.688   1.703   3.284  0.00  0.00    -0.252 OA
ATOM      4  N   UNL     1      -2.493   3.411   2.575  0.00  0.00    -0.227 N 
ATOM      5  C   UNL     1      -1.356   3.942   1.823  0.00  0.00    +0.140 C 
ATOM      6  C   UNL     1      -1.035   2.995   0.661  0.00  0.00    +0.080 C 
ATOM      7  C   UNL     1      -0.799   1.591   1.227  0.00  0.00    +0.037 C 
ATOM      8  C   UNL     1      -0.591   0.605   0.077  0.00  0.00    +0.031 C 
ATOM      9  C   UNL     1       0.441   1.602   2.123  0.00  0.00    +0.031 C 
ATOM     10  C   UNL     1      -1.706   5.326   1.272  0.00  0.00    +0.064 C 
ENDROOT
BRANCH   4  11
ATOM     11  C   UNL     1      -3.347   4.296   3.244  0.00  0.00    +0.042 A 
ATOM     12  C   UNL     1      -3.018   4.755   4.513  0.00  0.00    +0.025 A 
ATOM     13  C   UNL     1      -3.858   5.633   5.168  0.00  0.00    +0.023 A 
ATOM     14  C   UNL     1      -5.033   6.048   4.567  0.00  0.00    +0.059 A 
ATOM     15  C   UNL     1      -5.367   5.588   3.305  0.00  0.00    +0.061 A 
ATOM     16  C   UNL     1      -4.526   4.713   2.642  0.00  0.00    +0.045 A 
ATOM     17 CL   UNL     1      -6.843   6.109   2.553  0.00  0.00    -0.082 Cl
ATOM     18 CL   UNL     1      -6.091   7.147   5.397  0.00  0.00    -0.082 Cl
ENDBRANCH   4  11
BRANCH   1  20
ATOM     19  C   UNL     1      -1.590  -0.839   3.331  0.00  0.00    +0.024 C 
ATOM     20  C   UNL     1      -2.302  -0.235   2.119  0.00  0.00    +0.106 C 
ENDBRANCH   1  20
BRANCH   5  21
ATOM     21  O   UNL     1      -0.220   4.044   2.683  0.00  0.00    -0.371 OA
ATOM     22  H   UNL     1      -0.352   4.629   3.442  0.00  0.00    +0.212 HD
ENDBRANCH   5  21
TORSDOF 3
