REMARK  Name = ZINC39688785
REMARK  8 active torsions:
REMARK  status: ('A' for Active; 'I' for Inactive)
REMARK    1  A    between atoms: C_1  and  C_2
REMARK    2  A    between atoms: C_7  and  C_8
REMARK    3  A    between atoms: C_8  and  C_9
REMARK    4  A    between atoms: C_13  and  C_22
REMARK    5  A    between atoms: N_24  and  C_25
REMARK    6  A    between atoms: C_25  and  C_27
REMARK    7  A    between atoms: C_25  and  C_28
REMARK    8  A    between atoms: C_28  and  C_29
REMARK                            x       y       z     vdW  Elec       q    Type
REMARK                         _______ _______ _______ _____ _____    ______ ____
ROOT
ATOM      1  C   UNL     1      -0.929   0.230   3.059  0.00  0.00    +0.220 C 
ATOM      2  O   UNL     1      -1.741  -0.217   2.277  0.00  0.00    -0.275 OA
ATOM      3  N   UNL     1      -1.341   0.945   4.124  0.00  0.00    -0.300 N 
ATOM      4  C   UNL     1      -0.507   1.571   5.176  0.00  0.00    +0.121 C 
ATOM      5  C   UNL     1      -1.190   2.928   5.460  0.00  0.00    +0.100 C 
ATOM      6  C   UNL     1      -2.651   2.731   5.022  0.00  0.00    -0.004 C 
ATOM      7  C   UNL     1      -2.733   1.288   4.505  0.00  0.00    +0.115 C 
ATOM      8  C   UNL     1      -3.002   3.707   3.902  0.00  0.00    -0.010 C 
ATOM      9  C   UNL     1      -4.475   3.531   3.523  0.00  0.00    -0.082 C 
ATOM     10  N   UNL     1      -5.318   3.779   4.699  0.00  0.00    +0.379 N 
ATOM     11  C   UNL     1      -5.039   2.779   5.736  0.00  0.00    -0.082 C 
ATOM     12  C   UNL     1      -3.589   2.923   6.209  0.00  0.00    -0.010 C 
ATOM     13  H   UNL     1      -5.125   4.701   5.061  0.00  0.00    -0.086 HD
ATOM     14  H   UNL     1      -6.290   3.723   4.432  0.00  0.00    -0.086 HD
ENDROOT
BRANCH   5  15
ATOM     15  C   UNL     1      -0.540   4.022   4.653  0.00  0.00    +0.218 C 
ATOM     16  O   UNL     1      -0.094   3.779   3.551  0.00  0.00    -0.275 OA
ATOM     17  N   UNL     1      -0.454   5.270   5.155  0.00  0.00    -0.312 N 
ATOM     18  H   UNL     1      -0.810   5.463   6.036  0.00  0.00    +0.149 HD
BRANCH  17  19
ATOM     19  C   UNL     1       0.178   6.333   4.370  0.00  0.00    +0.074 C 
ATOM     20  C   UNL     1       1.692   6.298   4.590  0.00  0.00    +0.028 C 
BRANCH  19  21
ATOM     21  C   UNL     1      -0.370   7.690   4.815  0.00  0.00    +0.057 C 
BRANCH  21  22
ATOM     22  C   UNL     1      -1.839   7.771   4.487  0.00  0.00    -0.045 A 
ATOM     23  C   UNL     1      -2.246   8.262   3.260  0.00  0.00    +0.006 A 
ATOM     24  C   UNL     1      -3.592   8.336   2.957  0.00  0.00    +0.038 A 
ATOM     25  C   UNL     1      -4.534   7.918   3.883  0.00  0.00    +0.123 A 
ATOM     26  C   UNL     1      -4.125   7.426   5.111  0.00  0.00    +0.038 A 
ATOM     27  C   UNL     1      -2.777   7.348   5.409  0.00  0.00    +0.006 A 
ATOM     28  F   UNL     1      -5.850   7.990   3.588  0.00  0.00    -0.205 F 
ENDBRANCH  21  22
ENDBRANCH  19  21
ENDBRANCH  17  19
ENDBRANCH   5  15
BRANCH   1  29
ATOM     29  C   UNL     1       0.542  -0.015   2.840  0.00  0.00    +0.131 C 
BRANCH  29  36
ATOM     30  C   UNL     1       0.657   1.288   0.264  0.00  0.00    +0.044 C 
ATOM     31  C   UNL     1       0.789  -0.210   0.357  0.00  0.00    -0.047 A 
ATOM     32  C   UNL     1       0.971  -0.961  -0.790  0.00  0.00    +0.003 A 
ATOM     33  C   UNL     1       1.092  -2.335  -0.705  0.00  0.00    +0.000 A 
ATOM     34  C   UNL     1       1.032  -2.959   0.528  0.00  0.00    +0.000 A 
ATOM     35  C   UNL     1       0.851  -2.208   1.674  0.00  0.00    +0.004 A 
ATOM     36  C   UNL     1       0.734  -0.833   1.589  0.00  0.00    -0.036 A 
ENDBRANCH  29  36
ENDBRANCH   1  29
TORSDOF 6
