REMARK  Name = ZINC66589149
REMARK  7 active torsions:
REMARK  status: ('A' for Active; 'I' for Inactive)
REMARK    1  A    between atoms: C_1  and  C_2
REMARK    2  A    between atoms: C_5  and  C_22
REMARK    3  A    between atoms: C_7  and  S_8
REMARK    4  A    between atoms: S_8  and  N_11
REMARK    5  A    between atoms: N_11  and  N_12
REMARK    6  A    between atoms: C_13  and  C_15
REMARK    7  A    between atoms: C_15  and  C_16
REMARK                            x       y       z     vdW  Elec       q    Type
REMARK                         _______ _______ _______ _____ _____    ______ ____
ROOT
ATOM      1  S   UNL     1      -0.055  -0.054   2.733  0.00  0.00    +0.074 S 
ATOM      2  O   UNL     1      -1.267   0.688   2.774  0.00  0.00    -0.152 OA
ATOM      3  O   UNL     1       0.215  -1.120   3.632  0.00  0.00    -0.152 OA
ENDROOT
BRANCH   1  10
ATOM      4  C   UNL     1       2.259  -1.739   1.771  0.00  0.00    +0.049 C 
ATOM      5  C   UNL     1       1.173  -1.482   0.758  0.00  0.00    +0.011 A 
ATOM      6  C   UNL     1       1.279  -2.015  -0.517  0.00  0.00    +0.129 A 
ATOM      7  C   UNL     1       0.287  -1.783  -1.450  0.00  0.00    +0.053 A 
ATOM      8  C   UNL     1      -0.824  -1.010  -1.104  0.00  0.00    +0.068 A 
ATOM      9  C   UNL     1      -0.923  -0.477   0.183  0.00  0.00    +0.044 A 
ATOM     10  C   UNL     1       0.072  -0.721   1.107  0.00  0.00    +0.113 A 
ATOM     11  F   UNL     1       2.355  -2.762  -0.848  0.00  0.00    -0.205 F 
BRANCH   8  12
ATOM     12  C   UNL     1      -1.888  -0.757  -2.095  0.00  0.00    +0.387 C 
ATOM     13  O   UNL     1      -1.798  -1.225  -3.221  0.00  0.00    -0.241 OA
ATOM     14  O   UNL     1      -2.860  -0.081  -1.789  0.00  0.00    -0.241 OA
ENDBRANCH   8  12
ENDBRANCH   1  10
BRANCH   1  15
ATOM     15  N   UNL     1       1.175   1.040   2.912  0.00  0.00    -0.108 NA
ATOM     16  H   UNL     1       1.835   0.918   3.612  0.00  0.00    +0.172 HD
BRANCH  15  17
ATOM     17  N   UNL     1       1.264   2.141   2.050  0.00  0.00    -0.232 N 
ATOM     18  C   UNL     1       1.312   3.390   2.556  0.00  0.00    +0.228 C 
ATOM     19  O   UNL     1       1.278   3.560   3.756  0.00  0.00    -0.274 OA
ATOM     20  H   UNL     1       1.291   2.006   1.090  0.00  0.00    +0.171 HD
BRANCH  18  21
ATOM     21  C   UNL     1       1.407   4.575   1.630  0.00  0.00    +0.100 C 
BRANCH  21  22
ATOM     22  C   UNL     1       1.446   5.864   2.453  0.00  0.00    -0.002 C 
ATOM     23  C   UNL     1       0.119   6.035   3.194  0.00  0.00    +0.004 C 
ATOM     24  C   UNL     1       0.157   7.325   4.017  0.00  0.00    +0.000 C 
ATOM     25  C   UNL     1       0.380   8.518   3.086  0.00  0.00    +0.000 C 
ATOM     26  C   UNL     1       1.707   8.346   2.345  0.00  0.00    +0.000 C 
ATOM     27  C   UNL     1       1.668   7.057   1.522  0.00  0.00    +0.004 C 
ENDBRANCH  21  22
ENDBRANCH  18  21
ENDBRANCH  15  17
ENDBRANCH   1  15
TORSDOF 6
