REMARK  Name = ZINC39534415
REMARK  12 active torsions:
REMARK  status: ('A' for Active; 'I' for Inactive)
REMARK    1  A    between atoms: C_1  and  C_2
REMARK    2  A    between atoms: C_2  and  C_3
REMARK    3  A    between atoms: C_2  and  S_4
REMARK    4  A    between atoms: S_4  and  C_7
REMARK    5  A    between atoms: C_10  and  C_13
REMARK    6  A    between atoms: C_13  and  C_15
REMARK    7  A    between atoms: C_13  and  N_24
REMARK    8  A    between atoms: C_15  and  N_16
REMARK    9  A    between atoms: N_16  and  C_17
REMARK   10  A    between atoms: C_22  and  O_23
REMARK   11  A    between atoms: C_28  and  C_31
REMARK   12  A    between atoms: C_31  and  C_32
REMARK                            x       y       z     vdW  Elec       q    Type
REMARK                         _______ _______ _______ _____ _____    ______ ____
ROOT
ATOM      1  C   UNL     1      -1.174  -6.580   0.471  0.00  0.00    -0.021 C 
ENDROOT
BRANCH   1   2
ATOM      2  N   UNL     1      -2.018  -6.928   1.622  0.00  0.00    +0.383 N 
ATOM      3  C   UNL     1      -1.840  -8.350   1.948  0.00  0.00    -0.097 C 
ATOM      4  C   UNL     1      -2.719  -8.712   3.147  0.00  0.00    -0.101 C 
ATOM      5  N   UNL     1      -4.127  -8.459   2.815  0.00  0.00    +0.379 N 
ATOM      6  C   UNL     1      -4.306  -7.038   2.490  0.00  0.00    -0.085 C 
ATOM      7  C   UNL     1      -3.427  -6.675   1.291  0.00  0.00    -0.094 C 
ATOM      8  H   UNL     1      -4.393  -9.022   2.021  0.00  0.00    -0.086 HD
ATOM      9  H   UNL     1      -4.707  -8.698   3.606  0.00  0.00    -0.086 HD
ATOM     10  H   UNL     1      -1.753  -6.365   2.416  0.00  0.00    -0.081 HD
BRANCH   6  11
ATOM     11  C   UNL     1      -5.773  -6.774   2.144  0.00  0.00    +0.017 C 
BRANCH  11  12
ATOM     12  C   UNL     1      -6.626  -7.014   3.363  0.00  0.00    -0.049 A 
ATOM     13  C   UNL     1      -7.145  -8.272   3.607  0.00  0.00    +0.003 A 
ATOM     14  C   UNL     1      -7.928  -8.492   4.725  0.00  0.00    +0.000 A 
ATOM     15  C   UNL     1      -8.192  -7.454   5.599  0.00  0.00    +0.000 A 
ATOM     16  C   UNL     1      -7.673  -6.196   5.355  0.00  0.00    +0.000 A 
ATOM     17  C   UNL     1      -6.886  -5.977   4.240  0.00  0.00    +0.003 A 
ENDBRANCH  11  12
ENDBRANCH   6  11
ENDBRANCH   1   2
BRANCH   1  21
ATOM     18  C   UNL     1      -1.780  -2.476  -0.547  0.00  0.00    +0.088 A 
ATOM     19  C   UNL     1      -1.645  -3.423  -1.545  0.00  0.00    +0.027 A 
ATOM     20  C   UNL     1      -1.448  -4.751  -1.216  0.00  0.00    +0.004 A 
ATOM     21  C   UNL     1      -1.387  -5.132   0.112  0.00  0.00    -0.059 A 
ATOM     22  C   UNL     1      -1.522  -4.185   1.110  0.00  0.00    +0.004 A 
ATOM     23  C   UNL     1      -1.714  -2.856   0.780  0.00  0.00    +0.027 A 
BRANCH  18  24
ATOM     24  S   UNL     1      -2.031  -0.783  -0.967  0.00  0.00    -0.001 S 
ATOM     25  O   UNL     1      -2.712  -0.229   0.150  0.00  0.00    -0.169 OA
ATOM     26  O   UNL     1      -2.646  -0.815  -2.248  0.00  0.00    -0.169 OA
BRANCH  24  28
ATOM     27  C   UNL     1      -0.459   1.425  -1.334  0.00  0.00    +0.032 C 
ATOM     28  C   UNL     1      -0.362  -0.083  -1.093  0.00  0.00    +0.130 C 
ATOM     29  C   UNL     1       0.400  -0.343   0.208  0.00  0.00    +0.032 C 
ENDBRANCH  24  28
ENDBRANCH  18  24
ENDBRANCH   1  21
BRANCH   1  30
ATOM     30  C   UNL     1       0.296  -6.806   0.830  0.00  0.00    +0.091 C 
BRANCH  30  31
ATOM     31  N   UNL     1       1.132  -6.538  -0.343  0.00  0.00    -0.342 N 
ATOM     32  H   UNL     1       0.728  -6.208  -1.161  0.00  0.00    +0.146 HD
BRANCH  31  33
ATOM     33  C   UNL     1       2.513  -6.758  -0.283  0.00  0.00    +0.069 A 
ATOM     34  C   UNL     1       3.091  -7.234   0.884  0.00  0.00    +0.026 A 
ATOM     35  C   UNL     1       4.455  -7.451   0.940  0.00  0.00    +0.002 A 
ATOM     36  C   UNL     1       5.246  -7.194  -0.165  0.00  0.00    +0.004 A 
ATOM     37  C   UNL     1       4.676  -6.719  -1.331  0.00  0.00    +0.047 A 
ATOM     38  C   UNL     1       3.309  -6.504  -1.398  0.00  0.00    +0.138 A 
BRANCH  38  39
ATOM     39  O   UNL     1       2.747  -6.041  -2.546  0.00  0.00    -0.505 OA
ATOM     40  H   UNL     1       2.705  -5.077  -2.603  0.00  0.00    +0.292 HD
ENDBRANCH  38  39
ENDBRANCH  31  33
ENDBRANCH  30  31
ENDBRANCH   1  30
TORSDOF 10
