REMARK  Name = ZINC36372014
REMARK  8 active torsions:
REMARK  status: ('A' for Active; 'I' for Inactive)
REMARK    1  A    between atoms: C_1  and  C_2
REMARK    2  A    between atoms: C_5  and  S_8
REMARK    3  A    between atoms: S_8  and  O_11
REMARK    4  A    between atoms: O_11  and  C_12
REMARK    5  A    between atoms: C_16  and  C_39
REMARK    6  A    between atoms: C_29  and  C_38
REMARK    7  A    between atoms: C_34  and  C_35
REMARK    8  A    between atoms: C_35  and  C_37
REMARK                            x       y       z     vdW  Elec       q    Type
REMARK                         _______ _______ _______ _____ _____    ______ ____
ROOT
ATOM      1  C   UNL     1       2.201  -4.513   1.266  0.00  0.00    +0.150 C 
ATOM      2  C   UNL     1       2.967  -3.192   1.263  0.00  0.00    +0.034 C 
ATOM      3  C   UNL     1       4.074  -3.202   0.214  0.00  0.00    +0.010 C 
ATOM      4  C   UNL     1       5.037  -4.372   0.448  0.00  0.00    -0.019 C 
ATOM      5  C   UNL     1       4.228  -5.675   0.401  0.00  0.00    -0.002 C 
ATOM      6  C   UNL     1       3.163  -5.680   1.493  0.00  0.00    +0.038 C 
ATOM      7  C   UNL     1       5.116  -6.909   0.500  0.00  0.00    +0.004 C 
ATOM      8  C   UNL     1       6.150  -6.915  -0.639  0.00  0.00    +0.005 C 
ATOM      9  C   UNL     1       6.967  -5.638  -0.513  0.00  0.00    +0.004 C 
ATOM     10  C   UNL     1       6.047  -4.431  -0.693  0.00  0.00    +0.065 C 
ATOM     11  C   UNL     1       6.872  -3.189  -0.883  0.00  0.00    +0.138 C 
ATOM     12  O   UNL     1       6.793  -2.233  -0.137  0.00  0.00    -0.297 OA
ATOM     13  C   UNL     1       7.832  -3.156  -2.076  0.00  0.00    +0.086 C 
ATOM     14  C   UNL     1       8.070  -4.572  -2.540  0.00  0.00    +0.006 C 
ATOM     15  C   UNL     1       8.195  -5.530  -1.338  0.00  0.00    +0.007 C 
ATOM     16  C   UNL     1       8.733  -6.765  -2.074  0.00  0.00    +0.032 C 
ATOM     17  C   UNL     1       9.747  -6.106  -3.013  0.00  0.00    -0.019 C 
ATOM     18  C   UNL     1       9.367  -4.837  -3.268  0.00  0.00    -0.003 C 
ATOM     19  C   UNL     1       6.957  -5.004  -3.499  0.00  0.00    +0.017 C 
ATOM     20  C   UNL     1       5.732  -4.202   1.793  0.00  0.00    +0.012 C 
ENDROOT
BRANCH  18  21
ATOM     21  C   UNL     1      10.076  -3.875  -4.106  0.00  0.00    +0.156 C 
ATOM     22  O   UNL     1       9.678  -2.732  -4.186  0.00  0.00    -0.293 OA
ATOM     23  C   UNL     1      11.302  -4.302  -4.871  0.00  0.00    +0.091 C 
ENDBRANCH  18  21
BRANCH   1  24
ATOM     24  O   UNL     1       1.529  -4.682   0.016  0.00  0.00    -0.231 OA
BRANCH  24  25
ATOM     25  S   UNL     1       0.083  -4.207   0.021  0.00  0.00    +0.112 S 
ATOM     26  O   UNL     1      -0.461  -4.574   1.282  0.00  0.00    -0.142 OA
ATOM     27  O   UNL     1      -0.489  -4.633  -1.208  0.00  0.00    -0.142 OA
BRANCH  25  32
ATOM     28  C   UNL     1       0.183   1.824  -0.124  0.00  0.00    +0.044 C 
ATOM     29  C   UNL     1       0.158   0.318  -0.088  0.00  0.00    -0.050 A 
ATOM     30  C   UNL     1       0.134  -0.402  -1.268  0.00  0.00    +0.005 A 
ATOM     31  C   UNL     1       0.111  -1.784  -1.235  0.00  0.00    +0.030 A 
ATOM     32  C   UNL     1       0.113  -2.446  -0.021  0.00  0.00    +0.117 A 
ATOM     33  C   UNL     1       0.138  -1.726   1.159  0.00  0.00    +0.030 A 
ATOM     34  C   UNL     1       0.165  -0.345   1.125  0.00  0.00    +0.005 A 
ENDBRANCH  25  32
ENDBRANCH  24  25
ENDBRANCH   1  24
TORSDOF 4
