REMARK  Name = ZINC13222096
REMARK  9 active torsions:
REMARK  status: ('A' for Active; 'I' for Inactive)
REMARK    1  A    between atoms: C_1  and  C_2
REMARK    2  A    between atoms: C_3  and  C_30
REMARK    3  A    between atoms: C_4  and  C_29
REMARK    4  A    between atoms: C_9  and  S_11
REMARK    5  A    between atoms: S_11  and  C_12
REMARK    6  A    between atoms: C_12  and  C_14
REMARK    7  A    between atoms: C_12  and  C_15
REMARK    8  A    between atoms: N_17  and  C_18
REMARK    9  A    between atoms: C_30  and  C_31
REMARK                            x       y       z     vdW  Elec       q    Type
REMARK                         _______ _______ _______ _____ _____    ______ ____
ROOT
ATOM      1  S   UNL     1      -5.623   3.350   4.547  0.00  0.00    -0.072 S 
ENDROOT
BRANCH   1  10
ATOM      2  C   UNL     1      -0.013   1.086   0.008  0.00  0.00    +0.066 C 
ATOM      3  C   UNL     1      -0.718   1.572   1.248  0.00  0.00    +0.047 A 
ATOM      4  C   UNL     1       0.013   1.808   2.418  0.00  0.00    +0.006 A 
ATOM      5  C   UNL     1      -0.636   2.246   3.528  0.00  0.00    +0.049 A 
ATOM      6  N   UNL     1      -1.979   2.444   3.473  0.00  0.00    -0.200 N 
ATOM      7  C   UNL     1      -2.663   2.204   2.314  0.00  0.00    +0.254 A 
ATOM      8  N   UNL     1      -2.016   1.778   1.224  0.00  0.00    -0.216 NA
ATOM      9  N   UNL     1      -3.943   2.479   2.546  0.00  0.00    -0.183 NA
ATOM     10  C   UNL     1      -4.095   2.883   3.805  0.00  0.00    +0.212 A 
ATOM     11  N   UNL     1      -2.924   2.878   4.411  0.00  0.00    -0.137 NA
ATOM     12  C   UNL     1       0.123   2.508   4.803  0.00  0.00    +0.066 C 
BRANCH   4  13
ATOM     13  C   UNL     1       1.502   1.577   2.446  0.00  0.00    +0.163 C 
BRANCH  13  14
ATOM     14  C   UNL     1       2.214   2.845   2.050  0.00  0.00    +0.360 C 
ATOM     15  O   UNL     1       1.577   3.834   1.773  0.00  0.00    -0.246 OA
ATOM     16  O   UNL     1       3.555   2.876   2.005  0.00  0.00    -0.246 OA
ENDBRANCH  13  14
ENDBRANCH   4  13
ENDBRANCH   1  10
BRANCH   1  17
ATOM     17  C   UNL     1      -6.838   3.144   3.216  0.00  0.00    +0.137 C 
ATOM     18  C   UNL     1      -6.934   1.664   2.838  0.00  0.00    +0.029 C 
BRANCH  17  19
ATOM     19  C   UNL     1      -8.185   3.631   3.684  0.00  0.00    +0.227 C 
ATOM     20  O   UNL     1      -8.414   3.730   4.871  0.00  0.00    -0.275 OA
ATOM     21  N   UNL     1      -9.134   3.957   2.785  0.00  0.00    -0.308 N 
ATOM     22  H   UNL     1      -8.951   3.878   1.836  0.00  0.00    +0.149 HD
BRANCH  21  23
ATOM     23  C   UNL     1     -10.444   4.431   3.241  0.00  0.00    +0.103 C 
ATOM     24  C   UNL     1     -11.487   4.141   2.164  0.00  0.00    +0.027 C 
ATOM     25  C   UNL     1     -12.797   4.832   2.562  0.00  0.00    +0.007 C 
ATOM     26  C   UNL     1     -12.606   6.341   2.425  0.00  0.00    +0.035 C 
ATOM     27  C   UNL     1     -11.362   6.785   3.149  0.00  0.00    -0.042 A 
ATOM     28  C   UNL     1     -10.367   5.909   3.520  0.00  0.00    -0.024 A 
ATOM     29  C   UNL     1      -9.242   6.385   4.179  0.00  0.00    +0.006 A 
ATOM     30  C   UNL     1      -9.114   7.729   4.468  0.00  0.00    +0.000 A 
ATOM     31  C   UNL     1     -10.115   8.608   4.099  0.00  0.00    +0.000 A 
ATOM     32  C   UNL     1     -11.233   8.137   3.442  0.00  0.00    +0.004 A 
ENDBRANCH  21  23
ENDBRANCH  17  19
ENDBRANCH   1  17
TORSDOF 6
