REMARK  Name = ZINC01125137
REMARK  4 active torsions:
REMARK  status: ('A' for Active; 'I' for Inactive)
REMARK    1  A    between atoms: C_3  and  N_10
REMARK    2  A    between atoms: C_5  and  N_7
REMARK    3  A    between atoms: C_14  and  C_15
REMARK    4  A    between atoms: N_20  and  C_23
REMARK                            x       y       z     vdW  Elec       q    Type
REMARK                         _______ _______ _______ _____ _____    ______ ____
ROOT
ATOM      1  C   UNL     1       3.048   3.482  -1.957  0.00  0.00    +0.044 C 
ATOM      2  C   UNL     1       1.762   2.972  -2.059  0.00  0.00    +0.104 C 
ATOM      3  C   UNL     1       1.074   2.082  -1.108  0.00  0.00    +0.266 C 
ATOM      4  O   UNL     1       1.528   1.644  -0.068  0.00  0.00    -0.268 OA
ATOM      5  N   UNL     1      -0.153   1.846  -1.610  0.00  0.00    -0.223 N 
ATOM      6  N   UNL     1      -0.323   2.516  -2.822  0.00  0.00    -0.184 N 
ATOM      7  C   UNL     1       0.787   3.210  -3.137  0.00  0.00    +0.272 C 
ATOM      8  O   UNL     1       0.955   3.899  -4.126  0.00  0.00    -0.268 OA
ATOM      9  H   UNL     1      -0.825   1.288  -1.188  0.00  0.00    +0.174 HD
ENDROOT
BRANCH   6  10
ATOM     10  C   UNL     1      -1.485   2.476  -3.599  0.00  0.00    +0.056 A 
ATOM     11  C   UNL     1      -1.546   3.178  -4.796  0.00  0.00    +0.026 A 
ATOM     12  C   UNL     1      -2.696   3.137  -5.561  0.00  0.00    +0.017 A 
ATOM     13  C   UNL     1      -3.785   2.398  -5.135  0.00  0.00    +0.018 A 
ATOM     14  C   UNL     1      -3.727   1.698  -3.943  0.00  0.00    +0.017 A 
ATOM     15  C   UNL     1      -2.579   1.731  -3.177  0.00  0.00    +0.026 A 
ATOM     16 BR   UNL     1      -5.357   2.345  -6.185  0.00  0.00    -0.050 Br
ENDBRANCH   6  10
BRANCH   1  21
ATOM     17  N   UNL     1       3.432   3.615   0.496  0.00  0.00    -0.316 N 
ATOM     18  C   UNL     1       4.419   3.235   1.346  0.00  0.00    +0.092 A 
ATOM     19  C   UNL     1       5.418   2.655   0.632  0.00  0.00    +0.020 A 
ATOM     20  C   UNL     1       5.051   2.667  -0.713  0.00  0.00    +0.027 A 
ATOM     21  C   UNL     1       3.799   3.267  -0.789  0.00  0.00    +0.047 A 
BRANCH  17  24
ATOM     22  C   UNL     1       0.706   6.081   0.642  0.00  0.00    +0.004 A 
ATOM     23  C   UNL     1       1.885   5.459   0.280  0.00  0.00    +0.026 A 
ATOM     24  C   UNL     1       2.237   4.248   0.862  0.00  0.00    +0.049 A 
ATOM     25  C   UNL     1       1.402   3.667   1.807  0.00  0.00    +0.058 A 
ATOM     26  C   UNL     1       0.225   4.294   2.165  0.00  0.00    +0.128 A 
ATOM     27  C   UNL     1      -0.123   5.499   1.584  0.00  0.00    +0.033 A 
BRANCH  26  28
ATOM     28  N   UNL     1      -0.666   3.675   3.172  0.00  0.00    +0.056 N 
ATOM     29  O   UNL     1      -0.363   2.620   3.681  0.00  0.00    -0.126 OA
ATOM     30  O   UNL     1      -1.697   4.223   3.486  0.00  0.00    -0.126 OA
ENDBRANCH  26  28
ENDBRANCH  17  24
ENDBRANCH   1  21
TORSDOF 4
