REMARK  Name = ZINC42942376
REMARK  6 active torsions:
REMARK  status: ('A' for Active; 'I' for Inactive)
REMARK    1  A    between atoms: C_1  and  C_2
REMARK    2  A    between atoms: C_2  and  C_4
REMARK    3  A    between atoms: C_2  and  N_21
REMARK    4  A    between atoms: C_4  and  C_6
REMARK    5  A    between atoms: C_4  and  O_13
REMARK    6  A    between atoms: O_13  and  C_14
REMARK                            x       y       z     vdW  Elec       q    Type
REMARK                         _______ _______ _______ _____ _____    ______ ____
ROOT
ATOM      1  C   UNL     1       0.758  -0.511   1.264  0.00  0.00    +0.189 C 
ENDROOT
BRANCH   1   2
ATOM      2  C   UNL     1       0.187  -0.038   2.576  0.00  0.00    -0.009 A 
ATOM      3  C   UNL     1      -0.828  -0.751   3.185  0.00  0.00    +0.010 A 
ATOM      4  C   UNL     1      -1.352  -0.318   4.388  0.00  0.00    +0.039 A 
ATOM      5  C   UNL     1      -0.859   0.830   4.984  0.00  0.00    +0.123 A 
ATOM      6  C   UNL     1       0.158   1.544   4.373  0.00  0.00    +0.039 A 
ATOM      7  C   UNL     1       0.684   1.106   3.172  0.00  0.00    +0.010 A 
ATOM      8  F   UNL     1      -1.370   1.254   6.160  0.00  0.00    -0.205 F 
ENDBRANCH   1   2
BRANCH   1  10
ATOM      9  C   UNL     1      -0.103   1.551   0.146  0.00  0.00    -0.010 C 
ATOM     10  C   UNL     1      -0.099   0.021   0.114  0.00  0.00    -0.032 C 
BRANCH  10  11
ATOM     11  N   UNL     1       0.457  -0.440  -1.165  0.00  0.00    +0.382 N 
ATOM     12  H   UNL     1       1.402  -0.099  -1.264  0.00  0.00    -0.089 HD
ATOM     13  H   UNL     1       0.460  -1.449  -1.187  0.00  0.00    -0.089 HD
ATOM     14  H   UNL     1      -0.108  -0.089  -1.924  0.00  0.00    -0.089 HD
ENDBRANCH  10  11
ENDBRANCH   1  10
BRANCH   1  15
ATOM     15  O   UNL     1       0.761  -1.940   1.234  0.00  0.00    -0.486 OA
BRANCH  15  16
ATOM     16  C   UNL     1       1.755  -2.539   0.526  0.00  0.00    +0.122 A 
ATOM     17  C   UNL     1       2.754  -1.772  -0.055  0.00  0.00    +0.046 A 
ATOM     18  C   UNL     1       3.764  -2.384  -0.773  0.00  0.00    +0.005 A 
ATOM     19  C   UNL     1       3.779  -3.760  -0.913  0.00  0.00    +0.014 A 
ATOM     20  C   UNL     1       2.783  -4.527  -0.335  0.00  0.00    +0.017 A 
ATOM     21  C   UNL     1       1.775  -3.920   0.390  0.00  0.00    +0.060 A 
ATOM     22  I   UNL     1       2.809  -6.610  -0.550  0.00  0.00    -0.044 I 
ENDBRANCH  15  16
ENDBRANCH   1  15
TORSDOF 5
