REMARK  Name = ZINC22616132
REMARK  9 active torsions:
REMARK  status: ('A' for Active; 'I' for Inactive)
REMARK    1  A    between atoms: C_1  and  C_2
REMARK    2  A    between atoms: C_3  and  C_16
REMARK    3  A    between atoms: C_4  and  C_15
REMARK    4  A    between atoms: C_16  and  C_17
REMARK    5  A    between atoms: C_17  and  C_18
REMARK    6  A    between atoms: N_20  and  N_21
REMARK    7  A    between atoms: C_22  and  C_24
REMARK    8  A    between atoms: C_24  and  C_25
REMARK    9  A    between atoms: N_33  and  C_34
REMARK                            x       y       z     vdW  Elec       q    Type
REMARK                         _______ _______ _______ _____ _____    ______ ____
ROOT
ATOM      1  C   UNL     1      -0.742   1.585  -1.213  0.00  0.00    +0.229 C 
ATOM      2  O   UNL     1      -1.736   2.268  -1.088  0.00  0.00    -0.274 OA
ATOM      3  N   UNL     1      -0.288   1.272  -2.443  0.00  0.00    -0.234 N 
ATOM      4  H   UNL     1       0.614   0.653  -2.556  0.00  0.00    +0.173 HD
ENDROOT
BRANCH   3   5
ATOM      5  N   UNL     1      -0.966   1.736  -3.578  0.00  0.00    -0.234 N 
ATOM      6  C   UNL     1      -0.513   1.424  -4.808  0.00  0.00    +0.236 C 
ATOM      7  O   UNL     1       0.481   0.741  -4.933  0.00  0.00    -0.274 OA
ATOM      8  H   UNL     1      -1.868   2.356  -3.465  0.00  0.00    +0.173 HD
BRANCH   6   9
ATOM      9  C   UNL     1      -1.242   1.923  -6.029  0.00  0.00    +0.171 C 
BRANCH   9  10
ATOM     10  C   UNL     1      -0.536   1.437  -7.269  0.00  0.00    +0.119 A 
ATOM     11  N   UNL     1       0.412   2.078  -7.886  0.00  0.00    -0.232 NA
ATOM     12  C   UNL     1       0.825   1.358  -8.961  0.00  0.00    +0.089 A 
ATOM     13  C   UNL     1       1.794   1.568  -9.947  0.00  0.00    +0.030 A 
ATOM     14  C   UNL     1       1.977   0.636 -10.929  0.00  0.00    +0.002 A 
ATOM     15  C   UNL     1       1.211  -0.520 -10.960  0.00  0.00    +0.002 A 
ATOM     16  C   UNL     1       0.250  -0.748  -9.998  0.00  0.00    +0.028 A 
ATOM     17  C   UNL     1       0.049   0.188  -8.992  0.00  0.00    +0.069 A 
ATOM     18  N   UNL     1      -0.803   0.267  -7.909  0.00  0.00    -0.330 N 
ATOM     19  C   UNL     1      -1.808  -0.726  -7.521  0.00  0.00    +0.150 C 
ENDBRANCH   9  10
ENDBRANCH   6   9
ENDBRANCH   3   5
BRANCH   1  20
ATOM     20  C   UNL     1      -0.013   1.086   0.008  0.00  0.00    +0.102 C 
BRANCH  20  21
ATOM     21  C   UNL     1      -0.729   1.579   1.267  0.00  0.00    +0.048 C 
BRANCH  21  24
ATOM     22  C   UNL     1       1.406   3.167   2.453  0.00  0.00    +0.066 C 
ATOM     23  C   UNL     1       1.026   1.841   3.059  0.00  0.00    +0.045 A 
ATOM     24  C   UNL     1       0.000   1.080   2.488  0.00  0.00    -0.005 A 
ATOM     25  C   UNL     1      -0.335  -0.111   3.048  0.00  0.00    +0.047 A 
ATOM     26  N   UNL     1       0.342  -0.542   4.150  0.00  0.00    -0.217 N 
ATOM     27  C   UNL     1       1.338   0.230   4.677  0.00  0.00    +0.164 A 
ATOM     28  N   UNL     1       1.658   1.400   4.125  0.00  0.00    -0.232 NA
ATOM     29  C   UNL     1       1.846  -0.461   5.798  0.00  0.00    +0.046 A 
ATOM     30  C   UNL     1       2.857  -0.179   6.728  0.00  0.00    +0.014 A 
ATOM     31  C   UNL     1       3.124  -1.065   7.727  0.00  0.00    +0.001 A 
ATOM     32  C   UNL     1       2.405  -2.254   7.840  0.00  0.00    +0.002 A 
ATOM     33  C   UNL     1       1.417  -2.562   6.958  0.00  0.00    +0.030 A 
ATOM     34  C   UNL     1       1.111  -1.671   5.910  0.00  0.00    +0.095 A 
ATOM     35  N   UNL     1       0.221  -1.703   4.922  0.00  0.00    -0.165 NA
ATOM     36  C   UNL     1      -1.440  -0.948   2.457  0.00  0.00    +0.066 C 
ENDBRANCH  21  24
ENDBRANCH  20  21
ENDBRANCH   1  20
TORSDOF 6
