REMARK  Name = ZINC04405329
REMARK  5 active torsions:
REMARK  status: ('A' for Active; 'I' for Inactive)
REMARK    1  A    between atoms: C_1  and  C_2
REMARK    2  A    between atoms: N_6  and  N_7
REMARK    3  A    between atoms: N_8  and  N_9
REMARK    4  A    between atoms: C_10  and  C_11
REMARK    5  A    between atoms: C_16  and  O_17
REMARK                            x       y       z     vdW  Elec       q    Type
REMARK                         _______ _______ _______ _____ _____    ______ ____
ROOT
ATOM      1  N   UNL     1       1.098   2.134   0.003  0.00  0.00    -0.187 NA
ATOM      2  C   UNL     1      -0.018   1.470   0.010  0.00  0.00    +0.142 C 
ENDROOT
BRANCH   1   9
ATOM      3  C   UNL     1       4.418   7.191  -0.001  0.00  0.00    +0.090 C 
ATOM      4  C   UNL     1       3.750   5.840  -0.002  0.00  0.00    +0.149 A 
ATOM      5  N   UNL     1       4.349   4.683  -0.014  0.00  0.00    -0.131 NA
ATOM      6  N   UNL     1       3.479   3.736  -0.005  0.00  0.00    -0.110 NA
ATOM      7  C   UNL     1       2.268   4.244   0.003  0.00  0.00    +0.254 A 
ATOM      8  N   UNL     1       2.404   5.602   0.009  0.00  0.00    -0.220 N 
ATOM      9  N   UNL     1       1.079   3.535   0.011  0.00  0.00    -0.204 N 
ATOM     10  H   UNL     1       0.232   4.008   0.021  0.00  0.00    +0.177 HD
BRANCH   8  11
ATOM     11  N   UNL     1       1.403   6.531   0.023  0.00  0.00    -0.294 N 
ATOM     12  H   UNL     1       1.147   6.772   0.969  0.00  0.00    +0.163 HD
ATOM     13  H   UNL     1       1.664   7.353  -0.501  0.00  0.00    +0.163 HD
ENDBRANCH   8  11
ENDBRANCH   1   9
BRANCH   2  14
ATOM     14  C   UNL     1       0.002  -0.004   0.002  0.00  0.00    +0.038 A 
ATOM     15  C   UNL     1      -1.196  -0.723   0.010  0.00  0.00    +0.028 A 
ATOM     16  C   UNL     1      -1.171  -2.102   0.002  0.00  0.00    +0.020 A 
ATOM     17  C   UNL     1       0.038  -2.778  -0.014  0.00  0.00    +0.034 A 
ATOM     18  C   UNL     1       1.231  -2.078  -0.022  0.00  0.00    +0.061 A 
ATOM     19  C   UNL     1       1.223  -0.692  -0.019  0.00  0.00    +0.139 A 
ATOM     20 BR   UNL     1       2.875  -3.012  -0.044  0.00  0.00    -0.046 Br
ATOM     21 BR   UNL     1      -2.793  -3.074   0.012  0.00  0.00    -0.050 Br
BRANCH  19  22
ATOM     22  O   UNL     1       2.394  -0.003  -0.032  0.00  0.00    -0.505 OA
ATOM     23  H   UNL     1       2.745   0.192   0.848  0.00  0.00    +0.292 HD
ENDBRANCH  19  22
ENDBRANCH   2  14
TORSDOF 4
