REMARK  Name = ZINC49549934
REMARK  4 active torsions:
REMARK  status: ('A' for Active; 'I' for Inactive)
REMARK    1  A    between atoms: C_6  and  N_7
REMARK    2  A    between atoms: C_9  and  C_24
REMARK    3  A    between atoms: C_12  and  C_18
REMARK    4  A    between atoms: C_15  and  O_17
REMARK                            x       y       z     vdW  Elec       q    Type
REMARK                         _______ _______ _______ _____ _____    ______ ____
ROOT
ATOM      1  N   UNL     1      -1.201  -0.722   0.010  0.00  0.00    -0.317 N 
ATOM      2  C   UNL     1      -2.223  -0.505   0.867  0.00  0.00    +0.109 A 
ATOM      3  C   UNL     1      -3.238  -1.402   0.579  0.00  0.00    +0.107 A 
ATOM      4  C   UNL     1      -2.753  -2.203  -0.543  0.00  0.00    +0.103 A 
ATOM      5  C   UNL     1      -1.507  -1.730  -0.847  0.00  0.00    +0.058 A 
ATOM      6  C   UNL     1      -0.701  -2.319  -1.979  0.00  0.00    +0.077 C 
ATOM      7  C   UNL     1      -1.685  -2.846  -3.029  0.00  0.00    +0.109 C 
ATOM      8  C   UNL     1      -2.841  -3.561  -2.394  0.00  0.00    +0.189 C 
ATOM      9  N   UNL     1      -3.331  -3.234  -1.232  0.00  0.00    -0.215 NA
ENDROOT
BRANCH   1  15
ATOM     10  C   UNL     1      -0.017   1.384   0.010  0.00  0.00    +0.027 A 
ATOM     11  C   UNL     1       1.170   2.090   0.002  0.00  0.00    +0.022 A 
ATOM     12  C   UNL     1       2.378   1.414  -0.013  0.00  0.00    +0.041 A 
ATOM     13  C   UNL     1       2.400   0.031  -0.021  0.00  0.00    +0.022 A 
ATOM     14  C   UNL     1       1.215  -0.679  -0.014  0.00  0.00    +0.027 A 
ATOM     15  C   UNL     1       0.002  -0.004   0.002  0.00  0.00    +0.046 A 
ATOM     16 CL   UNL     1       3.869   2.304  -0.022  0.00  0.00    -0.084 Cl
ENDBRANCH   1  15
BRANCH   6  17
ATOM     17  C   UNL     1       0.152  -3.449  -1.464  0.00  0.00    -0.035 A 
ATOM     18  C   UNL     1      -0.425  -4.563  -0.875  0.00  0.00    +0.024 A 
ATOM     19  C   UNL     1       0.389  -5.580  -0.415  0.00  0.00    +0.111 A 
ATOM     20  N   UNL     1       1.700  -5.499  -0.530  0.00  0.00    -0.263 NA
ATOM     21  C   UNL     1       2.284  -4.454  -1.085  0.00  0.00    +0.111 A 
ATOM     22  C   UNL     1       1.534  -3.402  -1.573  0.00  0.00    +0.024 A 
ENDBRANCH   6  17
BRANCH   3  23
ATOM     23  C   UNL     1      -4.531  -1.522   1.259  0.00  0.00    +0.390 C 
ATOM     24  O   UNL     1      -4.804  -0.777   2.191  0.00  0.00    -0.240 OA
ATOM     25  O   UNL     1      -5.338  -2.368   0.894  0.00  0.00    -0.240 OA
ENDBRANCH   3  23
BRANCH   8  26
ATOM     26  O   UNL     1      -3.397  -4.599  -3.054  0.00  0.00    -0.495 OA
ATOM     27  H   UNL     1      -4.136  -5.012  -2.588  0.00  0.00    +0.293 HD
ENDBRANCH   8  26
TORSDOF 4
