REMARK  Name = ZINC00652706
REMARK  6 active torsions:
REMARK  status: ('A' for Active; 'I' for Inactive)
REMARK    1  A    between atoms: C_8  and  C_12
REMARK    2  A    between atoms: C_12  and  C_14
REMARK    3  A    between atoms: C_14  and  S_15
REMARK    4  A    between atoms: S_15  and  C_16
REMARK    5  A    between atoms: C_17  and  C_31
REMARK    6  A    between atoms: C_24  and  C_29
REMARK                            x       y       z     vdW  Elec       q    Type
REMARK                         _______ _______ _______ _____ _____    ______ ____
ROOT
ATOM      1  C   UNL     1       0.174   0.961   2.735  0.00  0.00    +0.082 C 
ATOM      2  C   UNL     1      -0.114   1.160   4.051  0.00  0.00    +0.065 C 
ATOM      3  C   UNL     1       0.765   0.557   5.117  0.00  0.00    +0.032 C 
ATOM      4  C   UNL     1       0.305  -0.872   5.409  0.00  0.00    +0.014 C 
ATOM      5  C   UNL     1       1.199  -1.484   6.489  0.00  0.00    +0.001 C 
ATOM      6  C   UNL     1       1.103  -0.646   7.766  0.00  0.00    +0.000 C 
ATOM      7  C   UNL     1       1.562   0.783   7.473  0.00  0.00    +0.001 C 
ATOM      8  C   UNL     1       0.668   1.395   6.393  0.00  0.00    +0.014 C 
ATOM      9  C   UNL     1       2.215   0.536   4.629  0.00  0.00    +0.188 C 
ATOM     10  C   UNL     1       2.269  -0.026   3.233  0.00  0.00    +0.235 C 
ATOM     11  O   UNL     1       3.221  -0.694   2.889  0.00  0.00    -0.274 OA
ATOM     12  N   UNL     1       1.266   0.204   2.364  0.00  0.00    -0.278 N 
ATOM     13  H   UNL     1       1.312  -0.164   1.467  0.00  0.00    +0.155 HD
ENDROOT
BRANCH   9  14
ATOM     14  C   UNL     1       2.751   1.907   4.627  0.00  0.00    +0.076 C 
ATOM     15  N   UNL     1       3.165   2.965   4.625  0.00  0.00    -0.196 NA
ENDBRANCH   9  14
BRANCH   2  16
ATOM     16  C   UNL     1      -1.253   1.944   4.423  0.00  0.00    +0.098 C 
ATOM     17  N   UNL     1      -2.156   2.566   4.718  0.00  0.00    -0.191 NA
ENDBRANCH   2  16
BRANCH   1  18
ATOM     18  S   UNL     1      -0.860   1.669   1.497  0.00  0.00    -0.101 S 
BRANCH  18  19
ATOM     19  C   UNL     1      -0.013   1.086   0.008  0.00  0.00    +0.155 C 
BRANCH  19  20
ATOM     20  C   UNL     1      -0.742   1.585  -1.213  0.00  0.00    +0.180 C 
ATOM     21  O   UNL     1      -1.736   2.268  -1.088  0.00  0.00    -0.291 OA
BRANCH  20  29
ATOM     22  C   UNL     1       2.892  -0.915  -5.481  0.00  0.00    +0.001 A 
ATOM     23  C   UNL     1       2.191  -0.436  -6.580  0.00  0.00    +0.004 A 
ATOM     24  C   UNL     1       1.063   0.338  -6.412  0.00  0.00    +0.047 A 
ATOM     25  C   UNL     1       0.616   0.647  -5.131  0.00  0.00    +0.139 A 
ATOM     26  C   UNL     1       1.327   0.160  -4.019  0.00  0.00    +0.018 A 
ATOM     27  C   UNL     1       2.473  -0.627  -4.215  0.00  0.00    +0.011 A 
ATOM     28  C   UNL     1       0.888   0.464  -2.707  0.00  0.00    +0.030 A 
ATOM     29  C   UNL     1      -0.249   1.245  -2.550  0.00  0.00    +0.103 A 
ATOM     30  C   UNL     1      -0.953   1.719  -3.749  0.00  0.00    +0.348 A 
ATOM     31  O   UNL     1      -1.954   2.401  -3.636  0.00  0.00    -0.244 OA
ATOM     32  O   UNL     1      -0.489   1.406  -4.970  0.00  0.00    -0.422 OA
ENDBRANCH  20  29
ENDBRANCH  19  20
ENDBRANCH  18  19
ENDBRANCH   1  18
TORSDOF 6
