REMARK  Name = ZINC12010306
REMARK  3 active torsions:
REMARK  status: ('A' for Active; 'I' for Inactive)
REMARK    1  A    between atoms: C_3  and  C_6
REMARK    2  A    between atoms: C_8  and  N_23
REMARK    3  A    between atoms: C_24  and  C_26
REMARK                            x       y       z     vdW  Elec       q    Type
REMARK                         _______ _______ _______ _____ _____    ______ ____
ROOT
ATOM      1  C   UNL     1       0.002  -0.004   0.002  0.00  0.00    +0.130 A 
ATOM      2  C   UNL     1      -0.017   1.407   0.010  0.00  0.00    +0.077 A 
ATOM      3  C   UNL     1       1.269   1.840  -0.000  0.00  0.00    +0.133 A 
ATOM      4  N   UNL     1       2.077   0.738  -0.014  0.00  0.00    -0.184 N 
ATOM      5  N   UNL     1       1.259  -0.399  -0.012  0.00  0.00    -0.159 NA
ATOM      6  C   UNL     1       3.459   0.745  -0.027  0.00  0.00    +0.234 A 
ATOM      7  N   UNL     1       4.133  -0.436  -0.038  0.00  0.00    -0.291 N 
ATOM      8  H   UNL     1       3.648  -1.276  -0.041  0.00  0.00    +0.172 HD
ATOM      9  C   UNL     1       5.481  -0.430  -0.046  0.00  0.00    +0.256 A 
ATOM     10  O   UNL     1       6.104  -1.479  -0.059  0.00  0.00    -0.267 OA
ATOM     11  C   UNL     1       6.162   0.807  -0.040  0.00  0.00    +0.038 A 
ATOM     12  C   UNL     1       5.437   1.954  -0.036  0.00  0.00    +0.053 A 
ATOM     13  N   UNL     1       4.099   1.890  -0.033  0.00  0.00    -0.217 NA
ATOM     14  C   UNL     1       6.074   3.319  -0.052  0.00  0.00    +0.056 C 
ATOM     15  C   UNL     1       7.537   3.233   0.380  0.00  0.00    +0.006 C 
ATOM     16  C   UNL     1       8.225   2.145  -0.454  0.00  0.00    +0.005 C 
ATOM     17  C   UNL     1       7.667   0.789  -0.028  0.00  0.00    +0.042 C 
ENDROOT
BRANCH   1  20
ATOM     18  C   UNL     1      -2.510  -2.670   0.012  0.00  0.00    +0.042 A 
ATOM     19  C   UNL     1      -1.166  -2.246  -0.004  0.00  0.00    +0.051 A 
ATOM     20  C   UNL     1      -1.183  -0.887   0.009  0.00  0.00    +0.155 A 
ATOM     21  O   UNL     1      -2.468  -0.484   0.024  0.00  0.00    -0.461 OA
ATOM     22  C   UNL     1      -3.273  -1.560   0.025  0.00  0.00    +0.196 A 
ENDBRANCH   1  20
BRANCH   3  23
ATOM     23  N   UNL     1       1.689   3.167   0.003  0.00  0.00    -0.266 N 
ATOM     24  C   UNL     1       0.780   4.162   0.017  0.00  0.00    +0.249 C 
ATOM     25  O   UNL     1      -0.407   3.900   0.027  0.00  0.00    -0.270 OA
ATOM     26  H   UNL     1       2.637   3.376  -0.006  0.00  0.00    +0.157 HD
BRANCH  24  27
ATOM     27  C   UNL     1       1.226   5.570   0.019  0.00  0.00    +0.040 A 
ATOM     28  C   UNL     1       2.589   5.873   0.013  0.00  0.00    +0.016 A 
ATOM     29  C   UNL     1       3.001   7.189   0.010  0.00  0.00    +0.042 A 
ATOM     30  C   UNL     1       2.065   8.211   0.025  0.00  0.00    +0.158 A 
ATOM     31  C   UNL     1       0.708   7.916   0.037  0.00  0.00    +0.159 A 
ATOM     32  C   UNL     1       0.286   6.602   0.034  0.00  0.00    +0.054 A 
ATOM     33  F   UNL     1      -0.199   8.917   0.050  0.00  0.00    -0.202 F 
ATOM     34  F   UNL     1       2.474   9.498   0.027  0.00  0.00    -0.202 F 
ENDBRANCH  24  27
ENDBRANCH   3  23
TORSDOF 3
