REMARK  Name = ZINC00034332
REMARK  8 active torsions:
REMARK  status: ('A' for Active; 'I' for Inactive)
REMARK    1  A    between atoms: C_1  and  C_2
REMARK    2  A    between atoms: C_2  and  O_3
REMARK    3  A    between atoms: O_3  and  C_4
REMARK    4  A    between atoms: C_4  and  C_6
REMARK    5  A    between atoms: C_7  and  N_26
REMARK    6  A    between atoms: C_11  and  C_13
REMARK    7  A    between atoms: C_22  and  C_24
REMARK    8  A    between atoms: C_22  and  C_25
REMARK                            x       y       z     vdW  Elec       q    Type
REMARK                         _______ _______ _______ _____ _____    ______ ____
ROOT
ATOM      1  C   UNL     1       1.206  -2.305  -2.543  0.00  0.00    +0.101 C 
ATOM      2  C   UNL     1       1.561  -3.615  -2.485  0.00  0.00    +0.194 C 
ATOM      3  O   UNL     1       2.345  -4.162  -3.428  0.00  0.00    -0.446 OA
ATOM      4  C   UNL     1       3.129  -3.383  -4.199  0.00  0.00    +0.115 C 
ATOM      5  C   UNL     1       2.873  -2.071  -4.353  0.00  0.00    +0.041 C 
ATOM      6  C   UNL     1       1.683  -1.435  -3.672  0.00  0.00    +0.071 C 
ATOM      7  C   UNL     1       3.698  -1.254  -5.149  0.00  0.00    +0.164 C 
ATOM      8  O   UNL     1       3.426  -0.077  -5.278  0.00  0.00    -0.292 OA
ATOM      9  C   UNL     1       4.910  -1.812  -5.844  0.00  0.00    +0.086 C 
ATOM     10  C   UNL     1       5.437  -3.006  -5.041  0.00  0.00    -0.021 C 
ATOM     11  C   UNL     1       4.306  -4.026  -4.892  0.00  0.00    +0.081 C 
ATOM     12  C   UNL     1       6.613  -3.646  -5.782  0.00  0.00    +0.012 C 
ATOM     13  C   UNL     1       5.890  -2.535  -3.658  0.00  0.00    +0.012 C 
ENDROOT
BRANCH   6  14
ATOM     14  C   UNL     1       0.551  -1.253  -4.685  0.00  0.00    +0.001 C 
ATOM     15  C   UNL     1       1.049  -0.412  -5.861  0.00  0.00    +0.004 C 
ATOM     16  C   UNL     1      -0.083  -0.230  -6.874  0.00  0.00    +0.000 C 
ATOM     17  C   UNL     1      -1.260   0.480  -6.201  0.00  0.00    +0.000 C 
ATOM     18  C   UNL     1      -1.758  -0.361  -5.025  0.00  0.00    +0.000 C 
ATOM     19  C   UNL     1      -0.626  -0.543  -4.012  0.00  0.00    +0.004 C 
ENDBRANCH   6  14
BRANCH   2  20
ATOM     20  N   UNL     1       1.113  -4.390  -1.449  0.00  0.00    -0.329 N 
ATOM     21  H   UNL     1       0.628  -3.983  -0.714  0.00  0.00    +0.145 HD
ATOM     22  H   UNL     1       1.280  -5.345  -1.450  0.00  0.00    +0.145 HD
ENDBRANCH   2  20
BRANCH   1  23
ATOM     23  C   UNL     1       0.384  -1.761  -1.544  0.00  0.00    +0.341 C 
ATOM     24  O   UNL     1       0.780  -0.826  -0.871  0.00  0.00    -0.245 OA
BRANCH  23  25
ATOM     25  O   UNL     1      -0.847  -2.274  -1.329  0.00  0.00    -0.462 OA
BRANCH  25  27
ATOM     26  C   UNL     1      -2.981  -2.382  -0.201  0.00  0.00    +0.048 C 
ATOM     27  C   UNL     1      -1.630  -1.672  -0.296  0.00  0.00    +0.229 C 
ENDBRANCH  25  27
ENDBRANCH  23  25
ENDBRANCH   1  23
TORSDOF 5
