REMARK  Name = ZINC63479779
REMARK  4 active torsions:
REMARK  status: ('A' for Active; 'I' for Inactive)
REMARK    1  A    between atoms: C_7  and  C_10
REMARK    2  A    between atoms: C_10  and  C_11
REMARK    3  A    between atoms: N_19  and  C_22
REMARK    4  A    between atoms: C_22  and  C_23
REMARK                            x       y       z     vdW  Elec       q    Type
REMARK                         _______ _______ _______ _____ _____    ______ ____
ROOT
ATOM      1  C   UNL     1       0.457  -3.653  -1.462  0.00  0.00    +0.072 C 
ATOM      2  C   UNL     1      -0.436  -4.913  -1.478  0.00  0.00    +0.107 C 
ATOM      3  C   UNL     1      -1.345  -4.740  -2.727  0.00  0.00    +0.122 C 
ATOM      4  C   UNL     1      -0.901  -5.861  -3.639  0.00  0.00    +0.228 C 
ATOM      5  O   UNL     1      -1.356  -6.090  -4.739  0.00  0.00    -0.275 OA
ATOM      6  N   UNL     1       0.072  -6.560  -3.044  0.00  0.00    -0.239 N 
ATOM      7  C   UNL     1       0.414  -6.118  -1.811  0.00  0.00    +0.227 C 
ATOM      8  O   UNL     1       1.259  -6.600  -1.089  0.00  0.00    -0.275 OA
ATOM      9  C   UNL     1      -0.941  -3.382  -3.315  0.00  0.00    +0.136 C 
ATOM     10  N   UNL     1      -0.310  -2.630  -2.221  0.00  0.00    -0.295 NA
ATOM     11  C   UNL     1      -2.124  -2.658  -3.892  0.00  0.00    +0.005 A 
ATOM     12  C   UNL     1      -3.318  -2.221  -3.365  0.00  0.00    +0.027 A 
ATOM     13  C   UNL     1      -4.233  -1.565  -4.170  0.00  0.00    +0.041 A 
ATOM     14  C   UNL     1      -3.942  -1.348  -5.506  0.00  0.00    +0.022 A 
ATOM     15  C   UNL     1      -2.747  -1.783  -6.038  0.00  0.00    +0.025 A 
ATOM     16  C   UNL     1      -1.822  -2.445  -5.234  0.00  0.00    +0.039 A 
ATOM     17  N   UNL     1      -0.564  -2.974  -5.535  0.00  0.00    -0.283 N 
ATOM     18  C   UNL     1       0.018  -3.543  -4.462  0.00  0.00    +0.243 C 
ATOM     19  O   UNL     1       1.105  -4.080  -4.427  0.00  0.00    -0.273 OA
ATOM     20 CL   UNL     1      -5.740  -1.015  -3.507  0.00  0.00    -0.084 Cl
ATOM     21  H   UNL     1      -1.014  -2.200  -1.639  0.00  0.00    +0.124 HD
ATOM     22  H   UNL     1      -0.157  -2.936  -6.415  0.00  0.00    +0.155 HD
ENDROOT
BRANCH   1  23
ATOM     23  C   UNL     1       0.691  -3.186  -0.024  0.00  0.00    +0.052 C 
BRANCH  23  30
ATOM     24  C   UNL     1      -0.016   1.348   0.009  0.00  0.00    +0.001 A 
ATOM     25  C   UNL     1       1.166   2.101   0.002  0.00  0.00    +0.002 A 
ATOM     26  C   UNL     1       2.391   1.535  -0.013  0.00  0.00    +0.026 A 
ATOM     27  C   UNL     1       2.529   0.120  -0.022  0.00  0.00    +0.043 A 
ATOM     28  N   UNL     1       3.587  -0.654  -0.037  0.00  0.00    -0.380 N 
ATOM     29  C   UNL     1       3.143  -2.053  -0.041  0.00  0.00    +0.144 C 
ATOM     30  C   UNL     1       1.631  -2.008  -0.025  0.00  0.00    -0.040 C 
ATOM     31  C   UNL     1       1.295  -0.698  -0.014  0.00  0.00    -0.001 A 
ATOM     32  C   UNL     1       0.002  -0.004   0.002  0.00  0.00    +0.010 A 
ATOM     33  H   UNL     1       4.509  -0.353  -0.045  0.00  0.00    +0.160 HD
ENDBRANCH  23  30
ENDBRANCH   1  23
BRANCH   6  34
ATOM     34  C   UNL     1       0.714  -7.717  -3.672  0.00  0.00    +0.148 C 
BRANCH  34  35
ATOM     35  C   UNL     1       1.924  -7.251  -4.483  0.00  0.00    +0.136 C 
ATOM     36  C   UNL     1       2.598  -8.457  -5.185  0.00  0.00    +0.035 C 
ATOM     37  C   UNL     1       3.300  -7.751  -6.377  0.00  0.00    +0.031 C 
ATOM     38  C   UNL     1       2.311  -6.613  -6.711  0.00  0.00    +0.160 C 
ATOM     39  O   UNL     1       1.507  -6.381  -5.547  0.00  0.00    -0.375 OA
ENDBRANCH  34  35
ENDBRANCH   6  34
TORSDOF 4
