REMARK  Name = ZINC66327707
REMARK  5 active torsions:
REMARK  status: ('A' for Active; 'I' for Inactive)
REMARK    1  A    between atoms: C_1  and  N_2
REMARK    2  A    between atoms: C_7  and  N_12
REMARK    3  A    between atoms: N_12  and  S_13
REMARK    4  A    between atoms: S_13  and  C_16
REMARK    5  A    between atoms: C_19  and  N_21
REMARK                            x       y       z     vdW  Elec       q    Type
REMARK                         _______ _______ _______ _____ _____    ______ ____
ROOT
ATOM      1  N   UNL     1      -0.906  -4.283  -1.109  0.00  0.00    -0.182 NA
ATOM      2  H   UNL     1      -1.734  -4.007  -0.685  0.00  0.00    +0.149 HD
ENDROOT
BRANCH   1   9
ATOM      3  C   UNL     1       0.226   1.293   0.521  0.00  0.00    +0.172 C 
ATOM      4  N   UNL     1       0.176  -0.165   0.387  0.00  0.00    -0.271 N 
ATOM      5  C   UNL     1       0.172  -0.854  -0.766  0.00  0.00    +0.044 A 
ATOM      6  C   UNL     1       0.117  -2.175  -0.462  0.00  0.00    +0.012 A 
ATOM      7  C   UNL     1       0.090  -2.296   0.926  0.00  0.00    +0.139 A 
ATOM      8  N   UNL     1       0.131  -1.091   1.440  0.00  0.00    -0.179 NA
ATOM      9  C   UNL     1       0.092  -3.280  -1.488  0.00  0.00    +0.110 C 
ATOM     10  C   UNL     1      -0.278  -2.670  -2.846  0.00  0.00    +0.025 C 
ATOM     11  C   UNL     1       0.611  -1.453  -3.119  0.00  0.00    +0.008 C 
ATOM     12  C   UNL     1       0.219  -0.311  -2.173  0.00  0.00    +0.055 C 
ENDBRANCH   1   9
BRANCH   1  13
ATOM     13  S   UNL     1      -0.622  -5.887  -1.405  0.00  0.00    +0.065 S 
ATOM     14  O   UNL     1      -1.740  -6.599  -0.893  0.00  0.00    -0.153 OA
ATOM     15  O   UNL     1      -0.214  -5.984  -2.763  0.00  0.00    -0.153 OA
BRANCH  13  16
ATOM     16  C   UNL     1       0.766  -6.359  -0.428  0.00  0.00    +0.145 A 
ATOM     17  C   UNL     1       0.793  -6.853   0.834  0.00  0.00    +0.038 A 
ATOM     18  C   UNL     1       2.013  -7.157   1.409  0.00  0.00    +0.042 A 
ATOM     19  C   UNL     1       3.146  -6.952   0.694  0.00  0.00    +0.165 A 
ATOM     20  S   UNL     1       2.501  -6.318  -0.846  0.00  0.00    -0.045 S 
BRANCH  19  21
ATOM     21  N   UNL     1       4.553  -7.196   1.086  0.00  0.00    +0.063 N 
ATOM     22  O   UNL     1       4.807  -7.639   2.181  0.00  0.00    -0.126 OA
ATOM     23  O   UNL     1       5.447  -6.952   0.310  0.00  0.00    -0.126 OA
ENDBRANCH  19  21
ENDBRANCH  13  16
ENDBRANCH   1  13
TORSDOF 4
