REMARK  Name = ZINC20865223
REMARK  8 active torsions:
REMARK  status: ('A' for Active; 'I' for Inactive)
REMARK    1  A    between atoms: C_1  and  C_2
REMARK    2  A    between atoms: C_2  and  N_3
REMARK    3  A    between atoms: C_12  and  S_13
REMARK    4  A    between atoms: S_13  and  C_14
REMARK    5  A    between atoms: C_14  and  C_15
REMARK    6  A    between atoms: N_17  and  C_18
REMARK    7  A    between atoms: C_19  and  C_23
REMARK    8  A    between atoms: C_27  and  C_31
REMARK                            x       y       z     vdW  Elec       q    Type
REMARK                         _______ _______ _______ _____ _____    ______ ____
ROOT
ATOM      1  N   UNL     1       1.643   9.776   0.038  0.00  0.00    -0.288 N 
ATOM      2  C   UNL     1       2.430  10.867   0.037  0.00  0.00    +0.263 A 
ATOM      3  O   UNL     1       1.939  11.983   0.048  0.00  0.00    -0.267 OA
ATOM      4  C   UNL     1       3.851  10.700   0.023  0.00  0.00    +0.076 A 
ATOM      5  C   UNL     1       4.886  11.736   0.021  0.00  0.00    -0.023 A 
ATOM      6  C   UNL     1       6.169  11.319   0.005  0.00  0.00    -0.004 A 
ATOM      7  S   UNL     1       6.077   9.549  -0.006  0.00  0.00    -0.073 S 
ATOM      8  C   UNL     1       4.311   9.373   0.010  0.00  0.00    +0.117 A 
ATOM      9  N   UNL     1       3.481   8.337   0.018  0.00  0.00    -0.216 NA
ATOM     10  C   UNL     1       2.175   8.519   0.026  0.00  0.00    +0.173 A 
ATOM     11  C   UNL     1       7.401  12.172   0.000  0.00  0.00    +0.046 C 
ATOM     12  C   UNL     1       7.001  13.602   0.393  0.00  0.00    -0.009 C 
ATOM     13  C   UNL     1       5.776  14.012  -0.430  0.00  0.00    +0.008 C 
ATOM     14  C   UNL     1       4.551  13.225   0.035  0.00  0.00    +0.037 C 
ATOM     15  C   UNL     1       8.160  14.557   0.099  0.00  0.00    +0.008 C 
ENDROOT
BRANCH   1  17
ATOM     16  C   UNL     1      -0.306   9.988   1.499  0.00  0.00    +0.027 C 
ATOM     17  C   UNL     1       0.187   9.939   0.052  0.00  0.00    +0.124 C 
ENDBRANCH   1  17
BRANCH  10  18
ATOM     18  S   UNL     1       1.103   7.121   0.029  0.00  0.00    -0.078 S 
BRANCH  18  19
ATOM     19  C   UNL     1       2.326   5.787   0.010  0.00  0.00    +0.173 C 
BRANCH  19  20
ATOM     20  C   UNL     1       1.618   4.456   0.010  0.00  0.00    +0.228 C 
ATOM     21  O   UNL     1       0.406   4.414   0.022  0.00  0.00    -0.275 OA
ATOM     22  N   UNL     1       2.332   3.313  -0.003  0.00  0.00    -0.279 N 
ATOM     23  H   UNL     1       3.432   3.351  -0.013  0.00  0.00    +0.155 HD
BRANCH  22  24
ATOM     24  C   UNL     1       1.681   2.089  -0.003  0.00  0.00    +0.084 A 
ATOM     25  C   UNL     1       2.237   0.815  -0.015  0.00  0.00    +0.065 A 
ATOM     26  C   UNL     1       1.315  -0.296  -0.012  0.00  0.00    +0.022 A 
ATOM     27  C   UNL     1       0.002  -0.004   0.002  0.00  0.00    +0.048 A 
ATOM     28  S   UNL     1      -0.022   1.776   0.012  0.00  0.00    -0.081 S 
BRANCH  25  29
ATOM     29  C   UNL     1       3.689   0.610  -0.030  0.00  0.00    +0.244 C 
ATOM     30  O   UNL     1       4.439   1.568  -0.033  0.00  0.00    -0.270 OA
ATOM     31  N   UNL     1       4.192  -0.640  -0.042  0.00  0.00    -0.325 N 
ATOM     32  H   UNL     1       5.282  -0.794  -0.053  0.00  0.00    +0.145 HD
ATOM     33  H   UNL     1       3.514  -1.506  -0.040  0.00  0.00    +0.145 HD
ENDBRANCH  25  29
ENDBRANCH  22  24
ENDBRANCH  19  20
ENDBRANCH  18  19
ENDBRANCH  10  18
TORSDOF 6
