REMARK  Name = ZINC44169902
REMARK  6 active torsions:
REMARK  status: ('A' for Active; 'I' for Inactive)
REMARK    1  A    between atoms: C_4  and  C_7
REMARK    2  A    between atoms: C_7  and  C_8
REMARK    3  A    between atoms: C_7  and  C_30
REMARK    4  A    between atoms: C_8  and  N_9
REMARK    5  A    between atoms: C_10  and  C_12
REMARK    6  A    between atoms: C_17  and  C_20
REMARK                            x       y       z     vdW  Elec       q    Type
REMARK                         _______ _______ _______ _____ _____    ______ ____
ROOT
ATOM      1  N   UNL     1       3.637  -0.589   2.404  0.00  0.00    -0.316 N 
ATOM      2  C   UNL     1       3.519  -1.068   3.658  0.00  0.00    +0.200 C 
ATOM      3  O   UNL     1       3.337  -2.253   3.840  0.00  0.00    -0.278 OA
ATOM      4  H   UNL     1       3.783   0.359   2.259  0.00  0.00    +0.149 HD
ENDROOT
BRANCH   2   5
ATOM      5  C   UNL     1       3.614  -0.131   4.835  0.00  0.00    +0.027 C 
ATOM      6  C   UNL     1       4.982   0.562   4.825  0.00  0.00    +0.062 C 
ATOM      7  S   UNL     1       5.037   1.734   6.217  0.00  0.00    -0.163 S 
ATOM      8  C   UNL     1       4.482   0.714   7.619  0.00  0.00    +0.058 C 
ATOM      9  C   UNL     1       3.189  -0.001   7.210  0.00  0.00    -0.030 C 
ATOM     10  N   UNL     1       3.451  -0.890   6.076  0.00  0.00    +0.392 N 
ATOM     11  H   UNL     1       2.678  -1.530   5.973  0.00  0.00    -0.084 HD
ATOM     12  H   UNL     1       4.294  -1.416   6.255  0.00  0.00    -0.084 HD
BRANCH   9  13
ATOM     13  C   UNL     1       2.677  -0.812   8.373  0.00  0.00    -0.060 A 
ATOM     14  C   UNL     1       3.248  -2.054   8.648  0.00  0.00    +0.002 A 
ATOM     15  C   UNL     1       2.809  -2.811   9.690  0.00  0.00    +0.009 A 
ATOM     16  C   UNL     1       1.764  -2.338  10.502  0.00  0.00    -0.018 A 
ATOM     17  C   UNL     1       1.284  -3.092  11.587  0.00  0.00    +0.008 A 
ATOM     18  C   UNL     1       0.271  -2.601  12.352  0.00  0.00    +0.001 A 
ATOM     19  C   UNL     1      -0.300  -1.360  12.076  0.00  0.00    +0.001 A 
ATOM     20  C   UNL     1       0.139  -0.603  11.034  0.00  0.00    +0.008 A 
ATOM     21  C   UNL     1       1.184  -1.076  10.222  0.00  0.00    -0.018 A 
ATOM     22  C   UNL     1       1.667  -0.320   9.141  0.00  0.00    +0.010 A 
ENDBRANCH   9  13
ENDBRANCH   2   5
BRANCH   1  23
ATOM     23  C   UNL     1       3.545  -1.500   1.260  0.00  0.00    +0.117 C 
BRANCH  23  24
ATOM     24  C   UNL     1       3.711  -0.707  -0.038  0.00  0.00    +0.066 C 
BRANCH  24  28
ATOM     25  C   UNL     1       0.436   1.998  -0.484  0.00  0.00    +0.000 A 
ATOM     26  C   UNL     1       1.734   2.464  -0.578  0.00  0.00    +0.000 A 
ATOM     27  C   UNL     1       2.794   1.588  -0.433  0.00  0.00    +0.004 A 
ATOM     28  C   UNL     1       2.556   0.247  -0.194  0.00  0.00    -0.038 A 
ATOM     29  C   UNL     1       1.257  -0.217  -0.100  0.00  0.00    +0.004 A 
ATOM     30  C   UNL     1       0.197   0.658  -0.246  0.00  0.00    +0.000 A 
ENDBRANCH  24  28
BRANCH  24  31
ATOM     31  C   UNL     1       3.740  -1.658  -1.207  0.00  0.00    -0.038 A 
ATOM     32  C   UNL     1       2.732  -2.591  -1.363  0.00  0.00    +0.004 A 
ATOM     33  C   UNL     1       2.758  -3.463  -2.435  0.00  0.00    +0.000 A 
ATOM     34  C   UNL     1       3.791  -3.401  -3.351  0.00  0.00    +0.000 A 
ATOM     35  C   UNL     1       4.798  -2.467  -3.196  0.00  0.00    +0.000 A 
ATOM     36  C   UNL     1       4.770  -1.592  -2.126  0.00  0.00    +0.004 A 
ENDBRANCH  24  31
ENDBRANCH  23  24
ENDBRANCH   1  23
TORSDOF 6
