REMARK  Name = ZINC01108874
REMARK  6 active torsions:
REMARK  status: ('A' for Active; 'I' for Inactive)
REMARK    1  A    between atoms: C_1  and  O_2
REMARK    2  A    between atoms: O_2  and  C_3
REMARK    3  A    between atoms: C_6  and  C_9
REMARK    4  A    between atoms: C_16  and  N_30
REMARK    5  A    between atoms: C_17  and  C_28
REMARK    6  A    between atoms: C_18  and  C_20
REMARK                            x       y       z     vdW  Elec       q    Type
REMARK                         _______ _______ _______ _____ _____    ______ ____
ROOT
ATOM      1  C   UNL     1       2.522  -2.735  -4.703  0.00  0.00    +0.100 A 
ATOM      2  C   UNL     1       3.372  -3.813  -4.438  0.00  0.00    +0.054 A 
ATOM      3  C   UNL     1       3.907  -4.230  -5.622  0.00  0.00    +0.223 A 
ATOM      4  N   UNL     1       3.409  -3.443  -6.598  0.00  0.00    -0.246 N 
ATOM      5  H   UNL     1       3.613  -3.509  -7.544  0.00  0.00    +0.192 HD
ATOM      6  N   UNL     1       2.540  -2.514  -6.004  0.00  0.00    -0.171 NA
ATOM      7  O   UNL     1       4.781  -5.264  -5.707  0.00  0.00    -0.423 OA
ATOM      8  C   UNL     1       5.333  -5.711  -4.561  0.00  0.00    +0.200 C 
ATOM      9  C   UNL     1       4.884  -5.379  -3.330  0.00  0.00    +0.098 C 
ATOM     10  C   UNL     1       3.701  -4.466  -3.121  0.00  0.00    +0.102 C 
ENDROOT
BRANCH  10  11
ATOM     11  C   UNL     1       2.519  -5.268  -2.642  0.00  0.00    -0.033 A 
ATOM     12  C   UNL     1       1.979  -6.253  -3.448  0.00  0.00    +0.006 A 
ATOM     13  C   UNL     1       0.894  -6.988  -3.010  0.00  0.00    +0.022 A 
ATOM     14  C   UNL     1       0.348  -6.740  -1.763  0.00  0.00    +0.059 A 
ATOM     15  C   UNL     1       0.889  -5.755  -0.955  0.00  0.00    +0.060 A 
ATOM     16  C   UNL     1       1.978  -5.023  -1.393  0.00  0.00    +0.026 A 
ATOM     17 CL   UNL     1       0.205  -5.442   0.609  0.00  0.00    -0.082 Cl
ATOM     18 CL   UNL     1      -1.015  -7.664  -1.212  0.00  0.00    -0.082 Cl
ENDBRANCH  10  11
BRANCH   1  22
ATOM     19  C   UNL     1       0.264  -0.561  -1.827  0.00  0.00    +0.120 A 
ATOM     20  C   UNL     1       1.575  -0.924  -1.549  0.00  0.00    +0.046 A 
ATOM     21  C   UNL     1       2.309  -1.629  -2.479  0.00  0.00    +0.013 A 
ATOM     22  C   UNL     1       1.734  -1.977  -3.700  0.00  0.00    +0.003 A 
ATOM     23  C   UNL     1       0.418  -1.612  -3.977  0.00  0.00    +0.013 A 
ATOM     24  C   UNL     1      -0.313  -0.911  -3.040  0.00  0.00    +0.046 A 
BRANCH  19  26
ATOM     25  C   UNL     1       0.198   0.461   0.318  0.00  0.00    +0.277 C 
ATOM     26  O   UNL     1      -0.457   0.134  -0.909  0.00  0.00    -0.495 OA
ENDBRANCH  19  26
ENDBRANCH   1  22
BRANCH   8  27
ATOM     27  N   UNL     1       6.415  -6.552  -4.649  0.00  0.00    -0.328 N 
ATOM     28  H   UNL     1       6.760  -6.808  -5.519  0.00  0.00    +0.145 HD
ATOM     29  H   UNL     1       6.833  -6.890  -3.842  0.00  0.00    +0.145 HD
ENDBRANCH   8  27
BRANCH   9  30
ATOM     30  C   UNL     1       5.554  -5.913  -2.183  0.00  0.00    +0.101 C 
ATOM     31  N   UNL     1       6.086  -6.337  -1.274  0.00  0.00    -0.191 NA
ENDBRANCH   9  30
TORSDOF 5
