REMARK  Name = ZINC38677415
REMARK  6 active torsions:
REMARK  status: ('A' for Active; 'I' for Inactive)
REMARK    1  A    between atoms: C_1  and  N_2
REMARK    2  A    between atoms: C_6  and  C_7
REMARK    3  A    between atoms: C_7  and  C_9
REMARK    4  A    between atoms: C_7  and  N_24
REMARK    5  A    between atoms: C_9  and  N_10
REMARK    6  A    between atoms: C_11  and  C_13
REMARK                            x       y       z     vdW  Elec       q    Type
REMARK                         _______ _______ _______ _____ _____    ______ ____
ROOT
ATOM      1  C   UNL     1       1.250   0.447   2.889  0.00  0.00    +0.095 C 
ENDROOT
BRANCH   1   2
ATOM      2  N   UNL     1       1.318   0.595   4.345  0.00  0.00    -0.310 N 
ATOM      3  C   UNL     1       2.390   1.180   4.913  0.00  0.00    +0.279 C 
ATOM      4  O   UNL     1       3.301   1.585   4.219  0.00  0.00    -0.267 OA
ATOM      5  H   UNL     1       0.590   0.272   4.899  0.00  0.00    +0.149 HD
BRANCH   3   6
ATOM      6  C   UNL     1       2.458   1.329   6.386  0.00  0.00    +0.193 A 
ATOM      7  C   UNL     1       3.548   1.927   6.928  0.00  0.00    +0.103 A 
ATOM      8  C   UNL     1       3.615   2.056   8.394  0.00  0.00    +0.193 A 
ATOM      9  O   UNL     1       4.437   2.769   8.942  0.00  0.00    -0.287 OA
ATOM     10  C   UNL     1       2.626   1.270   9.159  0.00  0.00    +0.064 A 
ATOM     11  C   UNL     1       2.739   1.101  10.538  0.00  0.00    +0.015 A 
ATOM     12  C   UNL     1       1.804   0.360  11.206  0.00  0.00    +0.001 A 
ATOM     13  C   UNL     1       0.747  -0.222  10.519  0.00  0.00    +0.004 A 
ATOM     14  C   UNL     1       0.619  -0.063   9.156  0.00  0.00    +0.047 A 
ATOM     15  C   UNL     1       1.557   0.690   8.455  0.00  0.00    +0.139 A 
ATOM     16  O   UNL     1       1.438   0.873   7.126  0.00  0.00    -0.450 OA
ENDBRANCH   3   6
ENDBRANCH   1   2
BRANCH   1  17
ATOM     17  C   UNL     1       0.028  -0.397   2.518  0.00  0.00    -0.003 C 
BRANCH  17  18
ATOM     18  N   UNL     1       0.177  -1.747   3.077  0.00  0.00    +0.386 N 
ATOM     19  C   UNL     1       0.012  -1.674   4.542  0.00  0.00    -0.078 C 
ATOM     20  C   UNL     1      -0.436  -3.026   5.036  0.00  0.00    -0.019 C 
ATOM     21  C   UNL     1       0.754  -3.867   5.533  0.00  0.00    -0.002 C 
ATOM     22  C   UNL     1       1.984  -3.718   4.614  0.00  0.00    -0.002 C 
ATOM     23  C   UNL     1       1.612  -3.717   3.153  0.00  0.00    -0.019 C 
ATOM     24  C   UNL     1       1.415  -2.260   2.685  0.00  0.00    -0.078 C 
ATOM     25  H   UNL     1      -0.551  -2.335   2.700  0.00  0.00    -0.081 HD
ENDBRANCH  17  18
BRANCH  17  31
ATOM     26  C   UNL     1      -0.038   1.985   0.534  0.00  0.00    +0.148 C 
ATOM     27  N   UNL     1      -0.114   0.572   0.155  0.00  0.00    -0.355 N 
ATOM     28  C   UNL     1      -0.218   0.095  -1.117  0.00  0.00    +0.085 A 
ATOM     29  C   UNL     1      -0.261  -1.252  -1.061  0.00  0.00    +0.019 A 
ATOM     30  C   UNL     1      -0.181  -1.619   0.297  0.00  0.00    +0.021 A 
ATOM     31  C   UNL     1      -0.085  -0.484   1.018  0.00  0.00    +0.006 A 
ENDBRANCH  17  31
ENDBRANCH   1  17
TORSDOF 5
