REMARK  Name = ZINC66041825
REMARK  6 active torsions:
REMARK  status: ('A' for Active; 'I' for Inactive)
REMARK    1  A    between atoms: C_1  and  C_2
REMARK    2  A    between atoms: C_4  and  C_8
REMARK    3  A    between atoms: C_5  and  C_7
REMARK    4  A    between atoms: N_10  and  N_11
REMARK    5  A    between atoms: C_12  and  C_14
REMARK    6  A    between atoms: C_19  and  O_20
REMARK                            x       y       z     vdW  Elec       q    Type
REMARK                         _______ _______ _______ _____ _____    ______ ____
ROOT
ATOM      1  N   UNL     1      -3.464  -4.540  -0.006  0.00  0.00    -0.230 N 
ATOM      2  C   UNL     1      -4.811  -4.480   0.001  0.00  0.00    +0.264 C 
ATOM      3  O   UNL     1      -5.371  -3.401   0.010  0.00  0.00    -0.269 OA
ATOM      4  H   UNL     1      -3.017  -5.400  -0.013  0.00  0.00    +0.173 HD
ENDROOT
BRANCH   2   5
ATOM      5  C   UNL     1      -5.604  -5.723  -0.001  0.00  0.00    +0.080 A 
ATOM      6  C   UNL     1      -4.964  -6.965  -0.006  0.00  0.00    +0.018 A 
ATOM      7  C   UNL     1      -5.710  -8.123  -0.008  0.00  0.00    +0.016 A 
ATOM      8  C   UNL     1      -7.096  -8.062  -0.006  0.00  0.00    +0.021 A 
ATOM      9  C   UNL     1      -7.741  -6.840  -0.002  0.00  0.00    +0.061 A 
ATOM     10  C   UNL     1      -7.005  -5.665   0.006  0.00  0.00    +0.130 A 
ATOM     11 BR   UNL     1      -8.107  -9.659  -0.009  0.00  0.00    -0.050 Br
BRANCH  10  12
ATOM     12  O   UNL     1      -7.637  -4.465   0.016  0.00  0.00    -0.506 OA
ATOM     13  H   UNL     1      -7.825  -4.112  -0.864  0.00  0.00    +0.292 HD
ENDBRANCH  10  12
ENDBRANCH   2   5
BRANCH   1  16
ATOM     14  C   UNL     1      -1.364  -3.418  -0.011  0.00  0.00    +0.263 C 
ATOM     15  O   UNL     1      -0.804  -4.497  -0.020  0.00  0.00    -0.269 OA
ATOM     16  N   UNL     1      -2.711  -3.358  -0.003  0.00  0.00    -0.230 N 
ATOM     17  H   UNL     1      -3.158  -2.498   0.004  0.00  0.00    +0.173 HD
BRANCH  14  21
ATOM     18  C   UNL     1      -0.018   1.503   0.010  0.00  0.00    +0.086 C 
ATOM     19  C   UNL     1       0.002  -0.004   0.002  0.00  0.00    +0.103 A 
ATOM     20  C   UNL     1      -1.081  -0.797   0.003  0.00  0.00    +0.057 A 
ATOM     21  C   UNL     1      -0.571  -2.176  -0.008  0.00  0.00    +0.079 A 
ATOM     22  C   UNL     1       0.788  -2.066  -0.014  0.00  0.00    +0.114 A 
ATOM     23  O   UNL     1       1.106  -0.767  -0.013  0.00  0.00    -0.464 OA
ATOM     24  C   UNL     1       1.766  -3.212  -0.025  0.00  0.00    +0.087 C 
ENDBRANCH  14  21
ENDBRANCH   1  16
TORSDOF 4
