REMARK  Name = ZINC12951386
REMARK  4 active torsions:
REMARK  status: ('A' for Active; 'I' for Inactive)
REMARK    1  A    between atoms: C_1  and  O_2
REMARK    2  A    between atoms: O_2  and  C_3
REMARK    3  A    between atoms: C_5  and  C_10
REMARK    4  A    between atoms: C_8  and  O_9
REMARK                            x       y       z     vdW  Elec       q    Type
REMARK                         _______ _______ _______ _____ _____    ______ ____
ROOT
ATOM      1  C   UNL     1       2.393   0.342  -4.214  0.00  0.00    +0.028 C 
ATOM      2  C   UNL     1       3.083  -0.262  -5.215  0.00  0.00    +0.081 A 
ATOM      3  C   UNL     1       3.850   0.342  -6.317  0.00  0.00    +0.267 A 
ATOM      4  O   UNL     1       3.939   1.551  -6.430  0.00  0.00    -0.266 OA
ATOM      5  N   UNL     1       4.444  -0.474  -7.189  0.00  0.00    -0.287 N 
ATOM      6  C   UNL     1       4.320  -1.845  -6.995  0.00  0.00    +0.172 A 
ATOM      7  N   UNL     1       4.843  -2.775  -7.724  0.00  0.00    -0.261 NA
ATOM      8  C   UNL     1       5.670  -2.392  -8.877  0.00  0.00    +0.146 C 
ATOM      9  C   UNL     1       5.175  -1.058  -9.440  0.00  0.00    +0.045 C 
ATOM     10  C   UNL     1       5.228   0.020  -8.353  0.00  0.00    +0.129 C 
ATOM     11  S   UNL     1       3.311  -2.004  -5.545  0.00  0.00    -0.046 S 
ENDROOT
BRANCH   1  14
ATOM     12  C   UNL     1       0.372  -0.688  -1.228  0.00  0.00    +0.162 A 
ATOM     13  C   UNL     1       1.150   0.072  -2.078  0.00  0.00    +0.057 A 
ATOM     14  C   UNL     1       1.566  -0.461  -3.304  0.00  0.00    -0.020 A 
ATOM     15  C   UNL     1       1.191  -1.762  -3.660  0.00  0.00    +0.012 A 
ATOM     16  C   UNL     1       0.414  -2.513  -2.805  0.00  0.00    +0.050 A 
ATOM     17  C   UNL     1       0.007  -1.985  -1.587  0.00  0.00    +0.158 A 
BRANCH  12  19
ATOM     18  C   UNL     1       0.377   1.161   0.268  0.00  0.00    +0.277 C 
ATOM     19  O   UNL     1      -0.033  -0.174  -0.036  0.00  0.00    -0.491 OA
ENDBRANCH  12  19
BRANCH  17  20
ATOM     20  O   UNL     1      -0.754  -2.732  -0.745  0.00  0.00    -0.503 OA
ATOM     21  H   UNL     1      -1.706  -2.636  -0.886  0.00  0.00    +0.292 HD
ENDBRANCH  17  20
ENDBRANCH   1  14
TORSDOF 3
