REMARK  Name = ZINC05376417
REMARK  4 active torsions:
REMARK  status: ('A' for Active; 'I' for Inactive)
REMARK    1  A    between atoms: C_1  and  O_2
REMARK    2  A    between atoms: O_2  and  C_3
REMARK    3  A    between atoms: C_6  and  C_9
REMARK    4  A    between atoms: N_15  and  C_16
REMARK                            x       y       z     vdW  Elec       q    Type
REMARK                         _______ _______ _______ _____ _____    ______ ____
ROOT
ATOM      1  C   UNL     1       1.175   3.555   0.010  0.00  0.00    +0.028 C 
ATOM      2  C   UNL     1       2.340   4.244   0.105  0.00  0.00    +0.078 C 
ATOM      3  C   UNL     1       2.561   5.698   0.225  0.00  0.00    +0.256 C 
ATOM      4  O   UNL     1       1.631   6.482   0.252  0.00  0.00    -0.269 OA
ATOM      5  N   UNL     1       3.815   6.109   0.306  0.00  0.00    -0.260 N 
ATOM      6  C   UNL     1       4.855   5.205   0.266  0.00  0.00    +0.166 C 
ATOM      7  N   UNL     1       6.146   5.442   0.329  0.00  0.00    -0.223 NA
ATOM      8  S   UNL     1       4.020   3.635   0.111  0.00  0.00    -0.049 S 
ATOM      9  H   UNL     1       4.005   7.057   0.390  0.00  0.00    +0.157 HD
ENDROOT
BRANCH   7  10
ATOM     10  C   UNL     1       7.035   4.402   0.273  0.00  0.00    +0.102 A 
ATOM     11  C   UNL     1       6.815   3.336  -0.601  0.00  0.00    +0.031 A 
ATOM     12  C   UNL     1       7.715   2.292  -0.651  0.00  0.00    +0.002 A 
ATOM     13  C   UNL     1       8.836   2.299   0.160  0.00  0.00    +0.003 A 
ATOM     14  C   UNL     1       9.063   3.352   1.028  0.00  0.00    +0.040 A 
ATOM     15  C   UNL     1       8.172   4.407   1.087  0.00  0.00    +0.149 A 
ATOM     16  F   UNL     1       8.397   5.437   1.931  0.00  0.00    -0.203 F 
ENDBRANCH   7  10
BRANCH   1  20
ATOM     17  C   UNL     1       1.199  -0.683   0.152  0.00  0.00    +0.120 A 
ATOM     18  C   UNL     1       2.306   0.031   0.595  0.00  0.00    +0.046 A 
ATOM     19  C   UNL     1       2.303   1.407   0.552  0.00  0.00    +0.011 A 
ATOM     20  C   UNL     1       1.183   2.087   0.059  0.00  0.00    -0.024 A 
ATOM     21  C   UNL     1       0.071   1.363  -0.387  0.00  0.00    +0.011 A 
ATOM     22  C   UNL     1       0.084  -0.013  -0.338  0.00  0.00    +0.046 A 
BRANCH  17  24
ATOM     23  C   UNL     1       0.037  -2.712  -0.275  0.00  0.00    +0.277 C 
ATOM     24  O   UNL     1       1.207  -2.040   0.197  0.00  0.00    -0.495 OA
ENDBRANCH  17  24
ENDBRANCH   1  20
TORSDOF 3
