REMARK  Name = ZINC00633408
REMARK  7 active torsions:
REMARK  status: ('A' for Active; 'I' for Inactive)
REMARK    1  A    between atoms: C_1  and  C_2
REMARK    2  A    between atoms: C_5  and  C_8
REMARK    3  A    between atoms: C_19  and  C_21
REMARK    4  A    between atoms: C_24  and  O_29
REMARK    5  A    between atoms: C_25  and  O_27
REMARK    6  A    between atoms: O_27  and  C_28
REMARK    7  A    between atoms: O_29  and  C_30
REMARK                            x       y       z     vdW  Elec       q    Type
REMARK                         _______ _______ _______ _____ _____    ______ ____
ROOT
ATOM      1  C   UNL     1       0.059  -4.275  -0.021  0.00  0.00    +0.163 C 
ATOM      2  C   UNL     1       1.493  -4.729   0.140  0.00  0.00    +0.028 C 
ATOM      3  C   UNL     1       1.792  -5.521   1.191  0.00  0.00    +0.083 C 
ATOM      4  C   UNL     1       3.204  -5.952   1.345  0.00  0.00    +0.042 A 
ATOM      5  C   UNL     1       3.555  -7.002   2.183  0.00  0.00    +0.013 A 
ATOM      6  C   UNL     1       4.882  -7.371   2.294  0.00  0.00    +0.001 A 
ATOM      7  C   UNL     1       5.855  -6.700   1.575  0.00  0.00    +0.004 A 
ATOM      8  C   UNL     1       5.513  -5.653   0.738  0.00  0.00    +0.046 A 
ATOM      9  C   UNL     1       4.189  -5.271   0.618  0.00  0.00    +0.131 A 
ATOM     10  O   UNL     1       3.826  -4.242  -0.190  0.00  0.00    -0.479 OA
ATOM     11  C   UNL     1       2.556  -4.325  -0.839  0.00  0.00    +0.234 C 
ATOM     12  N   UNL     1       0.840  -5.908   2.075  0.00  0.00    -0.216 NA
ATOM     13  C   UNL     1      -0.424  -5.555   1.999  0.00  0.00    +0.209 C 
ATOM     14  N   UNL     1      -0.884  -4.752   1.001  0.00  0.00    -0.182 N 
ATOM     15  N   UNL     1      -2.251  -4.562   1.208  0.00  0.00    -0.169 NA
ATOM     16  C   UNL     1      -2.598  -5.214   2.271  0.00  0.00    +0.208 C 
ATOM     17  N   UNL     1      -1.505  -5.845   2.791  0.00  0.00    -0.275 N 
ATOM     18  H   UNL     1      -1.495  -6.400   3.586  0.00  0.00    +0.156 HD
ENDROOT
BRANCH   1  23
ATOM     19  C   UNL     1      -0.018   1.503   0.010  0.00  0.00    +0.044 C 
ATOM     20  C   UNL     1       0.002  -0.004   0.002  0.00  0.00    -0.050 A 
ATOM     21  C   UNL     1       0.006  -0.689  -1.199  0.00  0.00    +0.004 A 
ATOM     22  C   UNL     1       0.025  -2.071  -1.206  0.00  0.00    +0.006 A 
ATOM     23  C   UNL     1       0.040  -2.768  -0.013  0.00  0.00    -0.021 A 
ATOM     24  C   UNL     1       0.037  -2.084   1.188  0.00  0.00    +0.006 A 
ATOM     25  C   UNL     1       0.023  -0.702   1.195  0.00  0.00    +0.004 A 
ENDBRANCH   1  23
BRANCH  11  26
ATOM     26  C   UNL     1       2.628  -5.344  -1.946  0.00  0.00    +0.001 A 
ATOM     27  C   UNL     1       3.302  -6.534  -1.746  0.00  0.00    +0.011 A 
ATOM     28  C   UNL     1       3.371  -7.473  -2.759  0.00  0.00    +0.050 A 
ATOM     29  C   UNL     1       2.762  -7.222  -3.978  0.00  0.00    +0.162 A 
ATOM     30  C   UNL     1       2.083  -6.024  -4.179  0.00  0.00    +0.162 A 
ATOM     31  C   UNL     1       2.014  -5.090  -3.159  0.00  0.00    +0.057 A 
BRANCH  30  32
ATOM     32  O   UNL     1       1.484  -5.773  -5.375  0.00  0.00    -0.491 OA
ATOM     33  C   UNL     1       0.805  -4.523  -5.510  0.00  0.00    +0.277 C 
ENDBRANCH  30  32
BRANCH  29  34
ATOM     34  O   UNL     1       2.829  -8.143  -4.976  0.00  0.00    -0.491 OA
ATOM     35  C   UNL     1       3.543  -9.350  -4.697  0.00  0.00    +0.277 C 
ENDBRANCH  29  34
ENDBRANCH  11  26
TORSDOF 4
