REMARK  Name = ZINC25560766
REMARK  8 active torsions:
REMARK  status: ('A' for Active; 'I' for Inactive)
REMARK    1  A    between atoms: C_1  and  C_2
REMARK    2  A    between atoms: C_2  and  O_3
REMARK    3  A    between atoms: O_3  and  C_4
REMARK    4  A    between atoms: C_4  and  C_6
REMARK    5  A    between atoms: C_7  and  N_31
REMARK    6  A    between atoms: C_11  and  C_20
REMARK    7  A    between atoms: N_13  and  C_14
REMARK    8  A    between atoms: C_21  and  C_23
REMARK                            x       y       z     vdW  Elec       q    Type
REMARK                         _______ _______ _______ _____ _____    ______ ____
ROOT
ATOM      1  C   UNL     1      -4.528   1.550   1.301  0.00  0.00    +0.105 C 
ATOM      2  C   UNL     1      -4.541   2.284   2.439  0.00  0.00    +0.197 C 
ATOM      3  O   UNL     1      -3.455   2.892   2.952  0.00  0.00    -0.423 OA
ATOM      4  C   UNL     1      -2.245   2.549   2.447  0.00  0.00    +0.230 A 
ATOM      5  C   UNL     1      -2.101   1.828   1.294  0.00  0.00    +0.049 A 
ATOM      6  C   UNL     1      -0.744   1.646   1.066  0.00  0.00    +0.068 A 
ATOM      7  N   UNL     1      -0.081   2.237   2.032  0.00  0.00    -0.168 NA
ATOM      8  N   UNL     1      -1.006   2.816   2.916  0.00  0.00    -0.200 N 
ATOM      9  C   UNL     1      -0.135   0.901  -0.095  0.00  0.00    +0.068 C 
ATOM     10  C   UNL     1      -3.277   1.355   0.480  0.00  0.00    +0.101 C 
ENDROOT
BRANCH  10  11
ATOM     11  C   UNL     1      -3.373   2.159  -0.791  0.00  0.00    +0.002 A 
ATOM     12  C   UNL     1      -3.549   3.529  -0.731  0.00  0.00    +0.046 A 
ATOM     13  C   UNL     1      -3.632   4.267  -1.899  0.00  0.00    +0.020 A 
ATOM     14  C   UNL     1      -3.548   3.634  -3.124  0.00  0.00    +0.003 A 
ATOM     15  C   UNL     1      -3.377   2.264  -3.185  0.00  0.00    +0.020 A 
ATOM     16  C   UNL     1      -3.289   1.525  -2.018  0.00  0.00    +0.046 A 
ATOM     17 CL   UNL     1      -3.075  -0.196  -2.095  0.00  0.00    -0.083 Cl
ATOM     18 CL   UNL     1      -3.660   4.324   0.808  0.00  0.00    -0.083 Cl
ENDBRANCH  10  11
BRANCH   8  19
ATOM     19  C   UNL     1      -0.700   3.540   4.076  0.00  0.00    +0.069 A 
ATOM     20  C   UNL     1      -1.490   4.617   4.453  0.00  0.00    +0.028 A 
ATOM     21  C   UNL     1      -1.188   5.325   5.600  0.00  0.00    +0.002 A 
ATOM     22  C   UNL     1      -0.094   4.970   6.366  0.00  0.00    +0.000 A 
ATOM     23  C   UNL     1       0.699   3.901   5.990  0.00  0.00    +0.002 A 
ATOM     24  C   UNL     1       0.399   3.185   4.847  0.00  0.00    +0.028 A 
ENDBRANCH   8  19
BRANCH   2  25
ATOM     25  N   UNL     1      -5.727   2.408   3.113  0.00  0.00    -0.329 N 
ATOM     26  H   UNL     1      -5.773   2.997   4.041  0.00  0.00    +0.145 HD
ATOM     27  H   UNL     1      -6.633   1.919   2.726  0.00  0.00    +0.145 HD
ENDBRANCH   2  25
BRANCH   1  28
ATOM     28  C   UNL     1      -5.720   0.951   0.869  0.00  0.00    +0.341 C 
ATOM     29  O   UNL     1      -6.714   0.999   1.571  0.00  0.00    -0.245 OA
BRANCH  28  30
ATOM     30  O   UNL     1      -5.765   0.321  -0.325  0.00  0.00    -0.462 OA
BRANCH  30  32
ATOM     31  C   UNL     1      -6.870  -0.929  -2.073  0.00  0.00    +0.048 C 
ATOM     32  C   UNL     1      -7.012  -0.267  -0.701  0.00  0.00    +0.229 C 
ENDBRANCH  30  32
ENDBRANCH  28  30
ENDBRANCH   1  28
TORSDOF 6
