REMARK  Name = ZINC33936803
REMARK  15 active torsions:
REMARK  status: ('A' for Active; 'I' for Inactive)
REMARK    1  A    between atoms: C_1  and  C_2
REMARK    2  A    between atoms: C_2  and  O_3
REMARK    3  A    between atoms: O_3  and  C_4
REMARK    4  A    between atoms: C_7  and  C_10
REMARK    5  A    between atoms: C_10  and  N_11
REMARK    6  A    between atoms: N_11  and  C_12
REMARK    7  A    between atoms: N_11  and  C_19
REMARK    8  A    between atoms: C_12  and  C_13
REMARK    9  A    between atoms: C_19  and  C_21
REMARK   10  A    between atoms: C_19  and  C_34
REMARK   11  A    between atoms: C_25  and  C_33
REMARK   12  A    between atoms: N_38  and  C_39
REMARK   13  A    between atoms: C_39  and  C_40
REMARK   14  A    between atoms: C_39  and  C_41
REMARK   15  A    between atoms: C_39  and  C_42
REMARK                            x       y       z     vdW  Elec       q    Type
REMARK                         _______ _______ _______ _____ _____    ______ ____
ROOT
ATOM      1  C   UNL     1       0.285  -8.198  -2.618  0.00  0.00    +0.163 C 
ENDROOT
BRANCH   1   2
ATOM      2  C   UNL     1      -0.717  -8.904  -3.494  0.00  0.00    +0.042 A 
ATOM      3  C   UNL     1      -1.366 -10.000  -3.030  0.00  0.00    +0.021 A 
ATOM      4  C   UNL     1      -2.334 -10.663  -3.907  0.00  0.00    -0.001 A 
ATOM      5  C   UNL     1      -3.035 -11.797  -3.484  0.00  0.00    +0.013 A 
ATOM      6  C   UNL     1      -3.932 -12.392  -4.325  0.00  0.00    -0.050 A 
ATOM      7  C   UNL     1      -4.152 -11.881  -5.598  0.00  0.00    +0.005 A 
ATOM      8  C   UNL     1      -3.472 -10.765  -6.036  0.00  0.00    +0.026 A 
ATOM      9  C   UNL     1      -2.555 -10.142  -5.196  0.00  0.00    +0.049 A 
ATOM     10  N   UNL     1      -1.862  -9.024  -5.607  0.00  0.00    -0.322 N 
ATOM     11  H   UNL     1      -2.016  -8.666  -6.496  0.00  0.00    +0.169 HD
ATOM     12  C   UNL     1      -0.979  -8.419  -4.793  0.00  0.00    +0.254 A 
ATOM     13  O   UNL     1      -0.388  -7.429  -5.189  0.00  0.00    -0.268 OA
ATOM     14  C   UNL     1      -4.687 -13.613  -3.869  0.00  0.00    +0.044 C 
ENDBRANCH   1   2
BRANCH   1  15
ATOM     15  C   UNL     1       1.663  -8.344  -3.211  0.00  0.00    +0.174 A 
ATOM     16  N   UNL     1       2.099  -7.797  -4.320  0.00  0.00    -0.111 NA
ATOM     17  N   UNL     1       3.325  -8.159  -4.486  0.00  0.00    -0.023 NA
ATOM     18  N   UNL     1       3.681  -8.921  -3.512  0.00  0.00    -0.043 NA
ATOM     19  N   UNL     1       2.686  -9.055  -2.702  0.00  0.00    -0.222 N 
BRANCH  19  20
ATOM     20  C   UNL     1       2.671  -9.837  -1.463  0.00  0.00    +0.059 C 
ATOM     21  C   UNL     1       1.535 -10.860  -1.520  0.00  0.00    +0.036 C 
ATOM     22  C   UNL     1       4.006 -10.566  -1.304  0.00  0.00    +0.036 C 
ATOM     23  C   UNL     1       2.455  -8.901  -0.272  0.00  0.00    +0.036 C 
ENDBRANCH  19  20
ENDBRANCH   1  15
BRANCH   1  24
ATOM     24  N   UNL     1      -0.061  -6.773  -2.528  0.00  0.00    -0.282 NA
BRANCH  24  25
ATOM     25  C   UNL     1       0.873  -6.059  -1.648  0.00  0.00    +0.120 C 
BRANCH  25  29
ATOM     26  C   UNL     1       0.576  -1.856  -2.365  0.00  0.00    +0.121 A 
ATOM     27  C   UNL     1      -0.229  -2.456  -1.407  0.00  0.00    +0.046 A 
ATOM     28  C   UNL     1      -0.131  -3.815  -1.177  0.00  0.00    +0.008 A 
ATOM     29  C   UNL     1       0.768  -4.577  -1.901  0.00  0.00    -0.033 A 
ATOM     30  C   UNL     1       1.571  -3.981  -2.855  0.00  0.00    +0.008 A 
ATOM     31  C   UNL     1       1.473  -2.624  -3.093  0.00  0.00    +0.046 A 
BRANCH  26  32
ATOM     32  O   UNL     1       0.481  -0.520  -2.593  0.00  0.00    -0.492 OA
BRANCH  32  34
ATOM     33  C   UNL     1      -0.428   1.685  -2.202  0.00  0.00    +0.048 C 
ATOM     34  C   UNL     1      -0.464   0.207  -1.806  0.00  0.00    +0.225 C 
ENDBRANCH  32  34
ENDBRANCH  26  32
ENDBRANCH  25  29
ENDBRANCH  24  25
BRANCH  24  35
ATOM     35  C   UNL     1      -1.448  -6.596  -2.078  0.00  0.00    +0.117 C 
BRANCH  35  36
ATOM     36  C   UNL     1      -1.650  -7.324  -0.748  0.00  0.00    +0.132 C 
ATOM     37  C   UNL     1      -3.140  -7.278  -0.347  0.00  0.00    +0.035 C 
ATOM     38  C   UNL     1      -3.062  -7.057   1.188  0.00  0.00    +0.031 C 
ATOM     39  C   UNL     1      -1.796  -6.169   1.293  0.00  0.00    +0.160 C 
ATOM     40  O   UNL     1      -0.902  -6.668   0.283  0.00  0.00    -0.375 OA
ENDBRANCH  35  36
ENDBRANCH  24  35
ENDBRANCH   1  24
TORSDOF 10
