REMARK  Name = ZINC08687389
REMARK  8 active torsions:
REMARK  status: ('A' for Active; 'I' for Inactive)
REMARK    1  A    between atoms: C_6  and  O_11
REMARK    2  A    between atoms: O_11  and  C_12
REMARK    3  A    between atoms: C_12  and  C_13
REMARK    4  A    between atoms: C_13  and  C_15
REMARK    5  A    between atoms: C_13  and  O_38
REMARK    6  A    between atoms: C_15  and  N_16
REMARK    7  A    between atoms: C_19  and  C_22
REMARK    8  A    between atoms: C_22  and  N_23
REMARK                            x       y       z     vdW  Elec       q    Type
REMARK                         _______ _______ _______ _____ _____    ______ ____
ROOT
ATOM      1  N   UNL     1       7.584  -6.664   0.141  0.00  0.00    +0.381 N 
ATOM      2  C   UNL     1       8.195  -6.186   1.388  0.00  0.00    -0.078 C 
ATOM      3  C   UNL     1       9.648  -6.661   1.463  0.00  0.00    -0.014 C 
ATOM      4  C   UNL     1       9.681  -8.192   1.430  0.00  0.00    +0.003 C 
ATOM      5  C   UNL     1       8.976  -8.681   0.161  0.00  0.00    -0.014 C 
ATOM      6  C   UNL     1       7.548  -8.131   0.134  0.00  0.00    -0.078 C 
ATOM      7  H   UNL     1       8.129  -6.338  -0.644  0.00  0.00    -0.082 HD
ENDROOT
BRANCH   1   8
ATOM      8  C   UNL     1       6.216  -6.141   0.037  0.00  0.00    -0.044 C 
BRANCH   8   9
ATOM      9  C   UNL     1       6.260  -4.616  -0.082  0.00  0.00    +0.135 C 
BRANCH   9  10
ATOM     10  O   UNL     1       6.898  -4.252  -1.307  0.00  0.00    -0.390 OA
ATOM     11  H   UNL     1       6.453  -4.587  -2.098  0.00  0.00    +0.210 HD
ENDBRANCH   9  10
BRANCH   9  12
ATOM     12  C   UNL     1       4.834  -4.062  -0.065  0.00  0.00    +0.258 C 
BRANCH  12  13
ATOM     13  O   UNL     1       4.878  -2.633  -0.059  0.00  0.00    -0.489 OA
BRANCH  13  19
ATOM     14  C   UNL     1      -0.016   1.357   0.009  0.00  0.00    +0.001 A 
ATOM     15  C   UNL     1       1.169   2.091   0.002  0.00  0.00    +0.001 A 
ATOM     16  C   UNL     1       2.378   1.468  -0.013  0.00  0.00    +0.008 A 
ATOM     17  C   UNL     1       2.437   0.063  -0.021  0.00  0.00    -0.014 A 
ATOM     18  C   UNL     1       3.668  -0.614  -0.037  0.00  0.00    +0.054 A 
ATOM     19  C   UNL     1       3.687  -1.980  -0.044  0.00  0.00    +0.121 A 
ATOM     20  C   UNL     1       2.497  -2.714  -0.036  0.00  0.00    +0.046 A 
ATOM     21  C   UNL     1       1.289  -2.088  -0.022  0.00  0.00    +0.012 A 
ATOM     22  C   UNL     1       1.232  -0.683  -0.013  0.00  0.00    -0.018 A 
ATOM     23  C   UNL     1       0.002  -0.004   0.002  0.00  0.00    +0.008 A 
ENDBRANCH  13  19
ENDBRANCH  12  13
ENDBRANCH   9  12
ENDBRANCH   8   9
ENDBRANCH   1   8
BRANCH   4  24
ATOM     24  C   UNL     1      11.134  -8.672   1.425  0.00  0.00    +0.120 C 
BRANCH  24  25
ATOM     25  N   UNL     1      11.165 -10.134   1.513  0.00  0.00    -0.234 N 
ATOM     26  C   UNL     1      11.202 -10.709   2.730  0.00  0.00    +0.254 C 
ATOM     27  O   UNL     1      11.208 -10.013   3.728  0.00  0.00    -0.270 OA
ATOM     28  C   UNL     1      11.233 -12.173   2.860  0.00  0.00    +0.046 A 
ATOM     29  C   UNL     1      11.271 -12.807   4.093  0.00  0.00    +0.014 A 
ATOM     30  C   UNL     1      11.300 -14.195   4.163  0.00  0.00    +0.001 A 
ATOM     31  C   UNL     1      11.293 -14.969   3.039  0.00  0.00    +0.008 A 
ATOM     32  C   UNL     1      11.255 -14.366   1.770  0.00  0.00    -0.016 A 
ATOM     33  C   UNL     1      11.225 -12.958   1.684  0.00  0.00    +0.006 A 
ATOM     34  C   UNL     1      11.187 -12.322   0.423  0.00  0.00    +0.046 A 
ATOM     35  C   UNL     1      11.179 -13.101  -0.725  0.00  0.00    +0.014 A 
ATOM     36  C   UNL     1      11.209 -14.487  -0.627  0.00  0.00    +0.001 A 
ATOM     37  C   UNL     1      11.245 -15.119   0.583  0.00  0.00    +0.008 A 
ATOM     38  C   UNL     1      11.152 -10.853   0.375  0.00  0.00    +0.254 C 
ATOM     39  O   UNL     1      11.114 -10.284  -0.700  0.00  0.00    -0.270 OA
ENDBRANCH  24  25
ENDBRANCH   4  24
TORSDOF 8
