REMARK  Name = ZINC61594353
REMARK  7 active torsions:
REMARK  status: ('A' for Active; 'I' for Inactive)
REMARK    1  A    between atoms: C_1  and  C_2
REMARK    2  A    between atoms: C_2  and  N_3
REMARK    3  A    between atoms: C_9  and  S_10
REMARK    4  A    between atoms: S_10  and  C_11
REMARK    5  A    between atoms: C_11  and  C_13
REMARK    6  A    between atoms: C_11  and  C_15
REMARK    7  A    between atoms: C_13  and  N_14
REMARK                            x       y       z     vdW  Elec       q    Type
REMARK                         _______ _______ _______ _____ _____    ______ ____
ROOT
ATOM      1  C   UNL     1      -2.969  -1.248  -3.777  0.00  0.00    +0.068 C 
ENDROOT
BRANCH   1   2
ATOM      2  C   UNL     1      -2.450  -1.228  -5.192  0.00  0.00    -0.022 A 
ATOM      3  C   UNL     1      -1.094  -1.103  -5.429  0.00  0.00    +0.006 A 
ATOM      4  C   UNL     1      -0.619  -1.085  -6.727  0.00  0.00    +0.000 A 
ATOM      5  C   UNL     1      -1.499  -1.192  -7.788  0.00  0.00    +0.001 A 
ATOM      6  C   UNL     1      -2.854  -1.316  -7.551  0.00  0.00    +0.015 A 
ATOM      7  C   UNL     1      -3.330  -1.340  -6.252  0.00  0.00    +0.022 A 
ATOM      8 BR   UNL     1      -5.185  -1.517  -5.928  0.00  0.00    -0.050 Br
ENDBRANCH   1   2
BRANCH   1   9
ATOM      9  S   UNL     1      -1.858  -0.288  -2.712  0.00  0.00    -0.080 S 
BRANCH   9  16
ATOM     10  N   UNL     1      -2.207   0.327  -0.004  0.00  0.00    -0.271 N 
ATOM     11  C   UNL     1      -3.145   0.204   0.955  0.00  0.00    +0.345 A 
ATOM     12  O   UNL     1      -3.047   0.579   2.110  0.00  0.00    -0.245 OA
ATOM     13  N   UNL     1      -4.213  -0.409   0.405  0.00  0.00    -0.226 N 
ATOM     14  H   UNL     1      -5.043  -0.632   0.855  0.00  0.00    +0.194 HD
ATOM     15  N   UNL     1      -3.904  -0.665  -0.938  0.00  0.00    -0.145 NA
ATOM     16  C   UNL     1      -2.705  -0.214  -1.169  0.00  0.00    +0.193 A 
BRANCH  10  18
ATOM     17  C   UNL     1      -0.973   2.433  -0.143  0.00  0.00    +0.027 C 
ATOM     18  C   UNL     1      -0.885   0.937   0.161  0.00  0.00    +0.125 C 
ENDBRANCH  10  18
ENDBRANCH   9  16
ENDBRANCH   1   9
BRANCH   1  19
ATOM     19  C   UNL     1      -3.032  -2.693  -3.277  0.00  0.00    -0.067 C 
BRANCH  19  20
ATOM     20  N   UNL     1      -4.038  -3.434  -4.049  0.00  0.00    +0.379 N 
ATOM     21  H   UNL     1      -4.109  -4.375  -3.692  0.00  0.00    -0.090 HD
ATOM     22  H   UNL     1      -4.932  -2.974  -3.965  0.00  0.00    -0.090 HD
ATOM     23  H   UNL     1      -3.764  -3.463  -5.019  0.00  0.00    -0.090 HD
ENDBRANCH  19  20
ENDBRANCH   1  19
TORSDOF 6
