REMARK  Name = ZINC39710891
REMARK  10 active torsions:
REMARK  status: ('A' for Active; 'I' for Inactive)
REMARK    1  A    between atoms: C_1  and  C_2
REMARK    2  A    between atoms: C_8  and  C_14
REMARK    3  A    between atoms: C_14  and  C_16
REMARK    4  A    between atoms: C_14  and  N_28
REMARK    5  A    between atoms: N_20  and  C_21
REMARK    6  A    between atoms: C_21  and  C_22
REMARK    7  A    between atoms: N_28  and  C_29
REMARK    8  A    between atoms: N_28  and  C_36
REMARK    9  A    between atoms: C_29  and  C_30
REMARK   10  A    between atoms: C_36  and  C_37
REMARK                            x       y       z     vdW  Elec       q    Type
REMARK                         _______ _______ _______ _____ _____    ______ ____
ROOT
ATOM      1  C   UNL     1       1.624  -2.064   4.130  0.00  0.00    +0.019 C 
ENDROOT
BRANCH   1   9
ATOM      2  C   UNL     1      -3.540  -0.146   6.837  0.00  0.00    +0.045 C 
ATOM      3  C   UNL     1      -2.425   0.613   6.165  0.00  0.00    -0.029 A 
ATOM      4  C   UNL     1      -2.306   1.952   6.362  0.00  0.00    +0.005 A 
ATOM      5  C   UNL     1      -1.298   2.713   5.771  0.00  0.00    +0.001 A 
ATOM      6  C   UNL     1      -0.370   2.148   4.956  0.00  0.00    +0.009 A 
ATOM      7  C   UNL     1      -0.439   0.709   4.700  0.00  0.00    -0.007 A 
ATOM      8  C   UNL     1       0.471   0.098   3.889  0.00  0.00    -0.006 C 
ATOM      9  C   UNL     1       0.323  -1.396   3.680  0.00  0.00    +0.092 C 
ATOM     10  C   UNL     1      -0.821  -2.087   4.388  0.00  0.00    +0.223 C 
ATOM     11  O   UNL     1      -0.987  -3.285   4.256  0.00  0.00    -0.275 OA
ATOM     12  N   UNL     1      -1.641  -1.384   5.151  0.00  0.00    -0.284 N 
ATOM     13  C   UNL     1      -1.511  -0.071   5.342  0.00  0.00    +0.043 A 
ATOM     14  H   UNL     1      -2.368  -1.846   5.596  0.00  0.00    +0.155 HD
ENDBRANCH   1   9
BRANCH   1  15
ATOM     15  C   UNL     1       2.737  -1.679   3.191  0.00  0.00    +0.139 A 
ATOM     16  N   UNL     1       3.330  -0.512   3.117  0.00  0.00    -0.115 NA
ATOM     17  N   UNL     1       4.227  -0.579   2.195  0.00  0.00    -0.023 NA
ATOM     18  N   UNL     1       4.221  -1.758   1.677  0.00  0.00    -0.044 NA
ATOM     19  N   UNL     1       3.320  -2.467   2.269  0.00  0.00    -0.226 N 
BRANCH  19  20
ATOM     20  C   UNL     1       2.991  -3.866   1.987  0.00  0.00    +0.182 C 
BRANCH  20  21
ATOM     21  C   UNL     1       1.940  -3.928   0.908  0.00  0.00    -0.026 A 
ATOM     22  C   UNL     1       0.600  -3.876   1.245  0.00  0.00    +0.005 A 
ATOM     23  C   UNL     1      -0.364  -3.932   0.256  0.00  0.00    +0.000 A 
ATOM     24  C   UNL     1       0.012  -4.040  -1.070  0.00  0.00    +0.000 A 
ATOM     25  C   UNL     1       1.352  -4.091  -1.407  0.00  0.00    +0.000 A 
ATOM     26  C   UNL     1       2.316  -4.030  -0.418  0.00  0.00    +0.005 A 
ENDBRANCH  20  21
ENDBRANCH  19  20
ENDBRANCH   1  15
BRANCH   1  27
ATOM     27  N   UNL     1       1.956  -1.623   5.491  0.00  0.00    +0.394 N 
ATOM     28  H   UNL     1       2.172  -0.637   5.482  0.00  0.00    -0.080 HD
BRANCH  27  29
ATOM     29  C   UNL     1       0.810  -1.864   6.378  0.00  0.00    -0.041 C 
BRANCH  29  30
ATOM     30  C   UNL     1       1.165  -1.448   7.782  0.00  0.00    -0.064 A 
ATOM     31  C   UNL     1       1.739  -2.359   8.649  0.00  0.00    +0.002 A 
ATOM     32  C   UNL     1       2.065  -1.978   9.937  0.00  0.00    +0.000 A 
ATOM     33  C   UNL     1       1.816  -0.685  10.358  0.00  0.00    +0.000 A 
ATOM     34  C   UNL     1       1.243   0.227   9.491  0.00  0.00    +0.000 A 
ATOM     35  C   UNL     1       0.921  -0.154   8.202  0.00  0.00    +0.002 A 
ENDBRANCH  29  30
ENDBRANCH  27  29
BRANCH  27  36
ATOM     36  C   UNL     1       3.120  -2.374   5.979  0.00  0.00    -0.002 C 
BRANCH  36  37
ATOM     37  C   UNL     1       4.344  -1.968   5.200  0.00  0.00    +0.089 A 
ATOM     38  C   UNL     1       5.090  -0.871   5.423  0.00  0.00    +0.042 A 
ATOM     39  C   UNL     1       6.131  -0.883   4.466  0.00  0.00    +0.041 A 
ATOM     40  C   UNL     1       5.958  -1.985   3.715  0.00  0.00    +0.195 A 
ATOM     41  O   UNL     1       4.877  -2.641   4.168  0.00  0.00    -0.470 OA
ENDBRANCH  36  37
ENDBRANCH  27  36
ENDBRANCH   1  27
TORSDOF 9
