REMARK  Name = ZINC41249311
REMARK  7 active torsions:
REMARK  status: ('A' for Active; 'I' for Inactive)
REMARK    1  A    between atoms: C_1  and  C_2
REMARK    2  A    between atoms: C_2  and  C_3
REMARK    3  A    between atoms: C_10  and  O_11
REMARK    4  A    between atoms: C_13  and  C_17
REMARK    5  A    between atoms: C_22  and  O_23
REMARK    6  A    between atoms: O_23  and  C_24
REMARK    7  A    between atoms: C_24  and  C_25
REMARK                            x       y       z     vdW  Elec       q    Type
REMARK                         _______ _______ _______ _____ _____    ______ ____
ROOT
ATOM      1  C   UNL     1       0.575  -0.515  -1.336  0.00  0.00    +0.217 C 
ATOM      2  O   UNL     1       0.624   0.196  -2.324  0.00  0.00    -0.275 OA
ATOM      3  N   UNL     1       0.909  -1.788  -1.422  0.00  0.00    -0.285 N 
ATOM      4  C   UNL     1       1.439  -2.276  -2.578  0.00  0.00    +0.037 A 
ATOM      5  C   UNL     1       1.958  -1.390  -3.538  0.00  0.00    +0.024 A 
ATOM      6  C   UNL     1       2.489  -1.866  -4.696  0.00  0.00    +0.017 A 
ATOM      7  C   UNL     1       2.520  -3.248  -4.936  0.00  0.00    +0.059 A 
ATOM      8  C   UNL     1       3.070  -3.764  -6.138  0.00  0.00    +0.131 A 
ATOM      9  C   UNL     1       3.076  -5.145  -6.324  0.00  0.00    +0.093 A 
ATOM     10  C   UNL     1       2.552  -5.971  -5.348  0.00  0.00    +0.143 A 
ATOM     11  O   UNL     1       2.034  -5.475  -4.214  0.00  0.00    -0.454 OA
ATOM     12  C   UNL     1       2.002  -4.146  -3.979  0.00  0.00    +0.141 A 
ATOM     13  C   UNL     1       1.468  -3.653  -2.801  0.00  0.00    +0.070 A 
ATOM     14  H   UNL     1       0.778  -2.376  -0.662  0.00  0.00    +0.155 HD
ENDROOT
BRANCH  10  15
ATOM     15  C   UNL     1       2.563  -7.429  -5.556  0.00  0.00    +0.059 A 
ATOM     16  C   UNL     1       3.212  -7.976  -6.668  0.00  0.00    +0.015 A 
ATOM     17  C   UNL     1       3.219  -9.340  -6.856  0.00  0.00    +0.001 A 
ATOM     18  C   UNL     1       2.585 -10.175  -5.949  0.00  0.00    +0.004 A 
ATOM     19  C   UNL     1       1.941  -9.649  -4.847  0.00  0.00    +0.046 A 
ATOM     20  C   UNL     1       1.929  -8.278  -4.637  0.00  0.00    +0.131 A 
BRANCH  20  21
ATOM     21  O   UNL     1       1.300  -7.761  -3.552  0.00  0.00    -0.492 OA
BRANCH  21  22
ATOM     22  C   UNL     1       0.676  -8.687  -2.660  0.00  0.00    +0.226 C 
ATOM     23  C   UNL     1       0.025  -7.923  -1.505  0.00  0.00    +0.048 C 
ENDBRANCH  21  22
ENDBRANCH  20  21
ENDBRANCH  10  15
BRANCH   1  25
ATOM     24  C   UNL     1      -0.197   1.544  -0.189  0.00  0.00    +0.013 C 
ATOM     25  C   UNL     1       0.131   0.059  -0.015  0.00  0.00    +0.093 C 
ENDBRANCH   1  25
BRANCH   8  26
ATOM     26  O   UNL     1       3.576  -2.936  -7.078  0.00  0.00    -0.506 OA
ATOM     27  H   UNL     1       3.925  -3.392  -7.856  0.00  0.00    +0.292 HD
ENDBRANCH   8  26
TORSDOF 5
