REMARK  Name = ZINC39672850
REMARK  8 active torsions:
REMARK  status: ('A' for Active; 'I' for Inactive)
REMARK    1  A    between atoms: C_1  and  C_2
REMARK    2  A    between atoms: C_2  and  C_3
REMARK    3  A    between atoms: C_3  and  C_5
REMARK    4  A    between atoms: C_3  and  C_6
REMARK    5  A    between atoms: C_10  and  C_19
REMARK    6  A    between atoms: N_21  and  C_22
REMARK    7  A    between atoms: C_22  and  C_23
REMARK    8  A    between atoms: C_23  and  N_29
REMARK                            x       y       z     vdW  Elec       q    Type
REMARK                         _______ _______ _______ _____ _____    ______ ____
ROOT
ATOM      1  C   UNL     1       0.962  -1.713  -0.909  0.00  0.00    +0.218 C 
ATOM      2  O   UNL     1       0.514  -2.314   0.045  0.00  0.00    -0.275 OA
ATOM      3  N   UNL     1       1.494  -2.392  -1.944  0.00  0.00    -0.300 N 
ATOM      4  C   UNL     1       2.091  -1.839  -3.183  0.00  0.00    +0.121 C 
ATOM      5  C   UNL     1       3.314  -2.742  -3.463  0.00  0.00    +0.100 C 
ATOM      6  C   UNL     1       2.994  -4.067  -2.752  0.00  0.00    -0.004 C 
ATOM      7  C   UNL     1       1.621  -3.861  -2.098  0.00  0.00    +0.115 C 
ATOM      8  C   UNL     1       4.043  -4.360  -1.683  0.00  0.00    -0.010 C 
ATOM      9  C   UNL     1       3.736  -5.710  -1.030  0.00  0.00    -0.082 C 
ATOM     10  N   UNL     1       3.744  -6.763  -2.052  0.00  0.00    +0.379 N 
ATOM     11  C   UNL     1       2.672  -6.524  -3.026  0.00  0.00    -0.082 C 
ATOM     12  C   UNL     1       2.933  -5.208  -3.764  0.00  0.00    -0.010 C 
ATOM     13  H   UNL     1       4.634  -6.763  -2.527  0.00  0.00    -0.086 HD
ATOM     14  H   UNL     1       3.602  -7.660  -1.611  0.00  0.00    -0.086 HD
ENDROOT
BRANCH   5  15
ATOM     15  C   UNL     1       4.564  -2.124  -2.891  0.00  0.00    +0.218 C 
ATOM     16  O   UNL     1       4.492  -1.397  -1.924  0.00  0.00    -0.275 OA
ATOM     17  N   UNL     1       5.761  -2.381  -3.454  0.00  0.00    -0.313 N 
ATOM     18  H   UNL     1       5.818  -2.964  -4.228  0.00  0.00    +0.149 HD
BRANCH  17  19
ATOM     19  C   UNL     1       6.976  -1.781  -2.898  0.00  0.00    +0.126 C 
BRANCH  19  20
ATOM     20  C   UNL     1       8.169  -2.124  -3.792  0.00  0.00    +0.038 C 
ATOM     21  C   UNL     1       9.457  -1.610  -3.144  0.00  0.00    +0.024 C 
ATOM     22  C   UNL     1       9.369  -0.092  -2.970  0.00  0.00    +0.002 C 
ATOM     23  C   UNL     1       9.187   0.569  -4.338  0.00  0.00    +0.000 C 
ATOM     24  C   UNL     1       7.900   0.054  -4.986  0.00  0.00    +0.002 C 
ATOM     25  C   UNL     1       7.988  -1.463  -5.160  0.00  0.00    +0.024 C 
BRANCH  20  26
ATOM     26  N   UNL     1       8.254  -3.581  -3.959  0.00  0.00    -0.291 NA
ATOM     27  C   UNL     1       8.361  -4.255  -2.658  0.00  0.00    +0.113 C 
ATOM     28  C   UNL     1       8.386  -5.771  -2.875  0.00  0.00    +0.175 C 
ATOM     29  O   UNL     1       9.468  -6.104  -3.748  0.00  0.00    -0.377 OA
ATOM     30  C   UNL     1       9.395  -5.465  -5.026  0.00  0.00    +0.175 C 
ATOM     31  C   UNL     1       9.380  -3.947  -4.830  0.00  0.00    +0.113 C 
ENDBRANCH  20  26
ENDBRANCH  19  20
ENDBRANCH  17  19
ENDBRANCH   5  15
BRANCH   1  32
ATOM     32  C   UNL     1       0.923  -0.207  -0.936  0.00  0.00    +0.072 C 
ATOM     33  C   UNL     1       0.108   0.261  -2.144  0.00  0.00    +0.017 C 
BRANCH  32  35
ATOM     34  C   UNL     1       0.346   1.838   0.378  0.00  0.00    +0.004 C 
ATOM     35  C   UNL     1       0.274   0.310   0.349  0.00  0.00    +0.009 C 
ENDBRANCH  32  35
ENDBRANCH   1  32
TORSDOF 6
