REMARK  Name = ZINC02373822
REMARK  6 active torsions:
REMARK  status: ('A' for Active; 'I' for Inactive)
REMARK    1  A    between atoms: C_9  and  C_23
REMARK    2  A    between atoms: C_10  and  N_22
REMARK    3  A    between atoms: N_11  and  N_14
REMARK    4  A    between atoms: C_15  and  C_16
REMARK    5  A    between atoms: N_25  and  C_26
REMARK    6  A    between atoms: C_26  and  C_27
REMARK                            x       y       z     vdW  Elec       q    Type
REMARK                         _______ _______ _______ _____ _____    ______ ____
ROOT
ATOM      1  C   UNL     1       5.489   4.134  -0.026  0.00  0.00    +0.002 A 
ATOM      2  C   UNL     1       4.967   5.427  -0.014  0.00  0.00    +0.002 A 
ATOM      3  C   UNL     1       3.623   5.639  -0.001  0.00  0.00    +0.030 A 
ATOM      4  C   UNL     1       2.741   4.543   0.002  0.00  0.00    +0.092 A 
ATOM      5  C   UNL     1       3.272   3.228  -0.011  0.00  0.00    +0.090 A 
ATOM      6  C   UNL     1       4.668   3.050  -0.025  0.00  0.00    +0.030 A 
ATOM      7  N   UNL     1       2.455   2.168  -0.009  0.00  0.00    -0.241 NA
ATOM      8  C   UNL     1       1.150   2.354   0.004  0.00  0.00    +0.124 A 
ATOM      9  C   UNL     1      -0.018   1.457   0.010  0.00  0.00    +0.105 A 
ATOM     10  C   UNL     1      -1.143   2.273   0.019  0.00  0.00    +0.134 A 
ATOM     11  N   UNL     1      -0.778   3.588   0.029  0.00  0.00    -0.198 N 
ATOM     12  C   UNL     1       0.599   3.711   0.016  0.00  0.00    +0.183 A 
ATOM     13  N   UNL     1       1.417   4.742   0.015  0.00  0.00    -0.224 NA
ENDROOT
BRANCH   9  14
ATOM     14  C   UNL     1       0.002  -0.004   0.002  0.00  0.00    +0.250 C 
ATOM     15  O   UNL     1       0.020  -0.619   1.053  0.00  0.00    -0.270 OA
ATOM     16  N   UNL     1       0.000  -0.672  -1.169  0.00  0.00    -0.307 N 
ATOM     17  H   UNL     1      -0.015  -0.182  -2.006  0.00  0.00    +0.149 HD
BRANCH  16  18
ATOM     18  C   UNL     1       0.020  -2.136  -1.177  0.00  0.00    +0.147 C 
BRANCH  18  19
ATOM     19  C   UNL     1       0.013  -2.631  -2.600  0.00  0.00    +0.007 A 
ATOM     20  C   UNL     1       1.062  -2.892  -3.418  0.00  0.00    +0.013 A 
ATOM     21  C   UNL     1       0.816  -3.346  -4.700  0.00  0.00    +0.008 A 
ATOM     22  C   UNL     1      -0.468  -3.508  -5.105  0.00  0.00    +0.045 A 
ATOM     23  S   UNL     1      -1.379  -3.018  -3.649  0.00  0.00    -0.100 S 
ENDBRANCH  18  19
ENDBRANCH  16  18
ENDBRANCH   9  14
BRANCH  10  24
ATOM     24  N   UNL     1      -2.438   1.821   0.021  0.00  0.00    -0.342 N 
ATOM     25  H   UNL     1      -2.618   0.868   0.016  0.00  0.00    +0.144 HD
ATOM     26  H   UNL     1      -3.172   2.454   0.028  0.00  0.00    +0.144 HD
ENDBRANCH  10  24
BRANCH  11  27
ATOM     27  N   UNL     1      -1.674   4.664   0.043  0.00  0.00    -0.170 NA
ATOM     28  C   UNL     1      -2.100   5.169  -1.074  0.00  0.00    +0.161 C 
BRANCH  28  29
ATOM     29  C   UNL     1      -3.044   6.302  -1.059  0.00  0.00    +0.084 A 
ATOM     30  C   UNL     1      -3.499   6.841  -2.264  0.00  0.00    +0.029 A 
ATOM     31  C   UNL     1      -4.385   7.903  -2.233  0.00  0.00    +0.004 A 
ATOM     32  C   UNL     1      -4.788   8.394  -0.998  0.00  0.00    +0.020 A 
ATOM     33  C   UNL     1      -4.298   7.813   0.157  0.00  0.00    +0.111 A 
ATOM     34  N   UNL     1      -3.459   6.799   0.102  0.00  0.00    -0.254 NA
ENDBRANCH  28  29
ENDBRANCH  11  27
TORSDOF 6
