REMARK  Name = ZINC27864435
REMARK  9 active torsions:
REMARK  status: ('A' for Active; 'I' for Inactive)
REMARK    1  A    between atoms: C_1  and  C_2
REMARK    2  A    between atoms: C_2  and  O_3
REMARK    3  A    between atoms: O_3  and  C_4
REMARK    4  A    between atoms: C_4  and  C_6
REMARK    5  A    between atoms: C_7  and  C_19
REMARK    6  A    between atoms: C_12  and  C_14
REMARK    7  A    between atoms: C_19  and  N_20
REMARK    8  A    between atoms: C_23  and  C_27
REMARK    9  A    between atoms: C_23  and  C_28
REMARK                            x       y       z     vdW  Elec       q    Type
REMARK                         _______ _______ _______ _____ _____    ______ ____
ROOT
ATOM      1  C   UNL     1       1.347  -2.337  -2.520  0.00  0.00    +0.083 C 
ATOM      2  C   UNL     1       1.638  -3.653  -2.610  0.00  0.00    +0.042 C 
ATOM      3  N   UNL     1       2.341  -4.149  -3.670  0.00  0.00    -0.271 N 
ATOM      4  C   UNL     1       2.799  -3.393  -4.676  0.00  0.00    +0.304 C 
ATOM      5  O   UNL     1       3.420  -3.924  -5.576  0.00  0.00    -0.252 OA
ATOM      6  N   UNL     1       2.592  -2.062  -4.724  0.00  0.00    -0.285 N 
ATOM      7  C   UNL     1       1.838  -1.429  -3.629  0.00  0.00    +0.179 C 
ATOM      8  H   UNL     1       2.561  -5.225  -3.730  0.00  0.00    +0.156 HD
ATOM      9  H   UNL     1       2.973  -1.449  -5.555  0.00  0.00    +0.151 HD
ENDROOT
BRANCH   7  10
ATOM     10  C   UNL     1       2.717  -0.373  -3.010  0.00  0.00    +0.130 A 
ATOM     11  C   UNL     1       2.346   0.887  -2.719  0.00  0.00    +0.047 A 
ATOM     12  C   UNL     1       3.475   1.526  -2.156  0.00  0.00    +0.041 A 
ATOM     13  C   UNL     1       4.467   0.618  -2.136  0.00  0.00    +0.195 A 
ATOM     14  O   UNL     1       4.000  -0.532  -2.649  0.00  0.00    -0.466 OA
ENDBRANCH   7  10
BRANCH   1  15
ATOM     15  C   UNL     1       0.614  -1.824  -1.425  0.00  0.00    +0.339 C 
ATOM     16  O   UNL     1      -0.566  -1.555  -1.554  0.00  0.00    -0.245 OA
BRANCH  15  17
ATOM     17  O   UNL     1       1.223  -1.631  -0.236  0.00  0.00    -0.462 OA
BRANCH  17  19
ATOM     18  C   UNL     1       1.279  -0.961   2.085  0.00  0.00    +0.048 C 
ATOM     19  C   UNL     1       0.422  -1.110   0.826  0.00  0.00    +0.229 C 
ENDBRANCH  17  19
ENDBRANCH  15  17
ENDBRANCH   1  15
BRANCH   2  20
ATOM     20  C   UNL     1       1.173  -4.591  -1.525  0.00  0.00    +0.169 C 
BRANCH  20  21
ATOM     21  N   UNL     1       0.211  -5.544  -2.083  0.00  0.00    -0.218 N 
ATOM     22  C   UNL     1       0.548  -6.735  -2.618  0.00  0.00    +0.251 C 
ATOM     23  O   UNL     1       1.662  -7.201  -2.724  0.00  0.00    -0.272 OA
ATOM     24  C   UNL     1      -0.756  -7.370  -3.058  0.00  0.00    +0.138 C 
ATOM     25  N   UNL     1      -1.772  -6.370  -2.686  0.00  0.00    -0.281 N 
ATOM     26  C   UNL     1      -1.111  -5.343  -2.120  0.00  0.00    +0.310 C 
ATOM     27  O   UNL     1      -1.655  -4.344  -1.693  0.00  0.00    -0.252 OA
ATOM     28  C   UNL     1      -0.756  -7.606  -4.570  0.00  0.00    +0.047 C 
ATOM     29  H   UNL     1      -2.834  -6.562  -2.893  0.00  0.00    +0.152 HD
BRANCH  24  30
ATOM     30  C   UNL     1      -0.991  -8.664  -2.321  0.00  0.00    +0.022 A 
ATOM     31  C   UNL     1      -2.114  -8.814  -1.530  0.00  0.00    +0.047 A 
ATOM     32  C   UNL     1      -2.331 -10.003  -0.856  0.00  0.00    +0.124 A 
ATOM     33  C   UNL     1      -1.420 -11.040  -0.968  0.00  0.00    +0.041 A 
ATOM     34  C   UNL     1      -0.295 -10.888  -1.756  0.00  0.00    +0.041 A 
ATOM     35  C   UNL     1      -0.080  -9.699  -2.433  0.00  0.00    +0.129 A 
ATOM     36  F   UNL     1       1.020  -9.551  -3.204  0.00  0.00    -0.205 F 
ATOM     37  F   UNL     1      -3.430 -10.151  -0.084  0.00  0.00    -0.205 F 
ENDBRANCH  24  30
ENDBRANCH  20  21
ENDBRANCH   2  20
TORSDOF 7
