REMARK  Name = ZINC40619840
REMARK  13 active torsions:
REMARK  status: ('A' for Active; 'I' for Inactive)
REMARK    1  A    between atoms: C_1  and  C_2
REMARK    2  A    between atoms: C_2  and  C_3
REMARK    3  A    between atoms: C_3  and  C_4
REMARK    4  A    between atoms: C_4  and  O_5
REMARK    5  A    between atoms: O_5  and  C_6
REMARK    6  A    between atoms: C_9  and  N_12
REMARK    7  A    between atoms: C_14  and  N_30
REMARK    8  A    between atoms: C_15  and  N_19
REMARK    9  A    between atoms: N_19  and  C_20
REMARK   10  A    between atoms: C_22  and  C_28
REMARK   11  A    between atoms: C_22  and  C_29
REMARK   12  A    between atoms: C_24  and  C_26
REMARK   13  A    between atoms: C_24  and  C_27
REMARK                            x       y       z     vdW  Elec       q    Type
REMARK                         _______ _______ _______ _____ _____    ______ ____
ROOT
ATOM      1  N   UNL     1       2.492  -7.885  -3.681  0.00  0.00    -0.297 N 
ATOM      2  C   UNL     1       2.924  -8.473  -4.861  0.00  0.00    +0.159 A 
ATOM      3  C   UNL     1       2.874  -9.854  -5.021  0.00  0.00    +0.205 A 
ATOM      4  C   UNL     1       3.318 -10.395  -6.223  0.00  0.00    +0.155 A 
ATOM      5  N   UNL     1       3.772  -9.577  -7.171  0.00  0.00    -0.218 NA
ATOM      6  C   UNL     1       3.803  -8.274  -6.981  0.00  0.00    +0.225 A 
ATOM      7  N   UNL     1       3.387  -7.723  -5.859  0.00  0.00    -0.218 NA
ATOM      8  H   UNL     1       2.079  -8.428  -2.991  0.00  0.00    +0.154 HD
ENDROOT
BRANCH   1  12
ATOM      9  C   UNL     1       2.971  -3.784  -3.098  0.00  0.00    +0.121 A 
ATOM     10  C   UNL     1       1.879  -4.440  -2.548  0.00  0.00    +0.047 A 
ATOM     11  C   UNL     1       1.720  -5.798  -2.741  0.00  0.00    +0.027 A 
ATOM     12  C   UNL     1       2.653  -6.508  -3.486  0.00  0.00    +0.033 A 
ATOM     13  C   UNL     1       3.745  -5.851  -4.036  0.00  0.00    +0.027 A 
ATOM     14  C   UNL     1       3.900  -4.492  -3.847  0.00  0.00    +0.047 A 
BRANCH   9  15
ATOM     15  O   UNL     1       3.127  -2.447  -2.909  0.00  0.00    -0.492 OA
BRANCH  15  16
ATOM     16  C   UNL     1       2.132  -1.782  -2.127  0.00  0.00    +0.229 C 
BRANCH  16  17
ATOM     17  C   UNL     1       2.474  -0.294  -2.025  0.00  0.00    +0.041 C 
BRANCH  17  19
ATOM     18  C   UNL     1       1.751   1.905  -1.085  0.00  0.00    +0.004 C 
ATOM     19  C   UNL     1       1.409   0.417  -1.188  0.00  0.00    -0.000 C 
ENDBRANCH  17  19
ENDBRANCH  16  17
ENDBRANCH  15  16
ENDBRANCH   9  15
ENDBRANCH   1  12
BRANCH   3  20
ATOM     20  N   UNL     1       2.361 -10.726  -3.939  0.00  0.00    +0.063 N 
ATOM     21  O   UNL     1       1.185 -11.001  -3.891  0.00  0.00    -0.126 OA
ATOM     22  O   UNL     1       3.119 -11.162  -3.104  0.00  0.00    -0.126 OA
ENDBRANCH   3  20
BRANCH   4  23
ATOM     23  N   UNL     1       3.289 -11.765  -6.431  0.00  0.00    -0.324 N 
ATOM     24  H   UNL     1       2.957 -12.355  -5.736  0.00  0.00    +0.148 HD
BRANCH  23  25
ATOM     25  C   UNL     1       3.761 -12.325  -7.704  0.00  0.00    +0.069 C 
ATOM     26  C   UNL     1       2.607 -12.330  -8.709  0.00  0.00    +0.009 C 
ATOM     27  C   UNL     1       3.079 -12.921 -10.037  0.00  0.00    -0.072 C 
ATOM     28  N   UNL     1       3.679 -14.237  -9.869  0.00  0.00    +0.386 N 
ATOM     29  C   UNL     1       4.649 -14.405  -8.799  0.00  0.00    -0.072 C 
ATOM     30  C   UNL     1       4.212 -13.768  -7.484  0.00  0.00    +0.009 C 
ATOM     31  C   UNL     1       6.030 -13.879  -9.200  0.00  0.00    -0.010 C 
ATOM     32  C   UNL     1       4.801 -15.924  -8.545  0.00  0.00    -0.010 C 
ATOM     33  C   UNL     1       4.019 -11.946 -10.745  0.00  0.00    -0.010 C 
ATOM     34  C   UNL     1       1.830 -13.088 -10.934  0.00  0.00    -0.010 C 
ATOM     35  H   UNL     1       2.927 -14.917  -9.731  0.00  0.00    -0.084 HD
ATOM     36  H   UNL     1       4.122 -14.503 -10.752  0.00  0.00    -0.084 HD
ENDBRANCH  23  25
ENDBRANCH   4  23
TORSDOF 8
