REMARK  Name = ZINC36162858
REMARK  6 active torsions:
REMARK  status: ('A' for Active; 'I' for Inactive)
REMARK    1  A    between atoms: C_1  and  C_2
REMARK    2  A    between atoms: C_2  and  C_8
REMARK    3  A    between atoms: C_11  and  C_14
REMARK    4  A    between atoms: C_14  and  C_15
REMARK    5  A    between atoms: C_14  and  C_16
REMARK    6  A    between atoms: C_14  and  C_17
REMARK                            x       y       z     vdW  Elec       q    Type
REMARK                         _______ _______ _______ _____ _____    ______ ____
ROOT
ATOM      1  C   UNL     1      -1.398  -0.558  -0.060  0.00  0.00    -0.003 A 
ATOM      2  C   UNL     1      -1.982  -0.824  -1.285  0.00  0.00    +0.008 A 
ATOM      3  C   UNL     1      -3.266  -1.333  -1.342  0.00  0.00    +0.004 A 
ATOM      4  C   UNL     1      -3.966  -1.575  -0.175  0.00  0.00    -0.042 A 
ATOM      5  C   UNL     1      -3.382  -1.310   1.050  0.00  0.00    +0.004 A 
ATOM      6  C   UNL     1      -2.096  -0.806   1.107  0.00  0.00    +0.008 A 
ENDROOT
BRANCH   1   8
ATOM      7  C   UNL     1      -0.019   1.526   0.010  0.00  0.00    +0.063 C 
ATOM      8  C   UNL     1       0.002  -0.004   0.002  0.00  0.00    +0.153 C 
ATOM      9  C   UNL     1       0.861  -0.538  -1.168  0.00  0.00    +0.160 C 
ATOM     10  N   UNL     1       2.177  -0.730  -0.527  0.00  0.00    -0.277 N 
ATOM     11  C   UNL     1       1.995  -0.683   0.806  0.00  0.00    +0.401 C 
ATOM     12  O   UNL     1       2.899  -0.781   1.612  0.00  0.00    -0.226 OA
ATOM     13  O   UNL     1       0.707  -0.515   1.150  0.00  0.00    -0.438 OA
ATOM     14  H   UNL     1       3.022  -0.865  -0.985  0.00  0.00    +0.152 HD
ENDBRANCH   1   8
BRANCH   4  15
ATOM     15  C   UNL     1      -5.367  -2.129  -0.237  0.00  0.00    -0.013 C 
ATOM     16  C   UNL     1      -5.348  -3.485  -0.946  0.00  0.00    +0.015 C 
ATOM     17  C   UNL     1      -5.910  -2.303   1.182  0.00  0.00    +0.015 C 
ATOM     18  C   UNL     1      -6.263  -1.161  -1.011  0.00  0.00    +0.015 C 
ENDBRANCH   4  15
TORSDOF 2
