REMARK  Name = ZINC01079335
REMARK  12 active torsions:
REMARK  status: ('A' for Active; 'I' for Inactive)
REMARK    1  A    between atoms: C_1  and  C_2
REMARK    2  A    between atoms: C_2  and  C_3
REMARK    3  A    between atoms: C_10  and  C_22
REMARK    4  A    between atoms: C_11  and  N_21
REMARK    5  A    between atoms: C_13  and  C_20
REMARK    6  A    between atoms: C_14  and  C_15
REMARK    7  A    between atoms: C_15  and  O_17
REMARK    8  A    between atoms: O_17  and  C_18
REMARK    9  A    between atoms: C_18  and  C_19
REMARK   10  A    between atoms: C_27  and  C_32
REMARK   11  A    between atoms: C_27  and  C_33
REMARK   12  A    between atoms: C_29  and  C_31
REMARK                            x       y       z     vdW  Elec       q    Type
REMARK                         _______ _______ _______ _____ _____    ______ ____
ROOT
ATOM      1  C   UNL     1       0.914   2.016   0.240  0.00  0.00    -0.047 A 
ATOM      2  C   UNL     1      -0.281   1.309   0.225  0.00  0.00    +0.009 A 
ATOM      3  C   UNL     1      -0.254  -0.059   0.135  0.00  0.00    -0.022 A 
ATOM      4  C   UNL     1       0.978  -0.709   0.061  0.00  0.00    +0.045 A 
ATOM      5  C   UNL     1       2.166  -0.014   0.074  0.00  0.00    -0.001 A 
ATOM      6  C   UNL     1       2.133   1.361   0.165  0.00  0.00    +0.010 A 
ATOM      7  C   UNL     1       3.238  -1.067  -0.024  0.00  0.00    +0.148 C 
ATOM      8  C   UNL     1       4.056  -0.875  -1.269  0.00  0.00    +0.110 C 
ATOM      9  C   UNL     1       5.321  -0.393  -1.192  0.00  0.00    +0.199 C 
ATOM     10  O   UNL     1       5.883  -0.069  -0.014  0.00  0.00    -0.445 OA
ATOM     11  C   UNL     1       5.366  -0.552   1.125  0.00  0.00    +0.116 C 
ATOM     12  C   UNL     1       4.119  -1.039   1.192  0.00  0.00    +0.099 C 
ATOM     13  C   UNL     1       6.214  -0.546   2.370  0.00  0.00    +0.087 C 
ATOM     14  C   UNL     1       2.485  -2.381  -0.092  0.00  0.00    +0.241 C 
ATOM     15  O   UNL     1       2.975  -3.486  -0.185  0.00  0.00    -0.273 OA
ATOM     16  N   UNL     1       1.180  -2.096  -0.030  0.00  0.00    -0.264 N 
ATOM     17  C   UNL     1       0.014  -2.996  -0.044  0.00  0.00    +0.037 C 
ATOM     18  C   UNL     1      -1.134  -2.309   0.704  0.00  0.00    +0.033 C 
ATOM     19  C   UNL     1      -1.474  -0.942   0.105  0.00  0.00    +0.020 C 
ATOM     20  C   UNL     1      -2.593  -0.292   0.922  0.00  0.00    +0.012 C 
ATOM     21  C   UNL     1       0.370  -4.311   0.652  0.00  0.00    +0.032 C 
ATOM     22  C   UNL     1      -0.406  -3.274  -1.489  0.00  0.00    +0.032 C 
ENDROOT
BRANCH   9  23
ATOM     23  N   UNL     1       6.047  -0.232  -2.346  0.00  0.00    -0.328 N 
ATOM     24  H   UNL     1       5.654  -0.462  -3.202  0.00  0.00    +0.145 HD
ATOM     25  H   UNL     1       6.953   0.112  -2.305  0.00  0.00    +0.145 HD
ENDBRANCH   9  23
BRANCH   1  27
ATOM     26  C   UNL     1       0.913   3.933   1.813  0.00  0.00    +0.009 C 
ATOM     27  C   UNL     1       0.885   3.519   0.340  0.00  0.00    +0.032 C 
ENDBRANCH   1  27
BRANCH  12  28
ATOM     28  C   UNL     1       3.626  -1.534   2.424  0.00  0.00    +0.340 C 
ATOM     29  O   UNL     1       2.534  -2.069   2.472  0.00  0.00    -0.245 OA
BRANCH  28  30
ATOM     30  O   UNL     1       4.367  -1.412   3.545  0.00  0.00    -0.462 OA
BRANCH  30  31
ATOM     31  C   UNL     1       3.861  -2.033   4.728  0.00  0.00    +0.229 C 
ATOM     32  C   UNL     1       4.886  -1.894   5.856  0.00  0.00    +0.048 C 
ENDBRANCH  30  31
ENDBRANCH  28  30
ENDBRANCH  12  28
BRANCH   8  33
ATOM     33  C   UNL     1       3.496  -1.204  -2.545  0.00  0.00    +0.102 C 
ATOM     34  N   UNL     1       3.052  -1.464  -3.558  0.00  0.00    -0.191 NA
ENDBRANCH   8  33
TORSDOF 6
