REMARK  Name = ZINC35581044
REMARK  5 active torsions:
REMARK  status: ('A' for Active; 'I' for Inactive)
REMARK    1  A    between atoms: C_1  and  C_2
REMARK    2  A    between atoms: C_3  and  C_12
REMARK    3  A    between atoms: C_12  and  C_14
REMARK    4  A    between atoms: C_12  and  N_17
REMARK    5  A    between atoms: C_21  and  C_24
REMARK                            x       y       z     vdW  Elec       q    Type
REMARK                         _______ _______ _______ _____ _____    ______ ____
ROOT
ATOM      1  N   UNL     1      -0.621   0.909  -2.699  0.00  0.00    +0.392 N 
ATOM      2  C   UNL     1      -1.995   0.612  -2.279  0.00  0.00    -0.077 C 
ATOM      3  C   UNL     1      -2.850   1.876  -2.385  0.00  0.00    -0.018 C 
ATOM      4  C   UNL     1      -2.852   2.364  -3.837  0.00  0.00    +0.006 C 
ATOM      5  C   UNL     1      -1.408   2.600  -4.288  0.00  0.00    +0.028 C 
ATOM      6  C   UNL     1      -0.607   1.309  -4.111  0.00  0.00    -0.067 C 
ATOM      7  H   UNL     1      -0.254   1.661  -2.134  0.00  0.00    -0.080 HD
ENDROOT
BRANCH   5   8
ATOM      8  C   UNL     1      -1.394   3.008  -5.739  0.00  0.00    +0.081 A 
ATOM      9  N   UNL     1      -1.840   2.336  -6.760  0.00  0.00    -0.244 NA
ATOM     10  C   UNL     1      -1.770   2.813  -8.020  0.00  0.00    +0.078 A 
ATOM     11  C   UNL     1      -2.196   2.232  -9.233  0.00  0.00    +0.029 A 
ATOM     12  C   UNL     1      -2.029   2.891 -10.412  0.00  0.00    +0.002 A 
ATOM     13  C   UNL     1      -1.440   4.147 -10.466  0.00  0.00    +0.001 A 
ATOM     14  C   UNL     1      -1.010   4.749  -9.299  0.00  0.00    +0.017 A 
ATOM     15  C   UNL     1      -1.174   4.092  -8.103  0.00  0.00    +0.039 A 
ATOM     16  S   UNL     1      -0.806   4.438  -6.403  0.00  0.00    -0.072 S 
ENDBRANCH   5   8
BRANCH   1  17
ATOM     17  C   UNL     1       0.214  -0.286  -2.522  0.00  0.00    +0.080 C 
BRANCH  17  20
ATOM     18  C   UNL     1      -0.239  -3.228  -1.639  0.00  0.00    +0.063 C 
ATOM     19  C   UNL     1      -0.104  -2.048  -0.712  0.00  0.00    +0.016 A 
ATOM     20  C   UNL     1       0.091  -0.779  -1.103  0.00  0.00    -0.022 A 
ATOM     21  C   UNL     1       0.163   0.037   0.112  0.00  0.00    +0.002 A 
ATOM     22  C   UNL     1       0.348   1.399   0.356  0.00  0.00    +0.010 A 
ATOM     23  C   UNL     1       0.366   1.861   1.642  0.00  0.00    +0.001 A 
ATOM     24  C   UNL     1       0.202   0.987   2.708  0.00  0.00    +0.002 A 
ATOM     25  C   UNL     1       0.018  -0.360   2.490  0.00  0.00    +0.026 A 
ATOM     26  C   UNL     1      -0.004  -0.853   1.188  0.00  0.00    +0.047 A 
ATOM     27  N   UNL     1      -0.169  -2.111   0.654  0.00  0.00    -0.358 N 
ATOM     28  H   UNL     1      -0.308  -2.921   1.168  0.00  0.00    +0.166 HD
ENDBRANCH  17  20
BRANCH  17  29
ATOM     29  C   UNL     1       1.652   0.057  -2.812  0.00  0.00    +0.347 C 
ATOM     30  O   UNL     1       2.485  -0.829  -2.901  0.00  0.00    -0.248 OA
ATOM     31  O   UNL     1       1.984   1.221  -2.957  0.00  0.00    -0.248 OA
ENDBRANCH  17  29
ENDBRANCH   1  17
TORSDOF 4
