REMARK  Name = ZINC57521512
REMARK  6 active torsions:
REMARK  status: ('A' for Active; 'I' for Inactive)
REMARK    1  A    between atoms: C_1  and  C_2
REMARK    2  A    between atoms: C_12  and  C_14
REMARK    3  A    between atoms: C_14  and  S_15
REMARK    4  A    between atoms: S_15  and  C_16
REMARK    5  A    between atoms: C_20  and  C_28
REMARK    6  A    between atoms: N_26  and  C_27
REMARK                            x       y       z     vdW  Elec       q    Type
REMARK                         _______ _______ _______ _____ _____    ______ ____
ROOT
ATOM      1  C   UNL     1       0.242  -2.949   4.859  0.00  0.00    +0.173 C 
ENDROOT
BRANCH   1  13
ATOM      2  C   UNL     1      -0.086   1.508   0.023  0.00  0.00    +0.044 C 
ATOM      3  C   UNL     1      -0.047   0.002   0.011  0.00  0.00    -0.048 A 
ATOM      4  C   UNL     1      -0.043  -0.679  -1.193  0.00  0.00    +0.007 A 
ATOM      5  C   UNL     1      -0.009  -2.060  -1.213  0.00  0.00    +0.048 A 
ATOM      6  C   UNL     1       0.022  -2.771  -0.022  0.00  0.00    +0.142 A 
ATOM      7  C   UNL     1       0.020  -2.084   1.188  0.00  0.00    +0.079 A 
ATOM      8  C   UNL     1      -0.010  -0.698   1.202  0.00  0.00    +0.030 A 
ATOM      9  N   UNL     1       0.059  -2.800   2.397  0.00  0.00    -0.264 N 
ATOM     10  C   UNL     1      -0.213  -4.247   2.344  0.00  0.00    +0.154 C 
ATOM     11  C   UNL     1       0.517  -4.811   1.117  0.00  0.00    +0.248 C 
ATOM     12  O   UNL     1       0.051  -4.130  -0.051  0.00  0.00    -0.489 OA
ATOM     13  C   UNL     1       0.335  -2.184   3.564  0.00  0.00    +0.230 C 
ATOM     14  O   UNL     1       0.659  -1.016   3.571  0.00  0.00    -0.274 OA
ENDBRANCH   1  13
BRANCH   1  15
ATOM     15  S   UNL     1       0.671  -1.853   6.240  0.00  0.00    -0.078 S 
BRANCH  15  16
ATOM     16  C   UNL     1       0.516  -2.880   7.663  0.00  0.00    +0.172 A 
ATOM     17  N   UNL     1       0.161  -4.134   7.510  0.00  0.00    -0.222 NA
ATOM     18  C   UNL     1       0.031  -4.953   8.572  0.00  0.00    +0.097 A 
ATOM     19  C   UNL     1      -0.325  -6.311   8.723  0.00  0.00    +0.051 A 
ATOM     20  C   UNL     1      -0.290  -6.605  10.038  0.00  0.00    +0.016 A 
ATOM     21  N   UNL     1       0.074  -5.498  10.742  0.00  0.00    -0.353 N 
ATOM     22  H   UNL     1       0.172  -5.448  11.705  0.00  0.00    +0.166 HD
ATOM     23  C   UNL     1       0.279  -4.459   9.858  0.00  0.00    +0.131 A 
ATOM     24  C   UNL     1       0.658  -3.112  10.005  0.00  0.00    +0.278 A 
ATOM     25  O   UNL     1       0.884  -2.644  11.108  0.00  0.00    -0.265 OA
ATOM     26  N   UNL     1       0.775  -2.350   8.895  0.00  0.00    -0.289 N 
ATOM     27  C   UNL     1       1.175  -0.946   9.014  0.00  0.00    +0.154 C 
ATOM     28  C   UNL     1      -0.605  -7.952  10.636  0.00  0.00    +0.063 C 
ENDBRANCH  15  16
ENDBRANCH   1  15
TORSDOF 3
