REMARK  Name = ZINC10401729
REMARK  8 active torsions:
REMARK  status: ('A' for Active; 'I' for Inactive)
REMARK    1  A    between atoms: C_1  and  C_2
REMARK    2  A    between atoms: C_2  and  C_4
REMARK    3  A    between atoms: C_2  and  O_11
REMARK    4  A    between atoms: N_9  and  C_10
REMARK    5  A    between atoms: O_11  and  C_12
REMARK    6  A    between atoms: C_12  and  C_14
REMARK    7  A    between atoms: C_17  and  S_20
REMARK    8  A    between atoms: S_20  and  N_23
REMARK                            x       y       z     vdW  Elec       q    Type
REMARK                         _______ _______ _______ _____ _____    ______ ____
ROOT
ATOM      1  C   UNL     1      -3.330  -1.222  -1.252  0.00  0.00    +0.059 A 
ATOM      2  C   UNL     1      -4.033  -1.498  -0.078  0.00  0.00    +0.017 A 
ATOM      3  C   UNL     1      -5.327  -1.969  -0.147  0.00  0.00    +0.029 A 
ATOM      4  C   UNL     1      -5.926  -2.179  -1.377  0.00  0.00    +0.109 A 
ATOM      5  C   UNL     1      -5.233  -1.913  -2.545  0.00  0.00    +0.029 A 
ATOM      6  C   UNL     1      -3.940  -1.436  -2.490  0.00  0.00    +0.017 A 
ENDROOT
BRANCH   4   7
ATOM      7  S   UNL     1      -7.578  -2.787  -1.455  0.00  0.00    +0.075 S 
ATOM      8  O   UNL     1      -8.197  -2.440  -0.225  0.00  0.00    -0.150 OA
ATOM      9  O   UNL     1      -8.100  -2.381  -2.713  0.00  0.00    -0.150 OA
BRANCH   7  10
ATOM     10  N   UNL     1      -7.490  -4.440  -1.491  0.00  0.00    -0.203 N 
ATOM     11  C   UNL     1      -7.516  -5.162  -2.771  0.00  0.00    +0.132 C 
ATOM     12  C   UNL     1      -8.468  -6.351  -2.623  0.00  0.00    +0.025 C 
ATOM     13  C   UNL     1      -7.916  -7.300  -1.559  0.00  0.00    +0.038 C 
ATOM     14  C   UNL     1      -7.596  -6.545  -0.296  0.00  0.00    -0.025 A 
ATOM     15  C   UNL     1      -7.394  -5.173  -0.303  0.00  0.00    +0.054 A 
ATOM     16  C   UNL     1      -7.095  -4.508   0.881  0.00  0.00    +0.025 A 
ATOM     17  C   UNL     1      -7.000  -5.212   2.064  0.00  0.00    +0.002 A 
ATOM     18  C   UNL     1      -7.203  -6.580   2.071  0.00  0.00    +0.000 A 
ATOM     19  C   UNL     1      -7.500  -7.243   0.896  0.00  0.00    +0.005 A 
ENDBRANCH   7  10
ENDBRANCH   4   7
BRANCH   1  20
ATOM     20  C   UNL     1      -1.945  -0.712  -1.186  0.00  0.00    +0.340 C 
ATOM     21  O   UNL     1      -1.335  -0.477  -2.210  0.00  0.00    -0.245 OA
BRANCH  20  22
ATOM     22  O   UNL     1      -1.359  -0.507   0.009  0.00  0.00    -0.449 OA
BRANCH  22  24
ATOM     23  C   UNL     1      -0.018   1.526   0.007  0.00  0.00    +0.062 C 
ATOM     24  C   UNL     1       0.003  -0.004  -0.002  0.00  0.00    +0.259 C 
BRANCH  24  25
ATOM     25  C   UNL     1       0.732  -0.503   1.219  0.00  0.00    +0.261 C 
ATOM     26  O   UNL     1       0.137  -1.136   2.064  0.00  0.00    -0.271 OA
ATOM     27  N   UNL     1       2.046  -0.246   1.371  0.00  0.00    -0.237 N 
ATOM     28  C   UNL     1       2.699  -0.692   2.462  0.00  0.00    +0.306 C 
ATOM     29  O   UNL     1       2.102  -1.327   3.310  0.00  0.00    -0.252 OA
ATOM     30  N   UNL     1       4.013  -0.435   2.614  0.00  0.00    -0.302 N 
ATOM     31  C   UNL     1       4.722  -0.920   3.801  0.00  0.00    +0.129 C 
ATOM     32  H   UNL     1       2.523   0.261   0.695  0.00  0.00    +0.159 HD
ATOM     33  H   UNL     1       4.489   0.072   1.938  0.00  0.00    +0.150 HD
ENDBRANCH  24  25
ENDBRANCH  22  24
ENDBRANCH  20  22
ENDBRANCH   1  20
TORSDOF 6
