REMARK  Name = ZINC01457721
REMARK  5 active torsions:
REMARK  status: ('A' for Active; 'I' for Inactive)
REMARK    1  A    between atoms: C_1  and  C_2
REMARK    2  A    between atoms: C_7  and  C_17
REMARK    3  A    between atoms: C_26  and  C_28
REMARK    4  A    between atoms: C_28  and  O_30
REMARK    5  A    between atoms: O_30  and  C_31
REMARK                            x       y       z     vdW  Elec       q    Type
REMARK                         _______ _______ _______ _____ _____    ______ ____
ROOT
ATOM      1  C   UNL     1      -1.595  -0.202   2.514  0.00  0.00    +0.009 C 
ATOM      2  C   UNL     1      -2.797  -0.647   1.680  0.00  0.00    +0.013 C 
ATOM      3  C   UNL     1      -2.666  -0.111   0.255  0.00  0.00    +0.055 C 
ATOM      4  C   UNL     1      -2.611   1.407   0.274  0.00  0.00    +0.017 C 
ATOM      5  C   UNL     1      -3.271   2.103   1.216  0.00  0.00    +0.037 C 
ATOM      6  C   UNL     1      -3.307   3.607   1.343  0.00  0.00    +0.137 C 
ATOM      7  N   UNL     1      -2.777   4.322   0.202  0.00  0.00    -0.331 N 
ATOM      8  C   UNL     1      -1.431   4.220  -0.146  0.00  0.00    +0.049 A 
ATOM      9  C   UNL     1      -0.577   5.308  -0.067  0.00  0.00    +0.025 A 
ATOM     10  C   UNL     1       0.764   5.143  -0.365  0.00  0.00    +0.002 A 
ATOM     11  C   UNL     1       1.252   3.901  -0.729  0.00  0.00    +0.002 A 
ATOM     12  C   UNL     1       0.399   2.814  -0.819  0.00  0.00    +0.025 A 
ATOM     13  C   UNL     1      -0.948   2.985  -0.552  0.00  0.00    +0.052 A 
ATOM     14  N   UNL     1      -1.873   1.963  -0.720  0.00  0.00    -0.316 N 
ATOM     15  C   UNL     1      -4.015   1.426   2.210  0.00  0.00    +0.177 C 
ATOM     16  O   UNL     1      -4.618   2.079   3.039  0.00  0.00    -0.291 OA
ATOM     17  C   UNL     1      -4.087  -0.070   2.277  0.00  0.00    +0.171 C 
ATOM     18  H   UNL     1      -3.367   4.880  -0.329  0.00  0.00    +0.147 HD
ATOM     19  H   UNL     1      -2.002   1.622  -1.619  0.00  0.00    +0.152 HD
ENDROOT
BRANCH   6  20
ATOM     20  C   UNL     1      -2.513   3.998   2.562  0.00  0.00    -0.004 A 
ATOM     21  C   UNL     1      -1.398   3.266   2.926  0.00  0.00    +0.007 A 
ATOM     22  C   UNL     1      -0.667   3.628   4.041  0.00  0.00    +0.000 A 
ATOM     23  C   UNL     1      -1.056   4.717   4.800  0.00  0.00    +0.001 A 
ATOM     24  C   UNL     1      -2.173   5.446   4.441  0.00  0.00    +0.020 A 
ATOM     25  C   UNL     1      -2.902   5.087   3.321  0.00  0.00    +0.046 A 
ATOM     26 CL   UNL     1      -4.306   6.004   2.869  0.00  0.00    -0.083 Cl
ENDBRANCH   6  20
BRANCH  17  27
ATOM     27  C   UNL     1      -5.273  -0.557   1.486  0.00  0.00    +0.318 C 
ATOM     28  O   UNL     1      -5.110  -1.304   0.550  0.00  0.00    -0.250 OA
BRANCH  27  29
ATOM     29  O   UNL     1      -6.511  -0.160   1.820  0.00  0.00    -0.467 OA
ATOM     30  C   UNL     1      -7.606  -0.668   1.013  0.00  0.00    +0.280 C 
ENDBRANCH  27  29
ENDBRANCH  17  27
TORSDOF 3
