REMARK  Name = ZINC12376654
REMARK  4 active torsions:
REMARK  status: ('A' for Active; 'I' for Inactive)
REMARK    1  A    between atoms: C_4  and  N_7
REMARK    2  A    between atoms: C_11  and  C_12
REMARK    3  A    between atoms: N_14  and  C_21
REMARK    4  A    between atoms: C_21  and  C_22
REMARK                            x       y       z     vdW  Elec       q    Type
REMARK                         _______ _______ _______ _____ _____    ______ ____
ROOT
ATOM      1  N   UNL     1       5.561  -0.600   5.109  0.00  0.00    -0.184 N 
ATOM      2  C   UNL     1       5.925  -1.144   3.933  0.00  0.00    +0.272 C 
ATOM      3  O   UNL     1       6.852  -1.910   3.744  0.00  0.00    -0.268 OA
ATOM      4  C   UNL     1       4.990  -0.631   2.917  0.00  0.00    +0.102 C 
ATOM      5  C   UNL     1       4.981  -0.917   1.561  0.00  0.00    +0.028 C 
ATOM      6  C   UNL     1       4.064   0.245   3.653  0.00  0.00    +0.266 C 
ATOM      7  O   UNL     1       3.129   0.868   3.186  0.00  0.00    -0.268 OA
ATOM      8  N   UNL     1       4.449   0.226   4.944  0.00  0.00    -0.223 N 
ATOM      9  H   UNL     1       4.014   0.717   5.658  0.00  0.00    +0.174 HD
ENDROOT
BRANCH   5  10
ATOM     10  C   UNL     1       3.921  -0.457   0.750  0.00  0.00    +0.001 A 
ATOM     11  C   UNL     1       2.581  -0.395   1.089  0.00  0.00    +0.095 A 
ATOM     12  N   UNL     1       1.877   0.099   0.054  0.00  0.00    -0.335 N 
ATOM     13  C   UNL     1       2.707   0.381  -1.012  0.00  0.00    +0.050 A 
ATOM     14  C   UNL     1       4.018   0.055  -0.632  0.00  0.00    +0.007 A 
ATOM     15  C   UNL     1       5.072   0.243  -1.520  0.00  0.00    +0.010 A 
ATOM     16  C   UNL     1       4.822   0.755  -2.776  0.00  0.00    +0.001 A 
ATOM     17  C   UNL     1       3.529   1.083  -3.153  0.00  0.00    +0.002 A 
ATOM     18  C   UNL     1       2.476   0.901  -2.281  0.00  0.00    +0.026 A 
BRANCH  12  19
ATOM     19  C   UNL     1       0.426   0.304   0.057  0.00  0.00    +0.246 C 
BRANCH  19  20
ATOM     20  C   UNL     1      -0.252  -0.894  -0.556  0.00  0.00    +0.375 C 
ATOM     21  O   UNL     1       0.409  -1.824  -0.955  0.00  0.00    -0.244 OA
ATOM     22  O   UNL     1      -1.589  -0.926  -0.665  0.00  0.00    -0.244 OA
ENDBRANCH  19  20
ENDBRANCH  12  19
ENDBRANCH   5  10
BRANCH   1  26
ATOM     23  C   UNL     1       7.474  -1.302   8.742  0.00  0.00    +0.000 A 
ATOM     24  C   UNL     1       6.377  -0.463   8.691  0.00  0.00    +0.002 A 
ATOM     25  C   UNL     1       5.740  -0.228   7.489  0.00  0.00    +0.025 A 
ATOM     26  C   UNL     1       6.203  -0.836   6.329  0.00  0.00    +0.056 A 
ATOM     27  C   UNL     1       7.302  -1.684   6.384  0.00  0.00    +0.025 A 
ATOM     28  C   UNL     1       7.938  -1.910   7.589  0.00  0.00    +0.002 A 
ENDBRANCH   1  26
TORSDOF 4
