REMARK  Name = ZINC08816895
REMARK  12 active torsions:
REMARK  status: ('A' for Active; 'I' for Inactive)
REMARK    1  A    between atoms: C_1  and  C_2
REMARK    2  A    between atoms: C_7  and  O_8
REMARK    3  A    between atoms: O_8  and  C_9
REMARK    4  A    between atoms: C_9  and  C_10
REMARK    5  A    between atoms: C_10  and  C_12
REMARK    6  A    between atoms: C_10  and  O_38
REMARK    7  A    between atoms: C_12  and  N_13
REMARK    8  A    between atoms: N_18  and  N_19
REMARK    9  A    between atoms: C_20  and  C_21
REMARK   10  A    between atoms: C_25  and  N_27
REMARK   11  A    between atoms: N_30  and  C_37
REMARK   12  A    between atoms: N_33  and  C_36
REMARK                            x       y       z     vdW  Elec       q    Type
REMARK                         _______ _______ _______ _____ _____    ______ ____
ROOT
ATOM      1  N   UNL     1      -2.567   9.379   0.070  0.00  0.00    -0.302 N 
ATOM      2  C   UNL     1      -3.931   9.635   0.084  0.00  0.00    +0.153 A 
ATOM      3  C   UNL     1      -4.563   8.395   0.085  0.00  0.00    +0.170 A 
ATOM      4  N   UNL     1      -3.613   7.459   0.067  0.00  0.00    -0.195 NA
ATOM      5  C   UNL     1      -2.423   8.026   0.063  0.00  0.00    +0.218 A 
ATOM      6  N   UNL     1      -1.222   7.354   0.049  0.00  0.00    -0.206 N 
ATOM      7  N   UNL     1      -5.948   8.352   0.097  0.00  0.00    -0.280 N 
ATOM      8  C   UNL     1      -6.658   9.496   0.109  0.00  0.00    +0.333 A 
ATOM      9  O   UNL     1      -7.873   9.439   0.119  0.00  0.00    -0.246 OA
ATOM     10  N   UNL     1      -6.058  10.698   0.109  0.00  0.00    -0.262 N 
ATOM     11  C   UNL     1      -4.713  10.804   0.097  0.00  0.00    +0.282 A 
ATOM     12  O   UNL     1      -4.181  11.900   0.097  0.00  0.00    -0.265 OA
ATOM     13  C   UNL     1      -6.877  11.913   0.122  0.00  0.00    +0.157 C 
ATOM     14  C   UNL     1      -6.640   7.061   0.097  0.00  0.00    +0.155 C 
ATOM     15  H   UNL     1      -0.277   7.917   0.042  0.00  0.00    +0.177 HD
ENDROOT
BRANCH   6  16
ATOM     16  N   UNL     1      -1.203   5.953   0.042  0.00  0.00    -0.188 NA
ATOM     17  C   UNL     1      -0.070   5.320   0.029  0.00  0.00    +0.138 C 
BRANCH  17  18
ATOM     18  C   UNL     1      -0.050   3.845   0.022  0.00  0.00    -0.003 A 
ATOM     19  C   UNL     1      -1.249   3.127   0.030  0.00  0.00    +0.009 A 
ATOM     20  C   UNL     1      -1.222   1.748   0.017  0.00  0.00    +0.003 A 
ATOM     21  C   UNL     1      -0.013   1.076   0.008  0.00  0.00    +0.033 A 
ATOM     22  C   UNL     1       1.178   1.780   0.000  0.00  0.00    +0.127 A 
ATOM     23  C   UNL     1       1.167   3.160   0.007  0.00  0.00    +0.042 A 
BRANCH  22  24
ATOM     24  N   UNL     1       2.467   1.053  -0.015  0.00  0.00    +0.056 N 
ATOM     25  O   UNL     1       2.478  -0.165  -0.022  0.00  0.00    -0.126 OA
ATOM     26  O   UNL     1       3.516   1.671  -0.022  0.00  0.00    -0.126 OA
ENDBRANCH  22  24
ENDBRANCH  17  18
ENDBRANCH   6  16
BRANCH   1  27
ATOM     27  C   UNL     1      -1.491  10.373   0.065  0.00  0.00    +0.160 C 
BRANCH  27  28
ATOM     28  C   UNL     1      -1.130  10.726  -1.379  0.00  0.00    +0.172 C 
BRANCH  28  29
ATOM     29  O   UNL     1      -0.585   9.575  -2.028  0.00  0.00    -0.387 OA
ATOM     30  H   UNL     1      -1.187   8.659  -2.121  0.00  0.00    +0.210 HD
ENDBRANCH  28  29
BRANCH  28  31
ATOM     31  C   UNL     1      -0.095  11.852  -1.385  0.00  0.00    +0.262 C 
BRANCH  31  32
ATOM     32  O   UNL     1       0.155  12.262  -2.731  0.00  0.00    -0.489 OA
BRANCH  32  39
ATOM     33  C   UNL     1       0.665  13.086  -5.384  0.00  0.00    +0.047 C 
ATOM     34  C   UNL     1       1.349  13.709  -4.194  0.00  0.00    -0.009 A 
ATOM     35  C   UNL     1       2.266  14.726  -4.378  0.00  0.00    +0.007 A 
ATOM     36  C   UNL     1       2.893  15.297  -3.287  0.00  0.00    +0.000 A 
ATOM     37  C   UNL     1       2.604  14.854  -2.009  0.00  0.00    +0.004 A 
ATOM     38  C   UNL     1       1.683  13.841  -1.820  0.00  0.00    +0.046 A 
ATOM     39  C   UNL     1       1.057  13.262  -2.914  0.00  0.00    +0.124 A 
ENDBRANCH  32  39
ENDBRANCH  31  32
ENDBRANCH  28  31
ENDBRANCH  27  28
ENDBRANCH   1  27
TORSDOF 9
