REMARK  Name = ZINC58094321
REMARK  6 active torsions:
REMARK  status: ('A' for Active; 'I' for Inactive)
REMARK    1  A    between atoms: C_3  and  N_22
REMARK    2  A    between atoms: C_6  and  C_7
REMARK    3  A    between atoms: C_7  and  C_8
REMARK    4  A    between atoms: C_8  and  N_9
REMARK    5  A    between atoms: C_10  and  C_12
REMARK    6  A    between atoms: C_16  and  N_18
REMARK                            x       y       z     vdW  Elec       q    Type
REMARK                         _______ _______ _______ _____ _____    ______ ____
ROOT
ATOM      1  N   UNL     1      -3.003  -1.778  -1.421  0.00  0.00    -0.311 N 
ATOM      2  C   UNL     1      -3.593  -2.117  -2.585  0.00  0.00    +0.244 C 
ATOM      3  O   UNL     1      -3.081  -1.800  -3.641  0.00  0.00    -0.270 OA
ATOM      4  H   UNL     1      -3.412  -2.031  -0.579  0.00  0.00    +0.149 HD
ENDROOT
BRANCH   2   5
ATOM      5  C   UNL     1      -4.863  -2.873  -2.577  0.00  0.00    +0.039 A 
ATOM      6  C   UNL     1      -5.457  -3.233  -1.366  0.00  0.00    +0.014 A 
ATOM      7  C   UNL     1      -6.642  -3.938  -1.365  0.00  0.00    +0.018 A 
ATOM      8  C   UNL     1      -7.242  -4.290  -2.562  0.00  0.00    +0.048 A 
ATOM      9  C   UNL     1      -6.658  -3.936  -3.766  0.00  0.00    +0.141 A 
ATOM     10  C   UNL     1      -5.476  -3.225  -3.780  0.00  0.00    +0.047 A 
ATOM     11 BR   UNL     1      -8.867  -5.258  -2.552  0.00  0.00    -0.048 Br
BRANCH   9  12
ATOM     12  N   UNL     1      -7.307  -4.316  -5.042  0.00  0.00    +0.058 N 
ATOM     13  O   UNL     1      -6.798  -4.008  -6.094  0.00  0.00    -0.126 OA
ATOM     14  O   UNL     1      -8.345  -4.935  -5.031  0.00  0.00    -0.126 OA
ENDBRANCH   9  12
ENDBRANCH   2   5
BRANCH   1  15
ATOM     15  C   UNL     1      -1.744  -1.028  -1.429  0.00  0.00    +0.109 C 
BRANCH  15  16
ATOM     16  C   UNL     1      -1.293  -0.775   0.010  0.00  0.00    +0.054 C 
BRANCH  16  22
ATOM     17  C   UNL     1      -0.017   1.378   0.010  0.00  0.00    +0.006 A 
ATOM     18  C   UNL     1       1.171   2.086   0.002  0.00  0.00    +0.033 A 
ATOM     19  C   UNL     1       2.377   1.411  -0.013  0.00  0.00    +0.126 A 
ATOM     20  C   UNL     1       2.396   0.029  -0.020  0.00  0.00    +0.033 A 
ATOM     21  C   UNL     1       1.208  -0.679  -0.012  0.00  0.00    +0.006 A 
ATOM     22  C   UNL     1       0.002  -0.004   0.002  0.00  0.00    -0.046 A 
BRANCH  19  23
ATOM     23  N   UNL     1       3.649   2.168  -0.022  0.00  0.00    +0.056 N 
ATOM     24  O   UNL     1       3.633   3.377  -0.016  0.00  0.00    -0.126 OA
ATOM     25  O   UNL     1       4.704   1.578  -0.035  0.00  0.00    -0.126 OA
ENDBRANCH  19  23
ENDBRANCH  16  22
ENDBRANCH  15  16
ENDBRANCH   1  15
TORSDOF 6
