REMARK  Name = ZINC63134495
REMARK  4 active torsions:
REMARK  status: ('A' for Active; 'I' for Inactive)
REMARK    1  A    between atoms: N_3  and  C_19
REMARK    2  A    between atoms: C_7  and  C_9
REMARK    3  A    between atoms: C_9  and  S_10
REMARK    4  A    between atoms: S_10  and  C_11
REMARK                            x       y       z     vdW  Elec       q    Type
REMARK                         _______ _______ _______ _____ _____    ______ ____
ROOT
ATOM      1  C   UNL     1      -0.018   1.467   0.010  0.00  0.00    +0.089 C 
ATOM      2  C   UNL     1       1.429   1.972  -0.001  0.00  0.00    -0.059 C 
ATOM      3  N   UNL     1       2.143   1.382  -1.140  0.00  0.00    +0.385 N 
ATOM      4  C   UNL     1       2.235  -0.074  -0.973  0.00  0.00    -0.059 C 
ATOM      5  C   UNL     1       0.829  -0.681  -1.010  0.00  0.00    +0.089 C 
ATOM      6  N   UNL     1       0.002  -0.004   0.002  0.00  0.00    -0.304 N 
ATOM      7  C   UNL     1      -0.716  -0.712   0.896  0.00  0.00    +0.226 C 
ATOM      8  O   UNL     1      -1.391  -0.136   1.723  0.00  0.00    -0.275 OA
ATOM      9  H   UNL     1       1.646   1.591  -1.992  0.00  0.00    -0.081 HD
ENDROOT
BRANCH   3  10
ATOM     10  C   UNL     1       3.496   1.951  -1.214  0.00  0.00    -0.065 C 
ATOM     11  C   UNL     1       3.402   3.466  -1.400  0.00  0.00    -0.009 C 
ATOM     12  C   UNL     1       4.811   4.059  -1.477  0.00  0.00    -0.012 C 
ATOM     13  C   UNL     1       5.558   3.445  -2.663  0.00  0.00    +0.007 C 
ATOM     14  C   UNL     1       5.651   1.929  -2.478  0.00  0.00    -0.012 C 
ATOM     15  C   UNL     1       4.243   1.337  -2.400  0.00  0.00    -0.009 C 
ATOM     16  C   UNL     1       6.407   1.619  -1.184  0.00  0.00    +0.007 C 
ATOM     17  C   UNL     1       5.660   2.233   0.002  0.00  0.00    -0.012 C 
ATOM     18  C   UNL     1       5.567   3.749  -0.184  0.00  0.00    +0.007 C 
ATOM     19  C   UNL     1       4.252   1.641   0.080  0.00  0.00    -0.009 C 
ENDBRANCH   3  10
BRANCH   7  20
ATOM     20  C   UNL     1      -0.680  -2.218   0.869  0.00  0.00    +0.173 C 
BRANCH  20  21
ATOM     21  S   UNL     1      -1.742  -2.873   2.186  0.00  0.00    -0.079 S 
BRANCH  21  22
ATOM     22  C   UNL     1      -1.594  -4.621   2.023  0.00  0.00    +0.182 C 
ATOM     23  N   UNL     1      -0.806  -5.079   1.065  0.00  0.00    -0.155 NA
ATOM     24  C   UNL     1      -0.629  -6.384   0.863  0.00  0.00    +0.245 C 
ATOM     25  O   UNL     1       0.098  -6.795  -0.021  0.00  0.00    -0.273 OA
ATOM     26  C   UNL     1      -1.372  -7.336   1.782  0.00  0.00    +0.169 C 
ATOM     27  C   UNL     1      -2.245  -6.691   2.842  0.00  0.00    +0.104 C 
ATOM     28  N   UNL     1      -2.281  -5.378   2.880  0.00  0.00    -0.213 NA
ATOM     29  N   UNL     1      -2.954  -7.437   3.717  0.00  0.00    -0.346 N 
ATOM     30  H   UNL     1      -2.910  -8.405   3.675  0.00  0.00    +0.143 HD
ATOM     31  H   UNL     1      -3.506  -7.005   4.387  0.00  0.00    +0.143 HD
ENDBRANCH  21  22
ENDBRANCH  20  21
ENDBRANCH   7  20
TORSDOF 4
