REMARK  Name = ZINC26599921
REMARK  9 active torsions:
REMARK  status: ('A' for Active; 'I' for Inactive)
REMARK    1  A    between atoms: C_1  and  C_2
REMARK    2  A    between atoms: C_2  and  C_3
REMARK    3  A    between atoms: C_3  and  C_4
REMARK    4  A    between atoms: C_4  and  N_5
REMARK    5  A    between atoms: C_11  and  C_21
REMARK    6  A    between atoms: C_23  and  O_29
REMARK    7  A    between atoms: C_26  and  O_27
REMARK    8  A    between atoms: O_27  and  C_28
REMARK    9  A    between atoms: O_29  and  C_30
REMARK                            x       y       z     vdW  Elec       q    Type
REMARK                         _______ _______ _______ _____ _____    ______ ____
ROOT
ATOM      1  N   UNL     1      -2.913  -2.314  -0.003  0.00  0.00    -0.222 N 
ATOM      2  C   UNL     1      -3.530  -2.527   1.178  0.00  0.00    +0.261 C 
ATOM      3  O   UNL     1      -3.068  -2.084   2.213  0.00  0.00    -0.269 OA
ATOM      4  C   UNL     1      -4.779  -3.309   1.180  0.00  0.00    +0.116 C 
ATOM      5  C   UNL     1      -5.467  -3.567   2.353  0.00  0.00    +0.027 C 
ATOM      6  C   UNL     1      -6.888  -3.971   2.178  0.00  0.00    +0.071 C 
ATOM      7  C   UNL     1      -7.782  -3.388   3.234  0.00  0.00    +0.090 C 
ATOM      8  S   UNL     1      -7.586  -4.140   4.842  0.00  0.00    -0.115 S 
ATOM      9  C   UNL     1      -6.075  -3.590   5.526  0.00  0.00    +0.030 A 
ATOM     10  C   UNL     1      -6.042  -3.427   6.918  0.00  0.00    +0.016 A 
ATOM     11  C   UNL     1      -4.910  -2.998   7.569  0.00  0.00    +0.001 A 
ATOM     12  C   UNL     1      -3.771  -2.718   6.835  0.00  0.00    +0.002 A 
ATOM     13  C   UNL     1      -3.786  -2.873   5.471  0.00  0.00    +0.024 A 
ATOM     14  C   UNL     1      -4.934  -3.313   4.788  0.00  0.00    +0.045 A 
ATOM     15  N   UNL     1      -4.782  -3.427   3.433  0.00  0.00    -0.316 N 
ATOM     16  C   UNL     1      -5.263  -3.804  -0.120  0.00  0.00    +0.258 C 
ATOM     17  O   UNL     1      -6.286  -4.457  -0.199  0.00  0.00    -0.270 OA
ATOM     18  N   UNL     1      -4.540  -3.514  -1.222  0.00  0.00    -0.235 N 
ATOM     19  C   UNL     1      -3.414  -2.792  -1.151  0.00  0.00    +0.315 C 
ATOM     20  O   UNL     1      -2.812  -2.561  -2.181  0.00  0.00    -0.252 OA
ATOM     21  H   UNL     1      -3.838  -3.381   3.210  0.00  0.00    +0.152 HD
ATOM     22  H   UNL     1      -4.845  -3.833  -2.086  0.00  0.00    +0.159 HD
ENDROOT
BRANCH   7  23
ATOM     23  C   UNL     1      -9.214  -3.558   2.798  0.00  0.00    +0.011 A 
ATOM     24  C   UNL     1      -9.947  -4.643   3.239  0.00  0.00    +0.054 A 
ATOM     25  C   UNL     1     -11.265  -4.799   2.839  0.00  0.00    +0.121 A 
ATOM     26  C   UNL     1     -11.849  -3.865   1.996  0.00  0.00    +0.049 A 
ATOM     27  C   UNL     1     -11.117  -2.780   1.555  0.00  0.00    +0.049 A 
ATOM     28  C   UNL     1      -9.800  -2.622   1.960  0.00  0.00    +0.125 A 
BRANCH  28  29
ATOM     29  O   UNL     1      -9.081  -1.550   1.530  0.00  0.00    -0.495 OA
ATOM     30  C   UNL     1      -9.747  -0.625   0.668  0.00  0.00    +0.277 C 
ENDBRANCH  28  29
BRANCH  25  31
ATOM     31  O   UNL     1     -11.986  -5.868   3.273  0.00  0.00    -0.495 OA
ATOM     32  C   UNL     1     -13.338  -5.965   2.821  0.00  0.00    +0.277 C 
ENDBRANCH  25  31
ENDBRANCH   7  23
BRANCH   1  33
ATOM     33  C   UNL     1      -1.670  -1.539  -0.031  0.00  0.00    +0.118 C 
BRANCH  33  34
ATOM     34  C   UNL     1      -1.998  -0.056  -0.214  0.00  0.00    +0.019 C 
BRANCH  34  36
ATOM     35  C   UNL     1      -1.029   2.237  -0.426  0.00  0.00    +0.004 C 
ATOM     36  C   UNL     1      -0.700   0.754  -0.244  0.00  0.00    -0.002 C 
ENDBRANCH  34  36
ENDBRANCH  33  34
ENDBRANCH   1  33
TORSDOF 6
