REMARK  Name = ZINC59825668
REMARK  5 active torsions:
REMARK  status: ('A' for Active; 'I' for Inactive)
REMARK    1  A    between atoms: C_6  and  C_7
REMARK    2  A    between atoms: C_7  and  N_8
REMARK    3  A    between atoms: C_11  and  N_14
REMARK    4  A    between atoms: N_14  and  S_15
REMARK    5  A    between atoms: S_15  and  C_18
REMARK                            x       y       z     vdW  Elec       q    Type
REMARK                         _______ _______ _______ _____ _____    ______ ____
ROOT
ATOM      1  N   UNL     1      -1.570  -0.605  -1.783  0.00  0.00    +0.382 N 
ATOM      2  C   UNL     1      -0.914  -1.884  -2.078  0.00  0.00    -0.077 C 
ATOM      3  C   UNL     1      -1.216  -2.295  -3.521  0.00  0.00    +0.002 C 
ATOM      4  C   UNL     1      -2.731  -2.443  -3.697  0.00  0.00    +0.073 C 
ATOM      5  C   UNL     1      -3.410  -1.125  -3.315  0.00  0.00    +0.002 C 
ATOM      6  C   UNL     1      -3.027  -0.757  -1.880  0.00  0.00    -0.077 C 
ATOM      7  H   UNL     1      -1.261   0.090  -2.446  0.00  0.00    -0.081 HD
ENDROOT
BRANCH   4   8
ATOM      8  N   UNL     1      -3.032  -2.763  -5.095  0.00  0.00    -0.187 NA
ATOM      9  H   UNL     1      -2.801  -2.134  -5.797  0.00  0.00    +0.148 HD
BRANCH   8  10
ATOM     10  S   UNL     1      -3.767  -4.197  -5.477  0.00  0.00    +0.060 S 
ATOM     11  O   UNL     1      -3.967  -4.189  -6.884  0.00  0.00    -0.153 OA
ATOM     12  O   UNL     1      -3.030  -5.218  -4.818  0.00  0.00    -0.153 OA
BRANCH  10  13
ATOM     13  C   UNL     1      -5.367  -4.175  -4.740  0.00  0.00    +0.119 A 
ATOM     14  C   UNL     1      -5.686  -5.087  -3.752  0.00  0.00    +0.032 A 
ATOM     15  C   UNL     1      -6.940  -5.070  -3.173  0.00  0.00    +0.040 A 
ATOM     16  C   UNL     1      -7.879  -4.139  -3.583  0.00  0.00    +0.125 A 
ATOM     17  C   UNL     1      -7.560  -3.225  -4.573  0.00  0.00    +0.055 A 
ATOM     18  C   UNL     1      -6.302  -3.240  -5.147  0.00  0.00    +0.047 A 
ATOM     19 BR   UNL     1      -5.863  -1.988  -6.495  0.00  0.00    -0.048 Br
ATOM     20  F   UNL     1      -9.106  -4.122  -3.018  0.00  0.00    -0.205 F 
ENDBRANCH  10  13
ENDBRANCH   8  10
ENDBRANCH   4   8
BRANCH   1  21
ATOM     21  C   UNL     1      -1.214  -0.175  -0.424  0.00  0.00    -0.043 C 
BRANCH  21  27
ATOM     22  C   UNL     1       0.746   1.367  -0.632  0.00  0.00    +0.003 A 
ATOM     23  C   UNL     1       2.104   1.620  -0.570  0.00  0.00    +0.020 A 
ATOM     24  C   UNL     1       2.981   0.606  -0.230  0.00  0.00    +0.041 A 
ATOM     25  C   UNL     1       2.500  -0.661   0.047  0.00  0.00    +0.020 A 
ATOM     26  C   UNL     1       1.143  -0.913  -0.016  0.00  0.00    +0.003 A 
ATOM     27  C   UNL     1       0.266   0.100  -0.356  0.00  0.00    -0.064 A 
ATOM     28 CL   UNL     1       4.686   0.923  -0.152  0.00  0.00    -0.084 Cl
ENDBRANCH  21  27
ENDBRANCH   1  21
TORSDOF 5
