REMARK  Name = ZINC15866199
REMARK  6 active torsions:
REMARK  status: ('A' for Active; 'I' for Inactive)
REMARK    1  A    between atoms: C_1  and  O_2
REMARK    2  A    between atoms: O_2  and  C_3
REMARK    3  A    between atoms: C_6  and  C_9
REMARK    4  A    between atoms: C_12  and  C_20
REMARK    5  A    between atoms: C_23  and  O_26
REMARK    6  A    between atoms: O_26  and  C_27
REMARK                            x       y       z     vdW  Elec       q    Type
REMARK                         _______ _______ _______ _____ _____    ______ ____
ROOT
ATOM      1  C   UNL     1       2.629  -2.539  -6.887  0.00  0.00    +0.106 C 
ATOM      2  C   UNL     1       1.796  -2.095  -5.680  0.00  0.00    +0.059 C 
ATOM      3  C   UNL     1       2.504  -2.503  -4.382  0.00  0.00    +0.144 C 
ATOM      4  N   UNL     1       3.900  -2.080  -4.455  0.00  0.00    -0.206 N 
ATOM      5  C   UNL     1       4.549  -1.773  -5.607  0.00  0.00    +0.236 A 
ATOM      6  N   UNL     1       5.767  -1.436  -5.288  0.00  0.00    -0.092 NA
ATOM      7  N   UNL     1       5.932  -1.513  -4.012  0.00  0.00    -0.021 NA
ATOM      8  N   UNL     1       4.838  -1.900  -3.439  0.00  0.00    -0.042 NA
ATOM      9  N   UNL     1       3.929  -1.840  -6.847  0.00  0.00    -0.305 N 
ATOM     10  H   UNL     1       4.327  -1.451  -7.641  0.00  0.00    +0.150 HD
ENDROOT
BRANCH   1  14
ATOM     11  C   UNL     1       0.573  -1.532 -10.496  0.00  0.00    +0.120 A 
ATOM     12  C   UNL     1       0.524  -2.830 -10.007  0.00  0.00    +0.046 A 
ATOM     13  C   UNL     1       1.190  -3.152  -8.840  0.00  0.00    +0.009 A 
ATOM     14  C   UNL     1       1.904  -2.184  -8.160  0.00  0.00    -0.027 A 
ATOM     15  C   UNL     1       1.950  -0.889  -8.642  0.00  0.00    +0.009 A 
ATOM     16  C   UNL     1       1.291  -0.562  -9.811  0.00  0.00    +0.046 A 
BRANCH  11  18
ATOM     17  C   UNL     1       0.014   0.143 -12.088  0.00  0.00    +0.277 C 
ATOM     18  O   UNL     1      -0.080  -1.212 -11.644  0.00  0.00    -0.495 OA
ENDBRANCH  11  18
ENDBRANCH   1  14
BRANCH   3  19
ATOM     19  C   UNL     1       1.835  -1.835  -3.209  0.00  0.00    -0.023 A 
ATOM     20  C   UNL     1       1.275  -2.602  -2.204  0.00  0.00    +0.009 A 
ATOM     21  C   UNL     1       0.661  -1.992  -1.128  0.00  0.00    +0.046 A 
ATOM     22  C   UNL     1       0.606  -0.607  -1.056  0.00  0.00    +0.120 A 
ATOM     23  C   UNL     1       1.163   0.161  -2.068  0.00  0.00    +0.046 A 
ATOM     24  C   UNL     1       1.782  -0.455  -3.139  0.00  0.00    +0.009 A 
BRANCH  22  25
ATOM     25  O   UNL     1       0.002  -0.004   0.002  0.00  0.00    -0.495 OA
ATOM     26  C   UNL     1      -0.017   1.425   0.010  0.00  0.00    +0.277 C 
ENDBRANCH  22  25
ENDBRANCH   3  19
TORSDOF 4
