REMARK  Name = ZINC39748875
REMARK  12 active torsions:
REMARK  status: ('A' for Active; 'I' for Inactive)
REMARK    1  A    between atoms: C_1  and  O_2
REMARK    2  A    between atoms: O_2  and  C_3
REMARK    3  A    between atoms: C_6  and  C_9
REMARK    4  A    between atoms: N_11  and  CA_12
REMARK    5  A    between atoms: CA_12  and  C_14
REMARK    6  A    between atoms: CA_12  and  C_16
REMARK    7  A    between atoms: C_14  and  O_15
REMARK    8  A    between atoms: C_19  and  S_27
REMARK    9  A    between atoms: N_20  and  C_21
REMARK   10  A    between atoms: S_27  and  C_28
REMARK   11  A    between atoms: C_28  and  C_29
REMARK   12  A    between atoms: C_32  and  N_35
REMARK                            x       y       z     vdW  Elec       q    Type
REMARK                         _______ _______ _______ _____ _____    ______ ____
ROOT
ATOM      1  C   UNL     1       3.659  -5.859  -5.166  0.00  0.00    +0.161 A 
ATOM      2  N   UNL     1       2.977  -6.740  -4.490  0.00  0.00    -0.131 NA
ATOM      3  N   UNL     1       3.676  -7.805  -4.319  0.00  0.00    -0.122 NA
ATOM      4  C   UNL     1       4.854  -7.662  -4.881  0.00  0.00    +0.196 A 
ATOM      5  N   UNL     1       4.879  -6.416  -5.446  0.00  0.00    -0.273 N 
ENDROOT
BRANCH   5   6
ATOM      6  C   UNL     1       5.935  -5.830  -6.159  0.00  0.00    +0.050 A 
ATOM      7  C   UNL     1       5.780  -5.523  -7.504  0.00  0.00    +0.026 A 
ATOM      8  C   UNL     1       6.822  -4.946  -8.203  0.00  0.00    +0.002 A 
ATOM      9  C   UNL     1       8.018  -4.674  -7.566  0.00  0.00    +0.000 A 
ATOM     10  C   UNL     1       8.175  -4.979  -6.226  0.00  0.00    +0.002 A 
ATOM     11  C   UNL     1       7.135  -5.551  -5.519  0.00  0.00    +0.026 A 
ENDBRANCH   5   6
BRANCH   1  12
ATOM     12  CA  UNL     1       3.190  -4.486  -5.571  0.00  0.00    +0.167 C 
BRANCH  12  15
ATOM     13  C   UNL     1       2.491  -2.491  -4.359  0.00  0.00    +0.245 C 
ATOM     14  O   UNL     1       2.987  -1.817  -5.242  0.00  0.00    -0.270 OA
ATOM     15  N   UNL     1       2.540  -3.836  -4.431  0.00  0.00    -0.299 N 
ATOM     16  H   UNL     1       2.144  -4.373  -3.727  0.00  0.00    +0.150 HD
BRANCH  13  20
ATOM     17  C   UNL     1       0.605  -0.606  -1.054  0.00  0.00    +0.120 A 
ATOM     18  C   UNL     1       1.172   0.166  -2.061  0.00  0.00    +0.046 A 
ATOM     19  C   UNL     1       1.785  -0.441  -3.135  0.00  0.00    +0.016 A 
ATOM     20  C   UNL     1       1.836  -1.836  -3.210  0.00  0.00    +0.037 A 
ATOM     21  C   UNL     1       1.265  -2.608  -2.196  0.00  0.00    +0.016 A 
ATOM     22  C   UNL     1       0.658  -1.994  -1.123  0.00  0.00    +0.046 A 
BRANCH  17  24
ATOM     23  C   UNL     1      -0.017   1.425   0.010  0.00  0.00    +0.277 C 
ATOM     24  O   UNL     1       0.002  -0.004   0.002  0.00  0.00    -0.495 OA
ENDBRANCH  17  24
ENDBRANCH  13  20
ENDBRANCH  12  15
BRANCH  12  25
ATOM     25  C   UNL     1       2.194  -4.607  -6.726  0.00  0.00    +0.186 C 
BRANCH  25  26
ATOM     26  O   UNL     1       1.130  -5.483  -6.347  0.00  0.00    -0.393 OA
ATOM     27  H   UNL     1       0.460  -5.607  -7.033  0.00  0.00    +0.209 HD
ENDBRANCH  25  26
ENDBRANCH  12  25
ENDBRANCH   1  12
BRANCH   4  28
ATOM     28  S   UNL     1       6.153  -8.852  -4.910  0.00  0.00    -0.081 S 
BRANCH  28  29
ATOM     29  C   UNL     1       5.472 -10.267  -4.000  0.00  0.00    +0.112 C 
BRANCH  29  30
ATOM     30  C   UNL     1       6.496 -11.371  -3.950  0.00  0.00    -0.037 A 
ATOM     31  C   UNL     1       6.536 -12.323  -4.952  0.00  0.00    +0.007 A 
ATOM     32  C   UNL     1       7.476 -13.336  -4.905  0.00  0.00    +0.033 A 
ATOM     33  C   UNL     1       8.375 -13.397  -3.857  0.00  0.00    +0.126 A 
ATOM     34  C   UNL     1       8.335 -12.445  -2.856  0.00  0.00    +0.033 A 
ATOM     35  C   UNL     1       7.399 -11.429  -2.905  0.00  0.00    +0.007 A 
BRANCH  33  36
ATOM     36  N   UNL     1       9.380 -14.482  -3.807  0.00  0.00    +0.056 N 
ATOM     37  O   UNL     1       9.415 -15.316  -4.682  0.00  0.00    -0.126 OA
ATOM     38  O   UNL     1      10.167 -14.536  -2.890  0.00  0.00    -0.126 OA
ENDBRANCH  33  36
ENDBRANCH  29  30
ENDBRANCH  28  29
ENDBRANCH   4  28
TORSDOF 11
