REMARK  Name = ZINC12217386
REMARK  15 active torsions:
REMARK  status: ('A' for Active; 'I' for Inactive)
REMARK    1  A    between atoms: C_1  and  O_2
REMARK    2  A    between atoms: O_2  and  C_3
REMARK    3  A    between atoms: C_5  and  C_13
REMARK    4  A    between atoms: C_7  and  O_11
REMARK    5  A    between atoms: C_8  and  O_9
REMARK    6  A    between atoms: O_9  and  C_10
REMARK    7  A    between atoms: O_11  and  C_12
REMARK    8  A    between atoms: C_13  and  N_68
REMARK    9  A    between atoms: C_14  and  C_15
REMARK   10  A    between atoms: C_14  and  N_68
REMARK   11  A    between atoms: C_20  and  S_33
REMARK   12  A    between atoms: C_23  and  N_24
REMARK   13  A    between atoms: C_28  and  C_31
REMARK   14  A    between atoms: C_31  and  O_32
REMARK   15  A    between atoms: S_33  and  C_34
REMARK                            x       y       z     vdW  Elec       q    Type
REMARK                         _______ _______ _______ _____ _____    ______ ____
ROOT
ATOM      1  C   UNL     1      -3.609   3.142   0.053  0.00  0.00    -0.026 A 
ATOM      2  C   UNL     1      -2.464   3.865  -0.105  0.00  0.00    +0.015 A 
ATOM      3  C   UNL     1      -1.236   3.175  -0.131  0.00  0.00    -0.001 A 
ATOM      4  C   UNL     1      -0.022   3.860  -0.308  0.00  0.00    +0.011 A 
ATOM      5  C   UNL     1       1.149   3.169  -0.330  0.00  0.00    +0.015 A 
ATOM      6  C   UNL     1       1.162   1.777  -0.178  0.00  0.00    +0.010 A 
ATOM      7  C   UNL     1      -0.013   1.076  -0.003  0.00  0.00    +0.041 A 
ATOM      8  C   UNL     1      -1.235   1.766   0.018  0.00  0.00    +0.049 A 
ATOM      9  C   UNL     1      -3.542   1.750   0.201  0.00  0.00    +0.101 A 
ATOM     10  N   UNL     1      -2.390   1.034   0.189  0.00  0.00    -0.343 N 
ATOM     11  H   UNL     1      -2.379   0.013   0.301  0.00  0.00    +0.167 HD
ENDROOT
BRANCH   9  12
ATOM     12  N   UNL     1      -4.715   1.030   0.372  0.00  0.00    -0.316 N 
ATOM     13  C   UNL     1      -4.941   0.117  -0.755  0.00  0.00    +0.106 C 
ATOM     14  C   UNL     1      -6.309  -0.552  -0.606  0.00  0.00    +0.019 C 
ATOM     15  C   UNL     1      -6.353  -1.323   0.717  0.00  0.00    +0.009 C 
ATOM     16  C   UNL     1      -6.067  -0.358   1.871  0.00  0.00    +0.032 C 
ATOM     17  C   UNL     1      -4.705   0.305   1.649  0.00  0.00    +0.112 C 
BRANCH  16  18
ATOM     18  C   UNL     1      -6.049  -1.132   3.191  0.00  0.00    +0.160 C 
BRANCH  18  19
ATOM     19  O   UNL     1      -7.352  -1.657   3.452  0.00  0.00    -0.395 OA
ATOM     20  H   UNL     1      -7.415  -2.161   4.275  0.00  0.00    +0.209 HD
ENDBRANCH  18  19
ENDBRANCH  16  18
ENDBRANCH   9  12
BRANCH   6  21
ATOM     21  S   UNL     1       2.697   0.912  -0.210  0.00  0.00    -0.129 S 
ATOM     22  C   UNL     1       3.932   2.217  -0.457  0.00  0.00    +0.090 C 
ENDBRANCH   6  21
BRANCH   1  23
ATOM     23  C   UNL     1      -4.944   3.841   0.082  0.00  0.00    -0.043 C 
BRANCH  23  24
ATOM     24  N   UNL     1      -5.411   3.934   1.478  0.00  0.00    +0.384 N 
ATOM     25  H   UNL     1      -5.503   2.988   1.868  0.00  0.00    -0.085 HD
ATOM     26  H   UNL     1      -4.727   4.465   2.030  0.00  0.00    -0.085 HD
BRANCH  24  27
ATOM     27  C   UNL     1      -6.718   4.614   1.537  0.00  0.00    -0.046 C 
BRANCH  27  30
ATOM     28  C   UNL     1      -7.233   5.864   5.066  0.00  0.00    +0.165 A 
ATOM     29  C   UNL     1      -6.821   5.787   3.745  0.00  0.00    +0.051 A 
ATOM     30  C   UNL     1      -7.169   4.694   2.973  0.00  0.00    -0.057 A 
ATOM     31  C   UNL     1      -7.935   3.678   3.512  0.00  0.00    +0.051 A 
ATOM     32  C   UNL     1      -8.347   3.745   4.835  0.00  0.00    +0.165 A 
ATOM     33  C   UNL     1      -7.999   4.842   5.614  0.00  0.00    +0.204 A 
BRANCH  28  35
ATOM     34  C   UNL     1      -6.102   7.952   5.196  0.00  0.00    +0.277 C 
ATOM     35  O   UNL     1      -6.890   6.939   5.825  0.00  0.00    -0.491 OA
ENDBRANCH  28  35
BRANCH  33  36
ATOM     36  O   UNL     1      -8.406   4.914   6.911  0.00  0.00    -0.488 OA
ATOM     37  C   UNL     1      -9.662   5.547   7.162  0.00  0.00    +0.277 C 
ENDBRANCH  33  36
BRANCH  32  38
ATOM     38  O   UNL     1      -9.096   2.742   5.366  0.00  0.00    -0.491 OA
ATOM     39  C   UNL     1      -9.417   1.646   4.507  0.00  0.00    +0.277 C 
ENDBRANCH  32  38
ENDBRANCH  27  30
ENDBRANCH  24  27
ENDBRANCH  23  24
ENDBRANCH   1  23
TORSDOF 11
