REMARK  Name = ZINC09183749
REMARK  7 active torsions:
REMARK  status: ('A' for Active; 'I' for Inactive)
REMARK    1  A    between atoms: C_1  and  C_2
REMARK    2  A    between atoms: C_8  and  C_9
REMARK    3  A    between atoms: C_8  and  N_53
REMARK    4  A    between atoms: C_10  and  O_28
REMARK    5  A    between atoms: C_12  and  O_26
REMARK    6  A    between atoms: C_16  and  C_20
REMARK    7  A    between atoms: O_26  and  C_27
REMARK                            x       y       z     vdW  Elec       q    Type
REMARK                         _______ _______ _______ _____ _____    ______ ____
ROOT
ATOM      1  C   UNL     1       0.943   0.433   4.836  0.00  0.00    +0.021 A 
ATOM      2  C   UNL     1       1.532   0.027   3.648  0.00  0.00    +0.125 A 
ATOM      3  C   UNL     1       0.986   0.395   2.424  0.00  0.00    +0.092 A 
ATOM      4  C   UNL     1      -0.149   1.183   2.378  0.00  0.00    +0.138 A 
ATOM      5  C   UNL     1      -0.750   1.597   3.573  0.00  0.00    +0.106 A 
ATOM      6  C   UNL     1      -0.199   1.219   4.810  0.00  0.00    +0.148 A 
ATOM      7  O   UNL     1      -0.785   1.623   5.957  0.00  0.00    -0.454 OA
ATOM      8  C   UNL     1      -1.890   2.385   5.968  0.00  0.00    +0.139 A 
ATOM      9  C   UNL     1      -2.500   2.803   4.828  0.00  0.00    +0.098 A 
ATOM     10  C   UNL     1      -1.963   2.431   3.571  0.00  0.00    +0.197 A 
ATOM     11  O   UNL     1      -2.485   2.789   2.527  0.00  0.00    -0.287 OA
ENDROOT
BRANCH   8  12
ATOM     12  C   UNL     1      -2.466   2.782   7.268  0.00  0.00    +0.017 A 
ATOM     13  C   UNL     1      -3.612   3.579   7.314  0.00  0.00    +0.011 A 
ATOM     14  C   UNL     1      -4.148   3.941   8.532  0.00  0.00    +0.001 A 
ATOM     15  C   UNL     1      -3.546   3.528   9.707  0.00  0.00    +0.000 A 
ATOM     16  C   UNL     1      -2.406   2.743   9.669  0.00  0.00    +0.001 A 
ATOM     17  C   UNL     1      -1.863   2.368   8.458  0.00  0.00    +0.011 A 
ENDBRANCH   8  12
BRANCH   4  18
ATOM     18  O   UNL     1      -0.682   1.547   1.184  0.00  0.00    -0.494 OA
ATOM     19  C   UNL     1      -0.013   1.086   0.008  0.00  0.00    +0.277 C 
ENDBRANCH   4  18
BRANCH   2  20
ATOM     20  O   UNL     1       2.651  -0.742   3.682  0.00  0.00    -0.506 OA
ATOM     21  H   UNL     1       2.474  -1.693   3.692  0.00  0.00    +0.292 HD
ENDBRANCH   2  20
BRANCH   1  22
ATOM     22  C   UNL     1       1.544   0.021   6.154  0.00  0.00    -0.035 C 
BRANCH  22  29
ATOM     23  C   UNL     1       1.737  -0.759   8.851  0.00  0.00    -0.013 C 
ATOM     24  C   UNL     1       1.678  -1.806   7.737  0.00  0.00    -0.071 C 
ATOM     25  C   UNL     1       0.952  -3.053   8.246  0.00  0.00    -0.016 C 
ATOM     26  C   UNL     1       0.878  -4.090   7.122  0.00  0.00    -0.003 C 
ATOM     27  C   UNL     1       0.163  -3.474   5.917  0.00  0.00    -0.019 C 
ATOM     28  C   UNL     1       0.912  -2.214   5.474  0.00  0.00    -0.078 C 
ATOM     29  N   UNL     1       0.927  -1.248   6.593  0.00  0.00    +0.384 N 
ATOM     30  H   UNL     1      -0.040  -1.064   6.887  0.00  0.00    -0.081 HD
ENDBRANCH  22  29
ENDBRANCH   1  22
TORSDOF 5
