REMARK  Name = ZINC03343909
REMARK  5 active torsions:
REMARK  status: ('A' for Active; 'I' for Inactive)
REMARK    1  A    between atoms: C_8  and  C_10
REMARK    2  A    between atoms: C_10  and  C_32
REMARK    3  A    between atoms: N_12  and  C_25
REMARK    4  A    between atoms: C_16  and  C_17
REMARK    5  A    between atoms: C_25  and  C_26
REMARK                            x       y       z     vdW  Elec       q    Type
REMARK                         _______ _______ _______ _____ _____    ______ ____
ROOT
ATOM      1  C   UNL     1       2.673   7.403  -0.776  0.00  0.00    +0.114 C 
ATOM      2  C   UNL     1       3.163   6.131  -0.487  0.00  0.00    +0.104 A 
ATOM      3  N   UNL     1       4.465   5.746  -0.276  0.00  0.00    -0.298 N 
ATOM      4  C   UNL     1       4.761   4.486  -0.002  0.00  0.00    +0.266 A 
ATOM      5  O   UNL     1       5.909   4.130   0.193  0.00  0.00    -0.266 OA
ATOM      6  C   UNL     1       3.637   3.532   0.050  0.00  0.00    +0.079 A 
ATOM      7  C   UNL     1       3.650   2.197   0.302  0.00  0.00    +0.028 C 
ATOM      8  S   UNL     1       2.253   4.607  -0.298  0.00  0.00    -0.065 S 
ENDROOT
BRANCH   1  16
ATOM      9  C   UNL     1      -2.954   9.846  -1.340  0.00  0.00    +0.002 A 
ATOM     10  C   UNL     1      -3.585   8.641  -1.067  0.00  0.00    +0.001 A 
ATOM     11  C   UNL     1      -2.820   7.518  -0.810  0.00  0.00    +0.017 A 
ATOM     12  C   UNL     1      -1.451   7.612  -0.829  0.00  0.00    +0.040 A 
ATOM     13  C   UNL     1      -0.773   8.822  -1.103  0.00  0.00    +0.079 A 
ATOM     14  C   UNL     1      -1.588   9.950  -1.361  0.00  0.00    +0.029 A 
ATOM     15  N   UNL     1       0.574   8.756  -1.086  0.00  0.00    -0.238 NA
ATOM     16  C   UNL     1       1.223   7.636  -0.831  0.00  0.00    +0.122 A 
ATOM     17  S   UNL     1      -0.110   6.474  -0.575  0.00  0.00    -0.066 S 
ENDBRANCH   1  16
BRANCH   7  18
ATOM     18  C   UNL     1       2.417   1.411   0.160  0.00  0.00    -0.024 A 
ATOM     19  C   UNL     1       2.308   0.158   0.774  0.00  0.00    +0.011 A 
ATOM     20  C   UNL     1       1.148  -0.574   0.638  0.00  0.00    +0.039 A 
ATOM     21  C   UNL     1       0.092  -0.072  -0.107  0.00  0.00    +0.123 A 
ATOM     22  C   UNL     1       0.193   1.169  -0.719  0.00  0.00    +0.039 A 
ATOM     23  C   UNL     1       1.347   1.911  -0.591  0.00  0.00    +0.011 A 
ATOM     24  F   UNL     1      -1.042  -0.794  -0.237  0.00  0.00    -0.205 F 
ENDBRANCH   7  18
BRANCH   1  25
ATOM     25  C   UNL     1       3.582   8.482  -1.022  0.00  0.00    +0.104 C 
ATOM     26  N   UNL     1       4.303   9.338  -1.216  0.00  0.00    -0.191 NA
ENDBRANCH   1  25
BRANCH   3  27
ATOM     27  C   UNL     1       5.536   6.742  -0.348  0.00  0.00    +0.157 C 
BRANCH  27  28
ATOM     28  C   UNL     1       5.962   6.928  -1.806  0.00  0.00    +0.138 C 
ATOM     29  C   UNL     1       7.143   7.926  -1.899  0.00  0.00    +0.035 C 
ATOM     30  C   UNL     1       7.800   7.483  -3.235  0.00  0.00    +0.031 C 
ATOM     31  C   UNL     1       7.563   5.958  -3.226  0.00  0.00    +0.160 C 
ATOM     32  O   UNL     1       6.471   5.694  -2.338  0.00  0.00    -0.375 OA
ENDBRANCH  27  28
ENDBRANCH   3  27
TORSDOF 5
