REMARK  Name = ZINC08966170
REMARK  11 active torsions:
REMARK  status: ('A' for Active; 'I' for Inactive)
REMARK    1  A    between atoms: C_1  and  C_2
REMARK    2  A    between atoms: C_2  and  N_3
REMARK    3  A    between atoms: C_7  and  S_30
REMARK    4  A    between atoms: C_11  and  S_12
REMARK    5  A    between atoms: S_12  and  C_13
REMARK    6  A    between atoms: C_13  and  C_15
REMARK    7  A    between atoms: C_13  and  C_16
REMARK    8  A    between atoms: N_18  and  C_19
REMARK    9  A    between atoms: C_24  and  C_29
REMARK   10  A    between atoms: C_26  and  C_28
REMARK   11  A    between atoms: S_30  and  N_33
REMARK                            x       y       z     vdW  Elec       q    Type
REMARK                         _______ _______ _______ _____ _____    ______ ____
ROOT
ATOM      1  N   UNL     1      -0.698   1.558   1.213  0.00  0.00    -0.319 N 
ATOM      2  C   UNL     1      -1.715   0.904   1.891  0.00  0.00    +0.070 A 
ATOM      3  C   UNL     1      -2.379  -0.298   1.699  0.00  0.00    +0.030 A 
ATOM      4  C   UNL     1      -3.374  -0.680   2.575  0.00  0.00    +0.030 A 
ATOM      5  C   UNL     1      -3.716   0.131   3.647  0.00  0.00    +0.107 A 
ATOM      6  C   UNL     1      -3.067   1.328   3.852  0.00  0.00    +0.058 A 
ATOM      7  C   UNL     1      -2.057   1.729   2.974  0.00  0.00    +0.092 A 
ATOM      8  N   UNL     1      -1.254   2.824   2.913  0.00  0.00    -0.222 NA
ATOM      9  C   UNL     1      -0.451   2.724   1.883  0.00  0.00    +0.171 A 
ENDROOT
BRANCH   5  10
ATOM     10  S   UNL     1      -4.990  -0.374   4.754  0.00  0.00    +0.056 S 
ATOM     11  O   UNL     1      -5.071  -1.790   4.661  0.00  0.00    -0.153 OA
ATOM     12  O   UNL     1      -4.748   0.295   5.984  0.00  0.00    -0.153 OA
BRANCH  10  13
ATOM     13  N   UNL     1      -6.417   0.221   4.163  0.00  0.00    -0.204 NA
ATOM     14  H   UNL     1      -6.424   0.742   3.345  0.00  0.00    +0.144 HD
ATOM     15  H   UNL     1      -7.247   0.050   4.636  0.00  0.00    +0.144 HD
ENDBRANCH  10  13
ENDBRANCH   5  10
BRANCH   1  17
ATOM     16  C   UNL     1      -0.753   1.593  -1.232  0.00  0.00    +0.027 C 
ATOM     17  C   UNL     1      -0.013   1.086   0.008  0.00  0.00    +0.121 C 
ENDBRANCH   1  17
BRANCH   9  18
ATOM     18  S   UNL     1       0.763   3.916   1.425  0.00  0.00    -0.075 S 
BRANCH  18  19
ATOM     19  C   UNL     1       0.512   5.139   2.735  0.00  0.00    +0.137 C 
ATOM     20  C   UNL     1      -0.884   5.752   2.600  0.00  0.00    +0.029 C 
BRANCH  19  21
ATOM     21  C   UNL     1       1.551   6.224   2.615  0.00  0.00    +0.226 C 
ATOM     22  O   UNL     1       2.070   6.450   1.543  0.00  0.00    -0.275 OA
ATOM     23  N   UNL     1       1.902   6.943   3.700  0.00  0.00    -0.311 N 
ATOM     24  H   UNL     1       1.487   6.762   4.557  0.00  0.00    +0.149 HD
BRANCH  23  25
ATOM     25  C   UNL     1       2.912   7.998   3.583  0.00  0.00    +0.076 C 
ATOM     26  C   UNL     1       2.244   9.295   3.122  0.00  0.00    +0.022 C 
ATOM     27  C   UNL     1       3.299  10.396   3.000  0.00  0.00    +0.002 C 
ATOM     28  C   UNL     1       3.962  10.620   4.361  0.00  0.00    +0.003 C 
ATOM     29  C   UNL     1       4.630   9.323   4.822  0.00  0.00    -0.009 C 
ATOM     30  C   UNL     1       3.575   8.222   4.944  0.00  0.00    +0.009 C 
ATOM     31  C   UNL     1       4.243   6.925   5.406  0.00  0.00    +0.009 C 
ATOM     32  C   UNL     1       5.690   8.904   3.802  0.00  0.00    +0.008 C 
ENDBRANCH  23  25
ENDBRANCH  19  21
ENDBRANCH  18  19
ENDBRANCH   9  18
TORSDOF 7
