REMARK  Name = ZINC13141640
REMARK  8 active torsions:
REMARK  status: ('A' for Active; 'I' for Inactive)
REMARK    1  A    between atoms: C_1  and  C_2
REMARK    2  A    between atoms: C_3  and  C_12
REMARK    3  A    between atoms: C_12  and  C_14
REMARK    4  A    between atoms: C_14  and  S_15
REMARK    5  A    between atoms: S_15  and  C_16
REMARK    6  A    between atoms: C_16  and  C_18
REMARK    7  A    between atoms: C_16  and  C_19
REMARK    8  A    between atoms: C_25  and  C_30
REMARK                            x       y       z     vdW  Elec       q    Type
REMARK                         _______ _______ _______ _____ _____    ______ ____
ROOT
ATOM      1  C   UNL     1       7.213   6.173   0.066  0.00  0.00    +0.110 C 
ATOM      2  C   UNL     1       7.061   6.728   1.484  0.00  0.00    +0.027 C 
ENDROOT
BRANCH   1   3
ATOM      3  C   UNL     1       8.665   5.871  -0.202  0.00  0.00    +0.124 A 
ATOM      4  N   UNL     1       9.435   6.798  -0.827  0.00  0.00    -0.309 N 
ATOM      5  H   UNL     1       9.040   7.643  -1.093  0.00  0.00    +0.170 HD
ATOM      6  C   UNL     1      10.736   6.569  -1.084  0.00  0.00    +0.260 A 
ATOM      7  O   UNL     1      11.414   7.412  -1.647  0.00  0.00    -0.267 OA
ATOM      8  C   UNL     1      11.311   5.320  -0.688  0.00  0.00    +0.080 A 
ATOM      9  C   UNL     1      12.679   4.840  -0.853  0.00  0.00    +0.010 A 
ATOM     10  C   UNL     1      12.996   3.604  -0.392  0.00  0.00    +0.057 A 
ATOM     11  S   UNL     1      11.460   3.014   0.295  0.00  0.00    -0.076 S 
ATOM     12  C   UNL     1      10.439   4.423  -0.049  0.00  0.00    +0.116 A 
ATOM     13  N   UNL     1       9.163   4.724   0.176  0.00  0.00    -0.225 NA
BRANCH   9  14
ATOM     14  C   UNL     1      13.699   5.684  -1.510  0.00  0.00    +0.021 A 
ATOM     15  C   UNL     1      14.958   6.009  -1.080  0.00  0.00    +0.016 A 
ATOM     16  C   UNL     1      15.741   6.818  -1.875  0.00  0.00    +0.008 A 
ATOM     17  C   UNL     1      15.240   7.275  -3.050  0.00  0.00    +0.046 A 
ATOM     18  S   UNL     1      13.609   6.550  -3.069  0.00  0.00    -0.097 S 
ENDBRANCH   9  14
ENDBRANCH   1   3
BRANCH   1  19
ATOM     19  S   UNL     1       6.239   4.651  -0.095  0.00  0.00    -0.142 S 
BRANCH  19  20
ATOM     20  C   UNL     1       4.523   5.204   0.103  0.00  0.00    +0.149 C 
BRANCH  20  21
ATOM     21  C   UNL     1       3.597   4.021  -0.011  0.00  0.00    +0.175 C 
ATOM     22  O   UNL     1       4.054   2.900  -0.111  0.00  0.00    -0.291 OA
BRANCH  21  25
ATOM     23  C   UNL     1       1.820   4.288  -2.537  0.00  0.00    +0.064 C 
ATOM     24  C   UNL     1       1.368   4.339  -1.100  0.00  0.00    +0.024 A 
ATOM     25  C   UNL     1       2.193   4.216  -0.003  0.00  0.00    +0.046 A 
ATOM     26  C   UNL     1       1.321   4.329   1.183  0.00  0.00    +0.010 A 
ATOM     27  C   UNL     1       1.546   4.288   2.556  0.00  0.00    +0.011 A 
ATOM     28  C   UNL     1       0.486   4.429   3.425  0.00  0.00    +0.001 A 
ATOM     29  C   UNL     1      -0.800   4.606   2.937  0.00  0.00    +0.002 A 
ATOM     30  C   UNL     1      -1.035   4.654   1.580  0.00  0.00    +0.026 A 
ATOM     31  C   UNL     1       0.022   4.513   0.686  0.00  0.00    +0.047 A 
ATOM     32  N   UNL     1       0.096   4.513  -0.692  0.00  0.00    -0.358 N 
ATOM     33  H   UNL     1      -0.663   4.623  -1.285  0.00  0.00    +0.166 HD
ENDBRANCH  21  25
ENDBRANCH  20  21
ENDBRANCH  19  20
ENDBRANCH   1  19
TORSDOF 6
