REMARK  Name = ZINC20749299
REMARK  7 active torsions:
REMARK  status: ('A' for Active; 'I' for Inactive)
REMARK    1  A    between atoms: C_1  and  O_2
REMARK    2  A    between atoms: O_2  and  C_3
REMARK    3  A    between atoms: C_8  and  C_9
REMARK    4  A    between atoms: C_20  and  S_25
REMARK    5  A    between atoms: S_25  and  N_28
REMARK    6  A    between atoms: N_28  and  C_29
REMARK    7  A    between atoms: C_29  and  C_30
REMARK                            x       y       z     vdW  Elec       q    Type
REMARK                         _______ _______ _______ _____ _____    ______ ____
ROOT
ATOM      1  C   UNL     1      -3.735   1.691   0.042  0.00  0.00    +0.108 C 
ATOM      2  C   UNL     1      -3.543   2.980   0.821  0.00  0.00    +0.029 C 
ATOM      3  C   UNL     1      -4.707   3.979   0.819  0.00  0.00    +0.033 C 
ATOM      4  C   UNL     1      -3.970   5.311   0.978  0.00  0.00    -0.030 C 
ATOM      5  C   UNL     1      -2.732   5.203   0.511  0.00  0.00    -0.023 C 
ATOM      6  C   UNL     1      -2.544   3.829  -0.010  0.00  0.00    +0.049 C 
ATOM      7  C   UNL     1      -1.231   3.150   0.017  0.00  0.00    -0.018 A 
ATOM      8  C   UNL     1      -0.039   3.843   0.017  0.00  0.00    +0.034 A 
ATOM      9  C   UNL     1       1.164   3.161   0.009  0.00  0.00    +0.106 A 
ATOM     10  C   UNL     1       1.175   1.778   0.000  0.00  0.00    +0.030 A 
ATOM     11  C   UNL     1      -0.013   1.076   0.008  0.00  0.00    +0.025 A 
ATOM     12  C   UNL     1      -1.227   1.751   0.017  0.00  0.00    +0.031 A 
ATOM     13  N   UNL     1      -2.419   1.017   0.054  0.00  0.00    -0.336 N 
ATOM     14  H   UNL     1      -2.364  -0.081   0.092  0.00  0.00    +0.147 HD
ENDROOT
BRANCH   1  20
ATOM     15  C   UNL     1      -5.487   2.229  -1.670  0.00  0.00    +0.125 A 
ATOM     16  C   UNL     1      -5.866   2.514  -2.974  0.00  0.00    +0.046 A 
ATOM     17  C   UNL     1      -4.916   2.554  -3.975  0.00  0.00    +0.004 A 
ATOM     18  C   UNL     1      -3.586   2.315  -3.678  0.00  0.00    +0.001 A 
ATOM     19  C   UNL     1      -3.205   2.036  -2.379  0.00  0.00    +0.009 A 
ATOM     20  C   UNL     1      -4.152   1.995  -1.374  0.00  0.00    +0.015 A 
BRANCH  15  22
ATOM     21  C   UNL     1      -7.776   2.434  -1.061  0.00  0.00    +0.277 C 
ATOM     22  O   UNL     1      -6.421   2.184  -0.683  0.00  0.00    -0.495 OA
ENDBRANCH  15  22
ENDBRANCH   1  20
BRANCH   9  23
ATOM     23  S   UNL     1       2.682   4.055   0.009  0.00  0.00    +0.059 S 
ATOM     24  O   UNL     1       2.403   5.331   0.568  0.00  0.00    -0.153 OA
ATOM     25  O   UNL     1       3.666   3.184   0.552  0.00  0.00    -0.153 OA
BRANCH  23  26
ATOM     26  N   UNL     1       3.099   4.312  -1.573  0.00  0.00    -0.186 NA
ATOM     27  H   UNL     1       3.910   3.718  -2.018  0.00  0.00    +0.148 HD
BRANCH  26  28
ATOM     28  C   UNL     1       2.259   5.159  -2.423  0.00  0.00    +0.141 C 
BRANCH  28  29
ATOM     29  C   UNL     1       3.020   5.533  -3.669  0.00  0.00    -0.032 A 
ATOM     30  C   UNL     1       3.788   6.682  -3.691  0.00  0.00    +0.005 A 
ATOM     31  C   UNL     1       4.490   7.022  -4.832  0.00  0.00    +0.000 A 
ATOM     32  C   UNL     1       4.417   6.219  -5.954  0.00  0.00    +0.000 A 
ATOM     33  C   UNL     1       3.644   5.072  -5.934  0.00  0.00    +0.000 A 
ATOM     34  C   UNL     1       2.946   4.729  -4.792  0.00  0.00    +0.005 A 
ENDBRANCH  28  29
ENDBRANCH  26  28
ENDBRANCH  23  26
ENDBRANCH   9  23
TORSDOF 6
