REMARK  Name = ZINC59862297
REMARK  9 active torsions:
REMARK  status: ('A' for Active; 'I' for Inactive)
REMARK    1  A    between atoms: C_1  and  C_2
REMARK    2  A    between atoms: C_3  and  C_30
REMARK    3  A    between atoms: C_7  and  N_8
REMARK    4  A    between atoms: C_12  and  C_13
REMARK    5  A    between atoms: C_15  and  O_22
REMARK    6  A    between atoms: C_16  and  O_21
REMARK    7  A    between atoms: C_17  and  O_19
REMARK    8  A    between atoms: O_19  and  C_20
REMARK    9  A    between atoms: O_22  and  C_23
REMARK                            x       y       z     vdW  Elec       q    Type
REMARK                         _______ _______ _______ _____ _____    ______ ____
ROOT
ATOM      1  N   UNL     1       0.016  -0.216   2.533  0.00  0.00    -0.188 N 
ATOM      2  C   UNL     1      -1.114   0.359   2.995  0.00  0.00    +0.264 C 
ATOM      3  O   UNL     1      -2.077   0.525   2.270  0.00  0.00    -0.269 OA
ATOM      4  C   UNL     1      -1.143   0.779   4.410  0.00  0.00    +0.102 C 
ATOM      5  C   UNL     1      -2.264   1.377   4.965  0.00  0.00    +0.026 C 
ATOM      6  C   UNL     1       0.071   0.534   5.204  0.00  0.00    +0.276 C 
ATOM      7  O   UNL     1       0.128   0.888   6.505  0.00  0.00    -0.268 OA
ATOM      8  N   UNL     1       1.105  -0.040   4.613  0.00  0.00    -0.123 NA
ATOM      9  C   UNL     1       1.075  -0.405   3.334  0.00  0.00    +0.340 C 
ATOM     10  O   UNL     1       2.066  -0.933   2.863  0.00  0.00    -0.250 OA
ENDROOT
BRANCH   1  17
ATOM     11  C   UNL     1       0.972   1.639   0.599  0.00  0.00    +0.046 C 
ATOM     12  C   UNL     1       0.542   0.245   0.220  0.00  0.00    -0.025 A 
ATOM     13  C   UNL     1       0.612  -0.165  -1.097  0.00  0.00    -0.032 A 
ATOM     14  C   UNL     1       0.217  -1.445  -1.446  0.00  0.00    +0.021 A 
ATOM     15  C   UNL     1      -0.247  -2.316  -0.476  0.00  0.00    +0.017 A 
ATOM     16  C   UNL     1      -0.318  -1.911   0.842  0.00  0.00    +0.025 A 
ATOM     17  C   UNL     1       0.082  -0.629   1.195  0.00  0.00    +0.049 A 
ATOM     18 BR   UNL     1       0.312  -2.003  -3.250  0.00  0.00    -0.050 Br
ATOM     19  C   UNL     1       1.116   0.781  -2.156  0.00  0.00    +0.045 C 
ENDBRANCH   1  17
BRANCH   5  20
ATOM     20  C   UNL     1      -2.183   1.983   6.245  0.00  0.00    -0.017 A 
ATOM     21  C   UNL     1      -1.135   2.870   6.540  0.00  0.00    +0.057 A 
ATOM     22  C   UNL     1      -1.061   3.457   7.787  0.00  0.00    +0.166 A 
ATOM     23  C   UNL     1      -2.025   3.170   8.753  0.00  0.00    +0.201 A 
ATOM     24  C   UNL     1      -3.068   2.290   8.465  0.00  0.00    +0.166 A 
ATOM     25  C   UNL     1      -3.154   1.703   7.220  0.00  0.00    +0.057 A 
BRANCH  24  26
ATOM     26  O   UNL     1      -4.005   2.014   9.412  0.00  0.00    -0.491 OA
ATOM     27  C   UNL     1      -5.045   1.104   9.050  0.00  0.00    +0.277 C 
ENDBRANCH  24  26
BRANCH  23  28
ATOM     28  O   UNL     1      -1.948   3.749   9.979  0.00  0.00    -0.501 OA
ATOM     29  H   UNL     1      -2.415   4.593  10.045  0.00  0.00    +0.292 HD
ENDBRANCH  23  28
BRANCH  22  30
ATOM     30  O   UNL     1      -0.047   4.316   8.074  0.00  0.00    -0.491 OA
ATOM     31  C   UNL     1       0.905   4.564   7.038  0.00  0.00    +0.277 C 
ENDBRANCH  22  30
ENDBRANCH   5  20
TORSDOF 5
