REMARK  Name = ZINC38937023
REMARK  6 active torsions:
REMARK  status: ('A' for Active; 'I' for Inactive)
REMARK    1  A    between atoms: C_1  and  C_2
REMARK    2  A    between atoms: C_4  and  C_16
REMARK    3  A    between atoms: C_6  and  C_14
REMARK    4  A    between atoms: C_7  and  N_13
REMARK    5  A    between atoms: C_16  and  C_17
REMARK    6  A    between atoms: C_17  and  C_18
REMARK                            x       y       z     vdW  Elec       q    Type
REMARK                         _______ _______ _______ _____ _____    ______ ____
ROOT
ATOM      1  C   UNL     1      -0.095   1.736   0.062  0.00  0.00    +0.067 C 
ATOM      2  C   UNL     1      -0.025   0.252   0.311  0.00  0.00    +0.065 C 
ATOM      3  C   UNL     1      -1.063  -0.547   0.377  0.00  0.00    +0.025 C 
ATOM      4  C   UNL     1      -2.533  -0.360   0.117  0.00  0.00    +0.068 C 
ATOM      5  C   UNL     1      -2.972  -1.596  -0.645  0.00  0.00    +0.093 C 
ATOM      6  C   UNL     1      -2.156  -2.659  -0.802  0.00  0.00    +0.195 C 
ATOM      7  O   UNL     1      -0.891  -2.774  -0.360  0.00  0.00    -0.448 OA
ATOM      8  C   UNL     1      -0.487  -1.922   0.715  0.00  0.00    +0.342 C 
ATOM      9  N   UNL     1       0.956  -1.659   0.703  0.00  0.00    -0.138 NA
ATOM     10  N   UNL     1       1.122  -0.451   0.494  0.00  0.00    -0.155 NA
ENDROOT
BRANCH   6  11
ATOM     11  N   UNL     1      -2.670  -3.734  -1.484  0.00  0.00    -0.329 N 
ATOM     12  H   UNL     1      -3.578  -3.703  -1.824  0.00  0.00    +0.145 HD
ATOM     13  H   UNL     1      -2.125  -4.524  -1.625  0.00  0.00    +0.145 HD
ENDBRANCH   6  11
BRANCH   5  14
ATOM     14  C   UNL     1      -4.287  -1.636  -1.211  0.00  0.00    +0.100 C 
ATOM     15  N   UNL     1      -5.330  -1.668  -1.660  0.00  0.00    -0.191 NA
ENDBRANCH   5  14
BRANCH   4  16
ATOM     16  C   UNL     1      -2.766   0.896  -0.726  0.00  0.00    +0.018 C 
BRANCH  16  17
ATOM     17  C   UNL     1      -4.268   1.158  -0.846  0.00  0.00    +0.036 C 
BRANCH  17  18
ATOM     18  C   UNL     1      -4.494   2.471  -1.551  0.00  0.00    -0.047 A 
ATOM     19  C   UNL     1      -4.576   3.642  -0.822  0.00  0.00    +0.003 A 
ATOM     20  C   UNL     1      -4.783   4.846  -1.470  0.00  0.00    +0.000 A 
ATOM     21  C   UNL     1      -4.908   4.878  -2.846  0.00  0.00    +0.000 A 
ATOM     22  C   UNL     1      -4.825   3.706  -3.575  0.00  0.00    +0.000 A 
ATOM     23  C   UNL     1      -4.613   2.503  -2.928  0.00  0.00    +0.003 A 
ENDBRANCH  17  18
ENDBRANCH  16  17
ENDBRANCH   4  16
TORSDOF 5
