REMARK  Name = ZINC08526827
REMARK  7 active torsions:
REMARK  status: ('A' for Active; 'I' for Inactive)
REMARK    1  A    between atoms: C_1  and  C_2
REMARK    2  A    between atoms: C_5  and  S_8
REMARK    3  A    between atoms: N_6  and  N_7
REMARK    4  A    between atoms: S_8  and  C_9
REMARK    5  A    between atoms: C_9  and  C_11
REMARK    6  A    between atoms: C_9  and  C_12
REMARK    7  A    between atoms: N_17  and  C_18
REMARK                            x       y       z     vdW  Elec       q    Type
REMARK                         _______ _______ _______ _____ _____    ______ ____
ROOT
ATOM      1  C   UNL     1       0.002  -0.004   0.002  0.00  0.00    +0.234 C 
ATOM      2  O   UNL     1      -0.800  -0.618  -0.668  0.00  0.00    -0.274 OA
ATOM      3  N   UNL     1       0.912  -0.670   0.740  0.00  0.00    -0.239 N 
ATOM      4  C   UNL     1       0.931  -2.017   0.733  0.00  0.00    +0.306 C 
ATOM      5  O   UNL     1       0.126  -2.632   0.060  0.00  0.00    -0.252 OA
ATOM      6  N   UNL     1       1.841  -2.683   1.471  0.00  0.00    -0.294 N 
ATOM      7  H   UNL     1       1.554  -0.179   1.277  0.00  0.00    +0.159 HD
ATOM      8  H   UNL     1       2.483  -2.192   2.007  0.00  0.00    +0.151 HD
ENDROOT
BRANCH   6   9
ATOM      9  C   UNL     1       1.861  -4.148   1.463  0.00  0.00    +0.037 C 
ATOM     10  C   UNL     1       0.517  -4.679   1.966  0.00  0.00    +0.029 C 
ATOM     11  C   UNL     1       0.538  -6.209   1.958  0.00  0.00    -0.008 C 
ATOM     12  C   UNL     1       1.659  -6.709   2.872  0.00  0.00    +0.007 C 
ATOM     13  C   UNL     1       3.002  -6.178   2.368  0.00  0.00    -0.008 C 
ATOM     14  C   UNL     1       2.982  -4.648   2.377  0.00  0.00    +0.029 C 
ATOM     15  C   UNL     1       3.246  -6.676   0.942  0.00  0.00    +0.007 C 
ATOM     16  C   UNL     1       2.125  -6.177   0.029  0.00  0.00    -0.008 C 
ATOM     17  C   UNL     1       0.782  -6.708   0.532  0.00  0.00    +0.007 C 
ATOM     18  C   UNL     1       2.105  -4.647   0.037  0.00  0.00    +0.029 C 
ENDBRANCH   6   9
BRANCH   1  19
ATOM     19  C   UNL     1      -0.018   1.503   0.010  0.00  0.00    +0.137 C 
ATOM     20  C   UNL     1      -0.735   1.996   1.269  0.00  0.00    +0.029 C 
BRANCH  19  21
ATOM     21  S   UNL     1      -0.894   2.102  -1.456  0.00  0.00    -0.072 S 
BRANCH  21  26
ATOM     22  C   UNL     1      -0.899   7.373  -2.135  0.00  0.00    +0.090 C 
ATOM     23  C   UNL     1      -0.657   5.994  -1.577  0.00  0.00    +0.148 A 
ATOM     24  N   UNL     1       0.004   5.705  -0.491  0.00  0.00    -0.132 NA
ATOM     25  N   UNL     1       0.017   4.433  -0.308  0.00  0.00    -0.121 NA
ATOM     26  C   UNL     1      -0.641   3.837  -1.276  0.00  0.00    +0.209 A 
ATOM     27  N   UNL     1      -1.087   4.814  -2.118  0.00  0.00    -0.228 N 
BRANCH  27  28
ATOM     28  N   UNL     1      -1.813   4.648  -3.263  0.00  0.00    -0.295 N 
ATOM     29  H   UNL     1      -2.803   4.669  -3.069  0.00  0.00    +0.163 HD
ATOM     30  H   UNL     1      -1.565   5.341  -3.953  0.00  0.00    +0.163 HD
ENDBRANCH  27  28
ENDBRANCH  21  26
ENDBRANCH  19  21
ENDBRANCH   1  19
TORSDOF 5
