REMARK  Name = ZINC09298081
REMARK  10 active torsions:
REMARK  status: ('A' for Active; 'I' for Inactive)
REMARK    1  A    between atoms: C_1  and  C_2
REMARK    2  A    between atoms: C_9  and  N_18
REMARK    3  A    between atoms: C_10  and  C_11
REMARK    4  A    between atoms: C_14  and  O_16
REMARK    5  A    between atoms: O_16  and  C_17
REMARK    6  A    between atoms: C_19  and  C_21
REMARK    7  A    between atoms: C_24  and  O_29
REMARK    8  A    between atoms: C_25  and  O_27
REMARK    9  A    between atoms: O_27  and  C_28
REMARK   10  A    between atoms: O_29  and  C_30
REMARK                            x       y       z     vdW  Elec       q    Type
REMARK                         _______ _______ _______ _____ _____    ______ ____
ROOT
ATOM      1  C   UNL     1      -1.863   5.091  -0.045  0.00  0.00    +0.008 C 
ATOM      2  C   UNL     1      -0.749   4.088  -0.348  0.00  0.00    -0.009 C 
ATOM      3  C   UNL     1       0.493   4.435   0.479  0.00  0.00    +0.008 C 
ATOM      4  C   UNL     1       1.683   3.599   0.006  0.00  0.00    +0.037 C 
ATOM      5  C   UNL     1       1.279   2.130   0.001  0.00  0.00    -0.023 A 
ATOM      6  C   UNL     1      -0.022   1.766   0.012  0.00  0.00    -0.004 A 
ATOM      7  S   UNL     1       0.002  -0.004   0.002  0.00  0.00    -0.077 S 
ATOM      8  C   UNL     1       1.716  -0.261  -0.016  0.00  0.00    +0.085 A 
ATOM      9  C   UNL     1       2.229   1.030  -0.014  0.00  0.00    +0.069 A 
ATOM     10  C   UNL     1      -1.213   2.674   0.023  0.00  0.00    +0.046 C 
ENDROOT
BRANCH   9  11
ATOM     11  C   UNL     1       3.673   1.273  -0.027  0.00  0.00    +0.255 C 
ATOM     12  O   UNL     1       4.262   1.380  -1.086  0.00  0.00    -0.270 OA
ATOM     13  N   UNL     1       4.349   1.379   1.134  0.00  0.00    -0.217 N 
ATOM     14  C   UNL     1       5.678   1.603   1.122  0.00  0.00    +0.407 C 
ATOM     15  O   UNL     1       6.266   1.710   0.064  0.00  0.00    -0.226 OA
ATOM     16  H   UNL     1       3.879   1.294   1.978  0.00  0.00    +0.161 HD
BRANCH  14  17
ATOM     17  O   UNL     1       6.354   1.709   2.281  0.00  0.00    -0.453 OA
ATOM     18  C   UNL     1       7.782   1.951   2.192  0.00  0.00    +0.282 C 
ENDBRANCH  14  17
ENDBRANCH   9  11
BRANCH   8  19
ATOM     19  N   UNL     1       2.406  -1.462  -0.029  0.00  0.00    -0.275 N 
ATOM     20  C   UNL     1       1.730  -2.627  -0.029  0.00  0.00    +0.249 C 
ATOM     21  O   UNL     1       0.514  -2.625  -0.017  0.00  0.00    -0.270 OA
ATOM     22  H   UNL     1       3.376  -1.463  -0.038  0.00  0.00    +0.156 HD
BRANCH  20  23
ATOM     23  C   UNL     1       2.465  -3.907  -0.042  0.00  0.00    +0.041 A 
ATOM     24  C   UNL     1       3.862  -3.911  -0.056  0.00  0.00    +0.017 A 
ATOM     25  C   UNL     1       4.548  -5.106  -0.069  0.00  0.00    +0.050 A 
ATOM     26  C   UNL     1       3.853  -6.308  -0.069  0.00  0.00    +0.162 A 
ATOM     27  C   UNL     1       2.459  -6.311  -0.056  0.00  0.00    +0.162 A 
ATOM     28  C   UNL     1       1.766  -5.117  -0.036  0.00  0.00    +0.062 A 
BRANCH  27  29
ATOM     29  O   UNL     1       1.781  -7.491  -0.056  0.00  0.00    -0.491 OA
ATOM     30  C   UNL     1       0.354  -7.419  -0.041  0.00  0.00    +0.277 C 
ENDBRANCH  27  29
BRANCH  26  31
ATOM     31  O   UNL     1       4.533  -7.484  -0.082  0.00  0.00    -0.491 OA
ATOM     32  C   UNL     1       5.960  -7.408  -0.095  0.00  0.00    +0.277 C 
ENDBRANCH  26  31
ENDBRANCH  20  23
ENDBRANCH   8  19
TORSDOF 6
