REMARK  Name = ZINC54319827
REMARK  4 active torsions:
REMARK  status: ('A' for Active; 'I' for Inactive)
REMARK    1  A    between atoms: C_3  and  N_19
REMARK    2  A    between atoms: C_6  and  N_7
REMARK    3  A    between atoms: N_7  and  S_8
REMARK    4  A    between atoms: S_8  and  C_11
REMARK                            x       y       z     vdW  Elec       q    Type
REMARK                         _______ _______ _______ _____ _____    ______ ____
ROOT
ATOM      1  C   UNL     1      -0.303   1.494  -0.105  0.00  0.00    +0.026 A 
ATOM      2  C   UNL     1       0.823   2.294  -0.067  0.00  0.00    +0.025 A 
ATOM      3  C   UNL     1       2.077   1.720   0.092  0.00  0.00    +0.038 A 
ATOM      4  C   UNL     1       2.200   0.342   0.213  0.00  0.00    +0.025 A 
ATOM      5  C   UNL     1       1.075  -0.458   0.176  0.00  0.00    +0.026 A 
ATOM      6  C   UNL     1      -0.180   0.116   0.017  0.00  0.00    +0.048 A 
ENDROOT
BRANCH   3   7
ATOM      7  N   UNL     1       3.219   2.531   0.129  0.00  0.00    -0.254 N 
ATOM      8  C   UNL     1       4.587   2.066   0.403  0.00  0.00    +0.134 C 
ATOM      9  C   UNL     1       5.437   3.349   0.323  0.00  0.00    +0.125 C 
ATOM     10  N   UNL     1       4.458   4.401   0.012  0.00  0.00    -0.297 N 
ATOM     11  C   UNL     1       3.239   3.854  -0.085  0.00  0.00    +0.307 C 
ATOM     12  O   UNL     1       2.241   4.499  -0.340  0.00  0.00    -0.252 OA
ATOM     13  H   UNL     1       4.663   5.341  -0.109  0.00  0.00    +0.150 HD
ENDBRANCH   3   7
BRANCH   6  14
ATOM     14  N   UNL     1      -1.320  -0.694  -0.021  0.00  0.00    -0.216 N 
ATOM     15  H   UNL     1      -2.104  -0.453   0.498  0.00  0.00    +0.174 HD
BRANCH  14  16
ATOM     16  S   UNL     1      -1.332  -2.064  -0.950  0.00  0.00    +0.075 S 
ATOM     17  O   UNL     1      -0.178  -2.811  -0.587  0.00  0.00    -0.150 OA
ATOM     18  O   UNL     1      -2.644  -2.602  -0.864  0.00  0.00    -0.150 OA
BRANCH  16  19
ATOM     19  C   UNL     1      -1.102  -1.562  -2.623  0.00  0.00    +0.144 A 
ATOM     20  C   UNL     1       0.042  -1.932  -3.304  0.00  0.00    +0.033 A 
ATOM     21  C   UNL     1       0.224  -1.538  -4.617  0.00  0.00    +0.022 A 
ATOM     22  C   UNL     1      -0.740  -0.773  -5.250  0.00  0.00    +0.044 A 
ATOM     23  C   UNL     1      -1.885  -0.402  -4.569  0.00  0.00    +0.060 A 
ATOM     24  C   UNL     1      -2.069  -0.800  -3.256  0.00  0.00    +0.151 A 
ATOM     25  F   UNL     1      -3.189  -0.442  -2.592  0.00  0.00    -0.203 F 
ATOM     26 CL   UNL     1      -0.511  -0.278  -6.898  0.00  0.00    -0.083 Cl
ENDBRANCH  16  19
ENDBRANCH  14  16
ENDBRANCH   6  14
TORSDOF 4
