REMARK  Name = ZINC17044830
REMARK  3 active torsions:
REMARK  status: ('A' for Active; 'I' for Inactive)
REMARK    1  A    between atoms: C_1  and  C_2
REMARK    2  A    between atoms: C_7  and  C_17
REMARK    3  A    between atoms: C_10  and  C_12
REMARK                            x       y       z     vdW  Elec       q    Type
REMARK                         _______ _______ _______ _____ _____    ______ ____
ROOT
ATOM      1  C   UNL     1      -0.018   1.503   0.010  0.00  0.00    +0.090 C 
ATOM      2  C   UNL     1       0.002  -0.004   0.002  0.00  0.00    +0.150 A 
ATOM      3  N   UNL     1       0.008  -0.768  -1.092  0.00  0.00    -0.195 NA
ATOM      4  C   UNL     1       0.029  -2.032  -0.747  0.00  0.00    +0.250 A 
ATOM      5  N   UNL     1       0.029  -2.084   0.622  0.00  0.00    -0.221 N 
ATOM      6  N   UNL     1       0.023  -0.767   1.069  0.00  0.00    -0.153 NA
ATOM      7  C   UNL     1       0.033  -3.344   1.365  0.00  0.00    +0.147 C 
ATOM      8  C   UNL     1       0.748  -4.397   0.510  0.00  0.00    +0.091 C 
ATOM      9  C   UNL     1       0.327  -4.302  -0.929  0.00  0.00    +0.090 C 
ATOM     10  N   UNL     1       0.027  -3.160  -1.502  0.00  0.00    -0.212 NA
ENDROOT
BRANCH   7  11
ATOM     11  C   UNL     1      -1.385  -3.781   1.632  0.00  0.00    -0.023 A 
ATOM     12  C   UNL     1      -2.243  -4.029   0.577  0.00  0.00    +0.006 A 
ATOM     13  C   UNL     1      -3.542  -4.430   0.822  0.00  0.00    +0.000 A 
ATOM     14  C   UNL     1      -3.984  -4.584   2.123  0.00  0.00    +0.000 A 
ATOM     15  C   UNL     1      -3.126  -4.338   3.178  0.00  0.00    +0.000 A 
ATOM     16  C   UNL     1      -1.825  -3.941   2.933  0.00  0.00    +0.006 A 
ENDBRANCH   7  11
BRANCH   9  17
ATOM     17  C   UNL     1       0.250  -5.489  -1.696  0.00  0.00    +0.149 A 
ATOM     18  C   UNL     1      -0.113  -5.577  -3.024  0.00  0.00    +0.051 A 
ATOM     19  C   UNL     1      -0.050  -6.936  -3.366  0.00  0.00    +0.042 A 
ATOM     20  C   UNL     1       0.340  -7.609  -2.260  0.00  0.00    +0.196 A 
ATOM     21  O   UNL     1       0.523  -6.737  -1.260  0.00  0.00    -0.462 OA
ENDBRANCH   9  17
TORSDOF 2
