REMARK  Name = ZINC15540831
REMARK  3 active torsions:
REMARK  status: ('A' for Active; 'I' for Inactive)
REMARK    1  A    between atoms: C_4  and  C_7
REMARK    2  A    between atoms: N_14  and  N_17
REMARK    3  A    between atoms: C_18  and  C_20
REMARK                            x       y       z     vdW  Elec       q    Type
REMARK                         _______ _______ _______ _____ _____    ______ ____
ROOT
ATOM      1  C   UNL     1       5.270   0.271  -2.256  0.00  0.00    +0.004 A 
ATOM      2  C   UNL     1       6.401  -0.438  -2.024  0.00  0.00    +0.056 A 
ATOM      3  S   UNL     1       6.261  -0.887  -0.305  0.00  0.00    -0.076 S 
ATOM      4  C   UNL     1       4.702  -0.120   0.058  0.00  0.00    +0.116 A 
ATOM      5  C   UNL     1       4.327   0.466  -1.161  0.00  0.00    +0.081 A 
ATOM      6  C   UNL     1       3.079   1.167  -1.154  0.00  0.00    +0.280 A 
ATOM      7  O   UNL     1       2.669   1.710  -2.166  0.00  0.00    -0.265 OA
ATOM      8  N   UNL     1       2.366   1.218  -0.014  0.00  0.00    -0.212 N 
ATOM      9  C   UNL     1       2.811   0.624   1.123  0.00  0.00    +0.223 A 
ATOM     10  N   UNL     1       3.943  -0.027   1.147  0.00  0.00    -0.228 NA
ENDROOT
BRANCH   1  14
ATOM     11  C   UNL     1       4.486   1.898  -6.105  0.00  0.00    +0.000 A 
ATOM     12  C   UNL     1       5.713   2.113  -5.503  0.00  0.00    +0.001 A 
ATOM     13  C   UNL     1       5.973   1.588  -4.254  0.00  0.00    +0.008 A 
ATOM     14  C   UNL     1       4.997   0.839  -3.598  0.00  0.00    -0.017 A 
ATOM     15  C   UNL     1       3.764   0.620  -4.212  0.00  0.00    +0.008 A 
ATOM     16  C   UNL     1       3.513   1.156  -5.459  0.00  0.00    +0.001 A 
ENDBRANCH   1  14
BRANCH   8  17
ATOM     17  N   UNL     1       1.143   1.902   0.001  0.00  0.00    -0.215 N 
ATOM     18  C   UNL     1      -0.014   1.212   0.009  0.00  0.00    +0.269 C 
ATOM     19  O   UNL     1       0.002  -0.004   0.002  0.00  0.00    -0.268 OA
ATOM     20  H   UNL     1       1.130   2.872   0.007  0.00  0.00    +0.176 HD
BRANCH  18  21
ATOM     21  C   UNL     1      -1.300   1.931   0.019  0.00  0.00    +0.123 A 
ATOM     22  C   UNL     1      -1.333   3.315   0.026  0.00  0.00    +0.031 A 
ATOM     23  C   UNL     1      -2.592   3.966   0.035  0.00  0.00    +0.018 A 
ATOM     24  C   UNL     1      -2.662   5.367   0.043  0.00  0.00    +0.011 A 
ATOM     25  C   UNL     1      -3.878   5.987   0.051  0.00  0.00    +0.001 A 
ATOM     26  C   UNL     1      -5.049   5.241   0.052  0.00  0.00    +0.004 A 
ATOM     27  C   UNL     1      -5.004   3.863   0.045  0.00  0.00    +0.047 A 
ATOM     28  C   UNL     1      -3.777   3.208   0.036  0.00  0.00    +0.139 A 
ATOM     29  O   UNL     1      -3.735   1.858   0.029  0.00  0.00    -0.422 OA
ATOM     30  C   UNL     1      -2.568   1.193   0.015  0.00  0.00    +0.350 A 
ATOM     31  O   UNL     1      -2.563  -0.023   0.003  0.00  0.00    -0.244 OA
ENDBRANCH  18  21
ENDBRANCH   8  17
TORSDOF 3
