REMARK  Name = ZINC16036331
REMARK  8 active torsions:
REMARK  status: ('A' for Active; 'I' for Inactive)
REMARK    1  A    between atoms: C_1  and  C_2
REMARK    2  A    between atoms: C_13  and  O_15
REMARK    3  A    between atoms: O_15  and  C_16
REMARK    4  A    between atoms: C_16  and  C_18
REMARK    5  A    between atoms: C_18  and  C_19
REMARK    6  A    between atoms: C_19  and  C_20
REMARK    7  A    between atoms: C_26  and  C_28
REMARK    8  A    between atoms: C_38  and  C_39
REMARK                            x       y       z     vdW  Elec       q    Type
REMARK                         _______ _______ _______ _____ _____    ______ ____
ROOT
ATOM      1  C   UNL     1      -5.699  -0.770  -0.483  0.00  0.00    +0.015 C 
ATOM      2  C   UNL     1      -4.297  -0.164  -0.572  0.00  0.00    +0.008 C 
ATOM      3  C   UNL     1      -3.733  -0.018   0.824  0.00  0.00    +0.011 C 
ATOM      4  C   UNL     1      -2.293   0.483   0.764  0.00  0.00    +0.005 C 
ATOM      5  C   UNL     1      -1.438  -0.534  -0.007  0.00  0.00    +0.002 C 
ATOM      6  C   UNL     1      -1.956  -0.666  -1.429  0.00  0.00    -0.003 C 
ATOM      7  C   UNL     1      -3.436  -1.070  -1.464  0.00  0.00    +0.002 C 
ATOM      8  C   UNL     1      -3.955  -0.696  -2.885  0.00  0.00    +0.008 C 
ATOM      9  C   UNL     1      -4.164   0.833  -2.810  0.00  0.00    +0.045 C 
ATOM     10  C   UNL     1      -4.376   1.173  -1.321  0.00  0.00    +0.183 C 
ATOM     11  C   UNL     1      -1.184  -1.702  -2.242  0.00  0.00    +0.008 C 
ATOM     12  C   UNL     1       0.277  -1.804  -1.830  0.00  0.00    +0.032 C 
ATOM     13  C   UNL     1       0.720  -0.495  -1.226  0.00  0.00    -0.060 C 
ATOM     14  C   UNL     1       1.711   0.201  -1.773  0.00  0.00    +0.046 C 
ATOM     15  C   UNL     1       2.134   1.481  -1.207  0.00  0.00    +0.156 C 
ATOM     16  O   UNL     1       3.056   2.091  -1.707  0.00  0.00    -0.293 OA
ATOM     17  C   UNL     1       1.424   2.042  -0.001  0.00  0.00    +0.080 C 
ATOM     18  C   UNL     1      -0.019   1.526   0.010  0.00  0.00    +0.019 C 
ATOM     19  C   UNL     1       0.002  -0.004   0.002  0.00  0.00    -0.007 C 
ATOM     20  C   UNL     1       0.724  -0.511   1.252  0.00  0.00    +0.016 C 
ENDROOT
BRANCH  10  21
ATOM     21  O   UNL     1      -3.333   2.070  -0.856  0.00  0.00    -0.461 OA
BRANCH  21  22
ATOM     22  C   UNL     1      -3.595   3.385  -0.903  0.00  0.00    +0.308 C 
ATOM     23  O   UNL     1      -4.661   3.774  -1.318  0.00  0.00    -0.251 OA
BRANCH  22  24
ATOM     24  C   UNL     1      -2.561   4.377  -0.437  0.00  0.00    +0.130 C 
BRANCH  24  25
ATOM     25  C   UNL     1      -3.108   5.797  -0.595  0.00  0.00    +0.107 C 
BRANCH  25  26
ATOM     26  C   UNL     1      -2.073   6.788  -0.129  0.00  0.00    +0.217 C 
ATOM     27  O   UNL     1      -1.003   6.398   0.288  0.00  0.00    -0.276 OA
ATOM     28  N   UNL     1      -2.336   8.109  -0.176  0.00  0.00    -0.288 N 
ATOM     29  C   UNL     1      -3.587   8.720  -0.663  0.00  0.00    +0.109 C 
ATOM     30  C   UNL     1      -3.652  10.101   0.040  0.00  0.00    +0.021 C 
ATOM     31  C   UNL     1      -2.158  10.521   0.035  0.00  0.00    +0.035 C 
ATOM     32  C   UNL     1      -1.421   9.181   0.244  0.00  0.00    +0.189 C 
BRANCH  32  33
ATOM     33  C   UNL     1      -0.169   9.144  -0.594  0.00  0.00    +0.376 C 
ATOM     34  O   UNL     1      -0.045   8.309  -1.458  0.00  0.00    -0.244 OA
ATOM     35  O   UNL     1       0.808  10.039  -0.379  0.00  0.00    -0.244 OA
ENDBRANCH  32  33
ENDBRANCH  25  26
ENDBRANCH  24  25
ENDBRANCH  22  24
ENDBRANCH  21  22
ENDBRANCH  10  21
TORSDOF 6
