REMARK  Name = ZINC04147843
REMARK  11 active torsions:
REMARK  status: ('A' for Active; 'I' for Inactive)
REMARK    1  A    between atoms: C_1  and  C_2
REMARK    2  A    between atoms: C_2  and  N_3
REMARK    3  A    between atoms: C_7  and  C_9
REMARK    4  A    between atoms: C_9  and  N_10
REMARK    5  A    between atoms: C_11  and  C_13
REMARK    6  A    between atoms: C_13  and  C_15
REMARK    7  A    between atoms: C_13  and  N_18
REMARK    8  A    between atoms: C_15  and  C_16
REMARK    9  A    between atoms: C_15  and  C_17
REMARK   10  A    between atoms: C_19  and  C_21
REMARK   11  A    between atoms: C_24  and  C_27
REMARK                            x       y       z     vdW  Elec       q    Type
REMARK                         _______ _______ _______ _____ _____    ______ ____
ROOT
ATOM      1  N   UNL     1      -4.277  -1.850  -5.021  0.00  0.00    -0.300 N 
ATOM      2  C   UNL     1      -5.623  -1.869  -5.075  0.00  0.00    +0.245 C 
ATOM      3  O   UNL     1      -6.275  -1.474  -4.128  0.00  0.00    -0.270 OA
ATOM      4  H   UNL     1      -3.757  -2.166  -5.777  0.00  0.00    +0.150 HD
ENDROOT
BRANCH   2   5
ATOM      5  C   UNL     1      -6.308  -2.373  -6.285  0.00  0.00    +0.037 A 
ATOM      6  C   UNL     1      -5.562  -2.834  -7.371  0.00  0.00    +0.013 A 
ATOM      7  C   UNL     1      -6.207  -3.303  -8.497  0.00  0.00    +0.005 A 
ATOM      8  C   UNL     1      -7.590  -3.317  -8.550  0.00  0.00    -0.041 A 
ATOM      9  C   UNL     1      -8.335  -2.861  -7.477  0.00  0.00    +0.005 A 
ATOM     10  C   UNL     1      -7.702  -2.395  -6.343  0.00  0.00    +0.013 A 
BRANCH   8  11
ATOM     11  C   UNL     1      -8.288  -3.830  -9.784  0.00  0.00    -0.003 C 
ATOM     12  C   UNL     1      -7.892  -5.289 -10.024  0.00  0.00    +0.015 C 
ATOM     13  C   UNL     1      -8.600  -5.810 -11.276  0.00  0.00    -0.010 C 
ATOM     14  C   UNL     1     -10.115  -5.718 -11.080  0.00  0.00    +0.007 C 
ATOM     15  C   UNL     1     -10.511  -4.260 -10.840  0.00  0.00    -0.010 C 
ATOM     16  C   UNL     1      -9.802  -3.739  -9.588  0.00  0.00    +0.015 C 
ATOM     17  C   UNL     1     -10.100  -3.415 -12.047  0.00  0.00    +0.007 C 
ATOM     18  C   UNL     1      -8.586  -3.506 -12.243  0.00  0.00    -0.010 C 
ATOM     19  C   UNL     1      -8.190  -4.965 -12.483  0.00  0.00    +0.007 C 
ATOM     20  C   UNL     1      -7.877  -2.985 -10.991  0.00  0.00    +0.015 C 
ENDBRANCH   8  11
ENDBRANCH   2   5
BRANCH   1  21
ATOM     21  C   UNL     1      -3.598  -1.351  -3.823  0.00  0.00    +0.162 C 
BRANCH  21  23
ATOM     22  N   UNL     1      -1.651  -2.153  -2.525  0.00  0.00    -0.315 N 
ATOM     23  C   UNL     1      -2.225  -1.965  -3.730  0.00  0.00    +0.234 C 
ATOM     24  O   UNL     1      -1.637  -2.289  -4.740  0.00  0.00    -0.274 OA
ATOM     25  H   UNL     1      -2.089  -1.827  -1.723  0.00  0.00    +0.149 HD
BRANCH  22  26
ATOM     26  C   UNL     1      -0.367  -2.851  -2.427  0.00  0.00    +0.089 C 
BRANCH  26  31
ATOM     27  N   UNL     1       0.084  -1.579  -0.371  0.00  0.00    +0.382 N 
ATOM     28  C   UNL     1       1.465  -1.281   0.065  0.00  0.00    -0.078 C 
ATOM     29  C   UNL     1       2.117  -2.668   0.291  0.00  0.00    -0.020 C 
ATOM     30  C   UNL     1       1.490  -3.499  -0.859  0.00  0.00    -0.016 C 
ATOM     31  C   UNL     1       0.059  -2.930  -0.960  0.00  0.00    -0.051 C 
ATOM     32  H   UNL     1      -0.205  -0.902  -1.061  0.00  0.00    -0.081 HD
BRANCH  27  34
ATOM     33  C   UNL     1      -0.887  -0.093   1.316  0.00  0.00    -0.017 C 
ATOM     34  C   UNL     1      -0.821  -1.526   0.785  0.00  0.00    -0.082 C 
ENDBRANCH  27  34
ENDBRANCH  26  31
ENDBRANCH  22  26
ENDBRANCH  21  23
BRANCH  21  35
ATOM     35  C   UNL     1      -3.471   0.172  -3.905  0.00  0.00    +0.012 C 
ATOM     36  C   UNL     1      -4.866   0.801  -3.900  0.00  0.00    +0.009 C 
ATOM     37  C   UNL     1      -2.677   0.683  -2.701  0.00  0.00    +0.009 C 
ENDBRANCH  21  35
ENDBRANCH   1  21
TORSDOF 8
