REMARK  Name = ZINC15921945
REMARK  5 active torsions:
REMARK  status: ('A' for Active; 'I' for Inactive)
REMARK    1  A    between atoms: C_1  and  N_2
REMARK    2  A    between atoms: C_3  and  C_14
REMARK    3  A    between atoms: C_4  and  N_11
REMARK    4  A    between atoms: N_7  and  C_10
REMARK    5  A    between atoms: C_15  and  C_16
REMARK                            x       y       z     vdW  Elec       q    Type
REMARK                         _______ _______ _______ _____ _____    ______ ____
ROOT
ATOM      1  C   UNL     1       0.058   1.129   1.407  0.00  0.00    +0.154 C 
ATOM      2  N   UNL     1       0.041  -0.173   0.737  0.00  0.00    -0.295 N 
ATOM      3  C   UNL     1      -1.146  -0.673   0.232  0.00  0.00    +0.082 A 
ATOM      4  C   UNL     1      -1.143  -1.906  -0.400  0.00  0.00    +0.214 A 
ATOM      5  C   UNL     1       0.067  -2.609  -0.506  0.00  0.00    +0.287 A 
ATOM      6  O   UNL     1       0.098  -3.696  -1.057  0.00  0.00    -0.265 OA
ATOM      7  N   UNL     1       1.195  -2.077   0.003  0.00  0.00    -0.262 N 
ATOM      8  C   UNL     1       1.181  -0.877   0.609  0.00  0.00    +0.332 A 
ATOM      9  O   UNL     1       2.216  -0.421   1.055  0.00  0.00    -0.246 OA
ATOM     10  C   UNL     1       2.456  -2.814  -0.110  0.00  0.00    +0.157 C 
ENDROOT
BRANCH   4  11
ATOM     11  N   UNL     1      -2.395  -2.473  -0.952  0.00  0.00    +0.064 N 
ATOM     12  O   UNL     1      -3.404  -1.808  -0.967  0.00  0.00    -0.126 OA
ATOM     13  O   UNL     1      -2.407  -3.600  -1.389  0.00  0.00    -0.126 OA
ENDBRANCH   4  11
BRANCH   3  14
ATOM     14  C   UNL     1      -2.347   0.066   0.359  0.00  0.00    +0.029 C 
ATOM     15  C   UNL     1      -2.317   1.419   0.320  0.00  0.00    +0.012 C 
BRANCH  15  16
ATOM     16  C   UNL     1      -3.566   2.181   0.389  0.00  0.00    +0.000 A 
ATOM     17  C   UNL     1      -4.829   1.673   0.499  0.00  0.00    +0.091 A 
ATOM     18  N   UNL     1      -5.729   2.689   0.534  0.00  0.00    -0.360 N 
ATOM     19  H   UNL     1      -6.690   2.575   0.610  0.00  0.00    +0.165 HD
ATOM     20  C   UNL     1      -5.085   3.906   0.448  0.00  0.00    +0.047 A 
ATOM     21  C   UNL     1      -3.707   3.649   0.359  0.00  0.00    +0.007 A 
ATOM     22  C   UNL     1      -2.805   4.705   0.265  0.00  0.00    +0.010 A 
ATOM     23  C   UNL     1      -3.270   6.002   0.263  0.00  0.00    +0.001 A 
ATOM     24  C   UNL     1      -4.630   6.258   0.355  0.00  0.00    +0.002 A 
ATOM     25  C   UNL     1      -5.535   5.222   0.440  0.00  0.00    +0.026 A 
ENDBRANCH  15  16
ENDBRANCH   3  14
TORSDOF 3
