REMARK  Name = ZINC01819413
REMARK  8 active torsions:
REMARK  status: ('A' for Active; 'I' for Inactive)
REMARK    1  A    between atoms: C_3  and  N_35
REMARK    2  A    between atoms: C_6  and  C_7
REMARK    3  A    between atoms: N_13  and  C_14
REMARK    4  A    between atoms: C_17  and  S_20
REMARK    5  A    between atoms: S_20  and  N_23
REMARK    6  A    between atoms: N_24  and  C_25
REMARK    7  A    between atoms: C_28  and  S_31
REMARK    8  A    between atoms: S_31  and  N_34
REMARK                            x       y       z     vdW  Elec       q    Type
REMARK                         _______ _______ _______ _____ _____    ______ ____
ROOT
ATOM      1  C   UNL     1      -1.069  -0.807  -0.035  0.00  0.00    +0.118 C 
ATOM      2  C   UNL     1      -1.467  -1.319  -1.429  0.00  0.00    +0.088 C 
ATOM      3  C   UNL     1      -1.782  -2.784  -1.211  0.00  0.00    +0.106 C 
ATOM      4  C   UNL     1      -1.567  -3.053   0.221  0.00  0.00    +0.266 C 
ATOM      5  O   UNL     1      -1.729  -4.138   0.745  0.00  0.00    -0.268 OA
ATOM      6  N   UNL     1      -1.171  -1.952   0.872  0.00  0.00    -0.259 N 
ATOM      7  N   UNL     1      -2.168  -3.638  -2.113  0.00  0.00    -0.247 NA
ENDROOT
BRANCH   1  13
ATOM      8  C   UNL     1       0.586   1.069  -0.103  0.00  0.00    +0.008 A 
ATOM      9  C   UNL     1       1.885   1.543  -0.124  0.00  0.00    +0.033 A 
ATOM     10  C   UNL     1       2.945   0.655  -0.101  0.00  0.00    +0.126 A 
ATOM     11  C   UNL     1       2.705  -0.706  -0.057  0.00  0.00    +0.033 A 
ATOM     12  C   UNL     1       1.407  -1.179  -0.034  0.00  0.00    +0.008 A 
ATOM     13  C   UNL     1       0.347  -0.291  -0.058  0.00  0.00    -0.026 A 
BRANCH  10  14
ATOM     14  N   UNL     1       4.335   1.162  -0.126  0.00  0.00    +0.056 N 
ATOM     15  O   UNL     1       4.544   2.352  -0.165  0.00  0.00    -0.126 OA
ATOM     16  O   UNL     1       5.262   0.386  -0.106  0.00  0.00    -0.126 OA
ENDBRANCH  10  14
ENDBRANCH   1  13
BRANCH   6  17
ATOM     17  C   UNL     1      -0.890  -1.902   2.241  0.00  0.00    +0.037 A 
ATOM     18  C   UNL     1      -0.610  -0.685   2.849  0.00  0.00    +0.025 A 
ATOM     19  C   UNL     1      -0.334  -0.639   4.202  0.00  0.00    +0.030 A 
ATOM     20  C   UNL     1      -0.335  -1.802   4.950  0.00  0.00    +0.105 A 
ATOM     21  C   UNL     1      -0.614  -3.015   4.347  0.00  0.00    +0.030 A 
ATOM     22  C   UNL     1      -0.897  -3.067   2.996  0.00  0.00    +0.025 A 
BRANCH  20  23
ATOM     23  S   UNL     1       0.019  -1.738   6.675  0.00  0.00    +0.056 S 
ATOM     24  O   UNL     1       0.490  -3.028   7.040  0.00  0.00    -0.153 OA
ATOM     25  O   UNL     1       0.782  -0.559   6.889  0.00  0.00    -0.153 OA
BRANCH  23  26
ATOM     26  N   UNL     1      -1.421  -1.520   7.462  0.00  0.00    -0.204 NA
ATOM     27  H   UNL     1      -1.543  -1.875   8.357  0.00  0.00    +0.144 HD
ATOM     28  H   UNL     1      -2.143  -1.038   7.029  0.00  0.00    +0.144 HD
ENDBRANCH  23  26
ENDBRANCH  20  23
ENDBRANCH   6  17
BRANCH   7  29
ATOM     29  C   UNL     1      -2.416  -4.933  -1.764  0.00  0.00    +0.064 A 
ATOM     30  C   UNL     1      -1.527  -5.619  -0.929  0.00  0.00    +0.029 A 
ATOM     31  C   UNL     1      -1.785  -6.928  -0.581  0.00  0.00    +0.030 A 
ATOM     32  C   UNL     1      -2.919  -7.564  -1.055  0.00  0.00    +0.105 A 
ATOM     33  C   UNL     1      -3.803  -6.892  -1.882  0.00  0.00    +0.030 A 
ATOM     34  C   UNL     1      -3.563  -5.581  -2.234  0.00  0.00    +0.029 A 
BRANCH  32  35
ATOM     35  S   UNL     1      -3.239  -9.237  -0.605  0.00  0.00    +0.056 S 
ATOM     36  O   UNL     1      -4.078  -9.777  -1.617  0.00  0.00    -0.153 OA
ATOM     37  O   UNL     1      -1.984  -9.813  -0.268  0.00  0.00    -0.153 OA
BRANCH  35  38
ATOM     38  N   UNL     1      -4.135  -9.207   0.787  0.00  0.00    -0.204 NA
ATOM     39  H   UNL     1      -4.767  -9.919   0.973  0.00  0.00    +0.144 HD
ATOM     40  H   UNL     1      -4.028  -8.477   1.417  0.00  0.00    +0.144 HD
ENDBRANCH  35  38
ENDBRANCH  32  35
ENDBRANCH   7  29
TORSDOF 8
