REMARK  Name = ZINC46078158
REMARK  6 active torsions:
REMARK  status: ('A' for Active; 'I' for Inactive)
REMARK    1  A    between atoms: C_1  and  C_2
REMARK    2  A    between atoms: C_2  and  C_3
REMARK    3  A    between atoms: C_2  and  C_4
REMARK    4  A    between atoms: C_2  and  N_16
REMARK    5  A    between atoms: N_8  and  C_9
REMARK    6  A    between atoms: N_16  and  C_17
REMARK                            x       y       z     vdW  Elec       q    Type
REMARK                         _______ _______ _______ _____ _____    ______ ____
ROOT
ATOM      1  C   UNL     1       0.468   0.810   0.041  0.00  0.00    +0.039 C 
ATOM      2  C   UNL     1       0.073  -0.668  -0.000  0.00  0.00    +0.088 C 
ATOM      3  C   UNL     1       0.871  -1.438   1.054  0.00  0.00    +0.039 C 
ENDROOT
BRANCH   2   4
ATOM      4  C   UNL     1      -1.400  -0.803   0.286  0.00  0.00    +0.179 A 
ATOM      5  N   UNL     1      -1.961  -0.829   1.467  0.00  0.00    -0.111 NA
ATOM      6  N   UNL     1      -3.235  -0.953   1.360  0.00  0.00    -0.023 NA
ATOM      7  N   UNL     1      -3.574  -1.015   0.118  0.00  0.00    -0.039 NA
ATOM      8  N   UNL     1      -2.387  -0.914  -0.629  0.00  0.00    -0.195 N 
BRANCH   8   9
ATOM      9  C   UNL     1      -2.256  -0.927  -2.026  0.00  0.00    +0.069 A 
ATOM     10  C   UNL     1      -1.425  -0.010  -2.655  0.00  0.00    +0.029 A 
ATOM     11  C   UNL     1      -1.297  -0.025  -4.030  0.00  0.00    +0.022 A 
ATOM     12  C   UNL     1      -1.996  -0.954  -4.781  0.00  0.00    +0.041 A 
ATOM     13  C   UNL     1      -2.825  -1.870  -4.156  0.00  0.00    +0.022 A 
ATOM     14  C   UNL     1      -2.951  -1.862  -2.781  0.00  0.00    +0.029 A 
ATOM     15 CL   UNL     1      -1.834  -0.970  -6.509  0.00  0.00    -0.084 Cl
ENDBRANCH   8   9
ENDBRANCH   2   4
BRANCH   2  16
ATOM     16  N   UNL     1       0.365  -1.214  -1.328  0.00  0.00    -0.332 N 
ATOM     17  H   UNL     1       0.710  -0.636  -2.026  0.00  0.00    +0.147 HD
BRANCH  16  18
ATOM     18  C   UNL     1       0.145  -2.571  -1.590  0.00  0.00    +0.032 A 
ATOM     19  C   UNL     1      -0.523  -3.359  -0.661  0.00  0.00    +0.027 A 
ATOM     20  C   UNL     1      -0.739  -4.699  -0.919  0.00  0.00    +0.051 A 
ATOM     21  C   UNL     1      -0.291  -5.261  -2.105  0.00  0.00    +0.162 A 
ATOM     22  C   UNL     1       0.375  -4.475  -3.038  0.00  0.00    +0.164 A 
ATOM     23  C   UNL     1       0.589  -3.129  -2.780  0.00  0.00    +0.072 A 
ATOM     24  O   UNL     1       0.814  -5.008  -4.210  0.00  0.00    -0.485 OA
ATOM     25  C   UNL     1       0.908  -6.435  -4.274  0.00  0.00    +0.270 C 
ATOM     26  C   UNL     1      -0.383  -7.028  -3.695  0.00  0.00    +0.270 C 
ATOM     27  O   UNL     1      -0.511  -6.585  -2.340  0.00  0.00    -0.485 OA
ENDBRANCH  16  18
ENDBRANCH   2  16
TORSDOF 4
