REMARK  Name = ZINC00223097
REMARK  4 active torsions:
REMARK  status: ('A' for Active; 'I' for Inactive)
REMARK    1  A    between atoms: C_3  and  C_10
REMARK    2  A    between atoms: C_5  and  N_7
REMARK    3  A    between atoms: N_11  and  C_12
REMARK    4  A    between atoms: C_13  and  C_20
REMARK                            x       y       z     vdW  Elec       q    Type
REMARK                         _______ _______ _______ _____ _____    ______ ____
ROOT
ATOM      1  C   UNL     1       3.652   2.155  -0.022  0.00  0.00    +0.120 C 
ATOM      2  N   UNL     1       3.639   3.462  -0.015  0.00  0.00    -0.247 NA
ENDROOT
BRANCH   2   3
ATOM      3  C   UNL     1       4.801   4.149  -0.023  0.00  0.00    +0.119 A 
ATOM      4  C   UNL     1       5.008   5.529  -0.012  0.00  0.00    +0.088 A 
ATOM      5  C   UNL     1       6.337   6.016  -0.023  0.00  0.00    -0.018 A 
ATOM      6  C   UNL     1       7.323   5.093  -0.047  0.00  0.00    -0.004 A 
ATOM      7  S   UNL     1       6.474   3.530  -0.042  0.00  0.00    -0.073 S 
ATOM      8  C   UNL     1       8.688   5.723  -0.065  0.00  0.00    +0.043 C 
ATOM      9  C   UNL     1       8.435   7.188  -0.483  0.00  0.00    +0.010 C 
ATOM     10  C   UNL     1       6.984   7.404  -0.011  0.00  0.00    +0.037 C 
BRANCH   4  11
ATOM     11  C   UNL     1       3.898   6.435   0.009  0.00  0.00    +0.102 C 
ATOM     12  N   UNL     1       3.018   7.153   0.026  0.00  0.00    -0.191 NA
ENDBRANCH   4  11
ENDBRANCH   2   3
BRANCH   1  15
ATOM     13  C   UNL     1      -0.017   1.380   0.010  0.00  0.00    +0.003 A 
ATOM     14  C   UNL     1       1.166   2.089   0.002  0.00  0.00    +0.009 A 
ATOM     15  C   UNL     1       2.386   1.406  -0.013  0.00  0.00    -0.005 A 
ATOM     16  C   UNL     1       2.397   0.007  -0.021  0.00  0.00    +0.042 A 
ATOM     17  C   UNL     1       1.206  -0.687  -0.013  0.00  0.00    +0.127 A 
ATOM     18  C   UNL     1       0.002  -0.004   0.002  0.00  0.00    +0.033 A 
BRANCH  17  19
ATOM     19  N   UNL     1       1.214  -2.167  -0.021  0.00  0.00    +0.056 N 
ATOM     20  O   UNL     1       2.265  -2.766  -0.035  0.00  0.00    -0.126 OA
ATOM     21  O   UNL     1       0.171  -2.778  -0.015  0.00  0.00    -0.126 OA
ENDBRANCH  17  19
ENDBRANCH   1  15
TORSDOF 4
