REMARK  Name = ZINC39533997
REMARK  8 active torsions:
REMARK  status: ('A' for Active; 'I' for Inactive)
REMARK    1  A    between atoms: C_1  and  O_2
REMARK    2  A    between atoms: O_2  and  C_3
REMARK    3  A    between atoms: N_6  and  C_10
REMARK    4  A    between atoms: C_10  and  C_12
REMARK    5  A    between atoms: C_10  and  C_15
REMARK    6  A    between atoms: C_12  and  N_13
REMARK    7  A    between atoms: C_18  and  C_21
REMARK    8  A    between atoms: C_26  and  O_27
REMARK                            x       y       z     vdW  Elec       q    Type
REMARK                         _______ _______ _______ _____ _____    ______ ____
ROOT
ATOM      1  C   UNL     1      -2.442  -4.114   0.766  0.00  0.00    +0.101 C 
ENDROOT
BRANCH   1   4
ATOM      2  C   UNL     1      -1.680  -0.475   0.163  0.00  0.00    +0.200 C 
ATOM      3  C   UNL     1      -1.399  -1.952   0.447  0.00  0.00    +0.132 C 
ATOM      4  N   UNL     1      -2.662  -2.703   0.422  0.00  0.00    -0.289 NA
ATOM      5  C   UNL     1      -3.320  -2.576  -0.886  0.00  0.00    +0.100 C 
ATOM      6  C   UNL     1      -3.602  -1.099  -1.171  0.00  0.00    +0.098 C 
ATOM      7  N   UNL     1      -2.339  -0.347  -1.145  0.00  0.00    -0.289 NA
ATOM      8  H   UNL     1      -2.490   0.622  -1.381  0.00  0.00    +0.124 HD
BRANCH   2  10
ATOM      9  C   UNL     1      -0.610   1.669   0.229  0.00  0.00    +0.196 C 
ATOM     10  O   UNL     1      -0.450   0.251   0.149  0.00  0.00    -0.364 OA
ENDBRANCH   2  10
ENDBRANCH   1   4
BRANCH   1  11
ATOM     11  C   UNL     1      -3.766  -4.833   0.805  0.00  0.00    -0.029 A 
ATOM     12  C   UNL     1      -4.875  -4.207   1.346  0.00  0.00    +0.006 A 
ATOM     13  C   UNL     1      -6.089  -4.861   1.385  0.00  0.00    +0.009 A 
ATOM     14  C   UNL     1      -6.198  -6.155   0.877  0.00  0.00    -0.014 A 
ATOM     15  C   UNL     1      -5.078  -6.780   0.332  0.00  0.00    +0.009 A 
ATOM     16  C   UNL     1      -3.870  -6.115   0.294  0.00  0.00    +0.006 A 
BRANCH  14  17
ATOM     17  C   UNL     1      -7.501  -6.863   0.916  0.00  0.00    +0.024 A 
ATOM     18  C   UNL     1      -8.231  -6.920   2.101  0.00  0.00    +0.012 A 
ATOM     19  C   UNL     1      -9.442  -7.580   2.132  0.00  0.00    +0.001 A 
ATOM     20  C   UNL     1      -9.935  -8.186   0.990  0.00  0.00    +0.004 A 
ATOM     21  C   UNL     1      -9.219  -8.136  -0.190  0.00  0.00    +0.046 A 
ATOM     22  C   UNL     1      -8.004  -7.471  -0.238  0.00  0.00    +0.125 A 
BRANCH  22  23
ATOM     23  O   UNL     1      -7.302  -7.417  -1.399  0.00  0.00    -0.506 OA
ATOM     24  H   UNL     1      -6.684  -8.151  -1.520  0.00  0.00    +0.292 HD
ENDBRANCH  22  23
ENDBRANCH  14  17
ENDBRANCH   1  11
BRANCH   1  25
ATOM     25  C   UNL     1      -1.771  -4.207   2.137  0.00  0.00    +0.115 C 
BRANCH  25  26
ATOM     26  N   UNL     1      -1.487  -5.614   2.450  0.00  0.00    -0.259 NA
ATOM     27  I   UNL     1      -0.748  -5.809   4.352  0.00  0.00    +0.018 I 
ATOM     28  H   UNL     1      -0.854  -6.013   1.773  0.00  0.00    +0.134 HD
ENDBRANCH  25  26
ENDBRANCH   1  25
TORSDOF 7
