REMARK  Name = ZINC39600577
REMARK  5 active torsions:
REMARK  status: ('A' for Active; 'I' for Inactive)
REMARK    1  A    between atoms: C_2  and  C_12
REMARK    2  A    between atoms: C_6  and  C_7
REMARK    3  A    between atoms: C_12  and  N_13
REMARK    4  A    between atoms: C_14  and  C_16
REMARK    5  A    between atoms: C_27  and  C_29
REMARK                            x       y       z     vdW  Elec       q    Type
REMARK                         _______ _______ _______ _____ _____    ______ ____
ROOT
ATOM      1  C   UNL     1       1.143   5.894   3.070  0.00  0.00    +0.100 C 
ATOM      2  C   UNL     1      -0.188   5.537   3.769  0.00  0.00    +0.121 C 
ATOM      3  N   UNL     1      -0.482   6.705   4.633  0.00  0.00    -0.300 N 
ATOM      4  C   UNL     1      -0.084   7.877   3.816  0.00  0.00    +0.115 C 
ATOM      5  C   UNL     1       1.207   7.430   3.102  0.00  0.00    -0.004 C 
ATOM      6  C   UNL     1       2.431   7.891   3.888  0.00  0.00    -0.010 C 
ATOM      7  C   UNL     1       2.504   9.420   3.858  0.00  0.00    -0.082 C 
ATOM      8  N   UNL     1       2.589   9.881   2.467  0.00  0.00    +0.379 N 
ATOM      9  C   UNL     1       1.366   9.513   1.742  0.00  0.00    -0.082 C 
ATOM     10  C   UNL     1       1.245   7.987   1.683  0.00  0.00    -0.010 C 
ATOM     11  C   UNL     1      -0.995   6.703   5.879  0.00  0.00    +0.219 C 
ATOM     12  O   UNL     1      -1.179   7.751   6.461  0.00  0.00    -0.275 OA
ATOM     13  H   UNL     1       2.698  10.883   2.452  0.00  0.00    -0.086 HD
ATOM     14  H   UNL     1       3.385   9.451   2.019  0.00  0.00    -0.086 HD
ENDROOT
BRANCH  11  15
ATOM     15  C   UNL     1      -1.339   5.398   6.550  0.00  0.00    +0.079 C 
ATOM     16  C   UNL     1      -1.911   5.671   7.947  0.00  0.00    +0.017 C 
ATOM     17  C   UNL     1      -2.083   4.333   8.669  0.00  0.00    +0.027 C 
ATOM     18  C   UNL     1      -2.808   3.359   7.788  0.00  0.00    -0.031 C 
ATOM     19  C   UNL     1      -2.942   3.499   6.508  0.00  0.00    -0.030 C 
ATOM     20  C   UNL     1      -2.395   4.659   5.726  0.00  0.00    +0.039 C 
ENDBRANCH  11  15
BRANCH   1  22
ATOM     21  N   UNL     1       2.296   5.070   1.043  0.00  0.00    -0.311 N 
ATOM     22  C   UNL     1       1.137   5.398   1.647  0.00  0.00    +0.218 C 
ATOM     23  O   UNL     1       0.089   5.296   1.045  0.00  0.00    -0.275 OA
ATOM     24  H   UNL     1       3.134   5.152   1.524  0.00  0.00    +0.149 HD
BRANCH  21  25
ATOM     25  C   UNL     1       2.291   4.589  -0.341  0.00  0.00    +0.139 C 
BRANCH  25  27
ATOM     26  C   UNL     1       4.236   3.032  -0.583  0.00  0.00    +0.017 A 
ATOM     27  C   UNL     1       3.703   4.293  -0.776  0.00  0.00    -0.027 A 
ATOM     28  C   UNL     1       4.465   5.283  -1.367  0.00  0.00    +0.043 A 
ATOM     29  C   UNL     1       5.762   5.011  -1.768  0.00  0.00    +0.124 A 
ATOM     30  C   UNL     1       6.295   3.748  -1.574  0.00  0.00    +0.050 A 
ATOM     31  C   UNL     1       5.531   2.759  -0.982  0.00  0.00    +0.058 A 
ATOM     32  F   UNL     1       6.508   5.977  -2.346  0.00  0.00    -0.205 F 
BRANCH  31  33
ATOM     33  C   UNL     1       6.110   1.384  -0.771  0.00  0.00    +0.418 C 
ATOM     34  F   UNL     1       5.847   0.590  -1.892  0.00  0.00    -0.166 F 
ATOM     35  F   UNL     1       7.493   1.485  -0.586  0.00  0.00    -0.166 F 
ATOM     36  F   UNL     1       5.529   0.802   0.360  0.00  0.00    -0.166 F 
ENDBRANCH  31  33
ENDBRANCH  25  27
ENDBRANCH  21  25
ENDBRANCH   1  22
TORSDOF 5
