REMARK  Name = ZINC39210458
REMARK  8 active torsions:
REMARK  status: ('A' for Active; 'I' for Inactive)
REMARK    1  A    between atoms: C_1  and  C_2
REMARK    2  A    between atoms: C_2  and  O_3
REMARK    3  A    between atoms: O_3  and  C_4
REMARK    4  A    between atoms: C_7  and  C_10
REMARK    5  A    between atoms: C_17  and  C_25
REMARK    6  A    between atoms: C_19  and  C_23
REMARK    7  A    between atoms: C_20  and  N_22
REMARK    8  A    between atoms: C_30  and  C_31
REMARK                            x       y       z     vdW  Elec       q    Type
REMARK                         _______ _______ _______ _____ _____    ______ ____
ROOT
ATOM      1  C   UNL     1       0.731  -6.623   2.334  0.00  0.00    +0.075 C 
ATOM      2  N   UNL     1       0.156  -7.645   1.747  0.00  0.00    -0.188 NA
ATOM      3  N   UNL     1       0.690  -8.883   2.187  0.00  0.00    -0.230 N 
ATOM      4  C   UNL     1       1.173  -8.593   3.538  0.00  0.00    +0.286 C 
ATOM      5  C   UNL     1       1.780  -7.176   3.253  0.00  0.00    +0.110 C 
ATOM      6  C   UNL     1       1.925  -6.520   4.615  0.00  0.00    +0.063 C 
ATOM      7  C   UNL     1       2.702  -7.498   5.476  0.00  0.00    +0.091 C 
ATOM      8  C   UNL     1       2.836  -8.806   5.146  0.00  0.00    +0.194 C 
ATOM      9  O   UNL     1       2.231  -9.373   4.060  0.00  0.00    -0.455 OA
ATOM     10  H   UNL     1       0.727  -9.725   1.706  0.00  0.00    +0.172 HD
ENDROOT
BRANCH   1  14
ATOM     11  C   UNL     1      -0.190  -2.521   1.734  0.00  0.00    +0.121 A 
ATOM     12  C   UNL     1      -1.206  -3.425   2.014  0.00  0.00    +0.046 A 
ATOM     13  C   UNL     1      -0.912  -4.758   2.209  0.00  0.00    +0.013 A 
ATOM     14  C   UNL     1       0.411  -5.198   2.125  0.00  0.00    -0.002 A 
ATOM     15  C   UNL     1       1.430  -4.285   1.843  0.00  0.00    +0.013 A 
ATOM     16  C   UNL     1       1.126  -2.956   1.644  0.00  0.00    +0.046 A 
BRANCH  11  17
ATOM     17  O   UNL     1      -0.484  -1.209   1.542  0.00  0.00    -0.492 OA
BRANCH  17  19
ATOM     18  C   UNL     1      -1.992   0.674   1.404  0.00  0.00    +0.048 C 
ATOM     19  C   UNL     1      -1.858  -0.830   1.649  0.00  0.00    +0.225 C 
ENDBRANCH  17  19
ENDBRANCH  11  17
ENDBRANCH   1  14
BRANCH   6  20
ATOM     20  C   UNL     1       2.695  -5.204   4.485  0.00  0.00    +0.092 C 
ATOM     21  C   UNL     1       4.154  -5.467   4.172  0.00  0.00    +0.118 C 
ATOM     22  N   UNL     1       4.828  -4.972   5.159  0.00  0.00    -0.161 NA
ATOM     23  N   UNL     1       4.011  -4.394   6.125  0.00  0.00    -0.153 NA
ATOM     24  C   UNL     1       2.742  -4.479   5.816  0.00  0.00    +0.080 C 
BRANCH  24  25
ATOM     25  C   UNL     1       1.599  -3.978   6.595  0.00  0.00    -0.001 A 
ATOM     26  C   UNL     1       0.309  -4.025   6.057  0.00  0.00    +0.012 A 
ATOM     27  C   UNL     1      -0.758  -3.554   6.793  0.00  0.00    +0.039 A 
ATOM     28  C   UNL     1      -0.553  -3.035   8.062  0.00  0.00    +0.123 A 
ATOM     29  C   UNL     1       0.724  -2.986   8.601  0.00  0.00    +0.039 A 
ATOM     30  C   UNL     1       1.798  -3.458   7.878  0.00  0.00    +0.012 A 
ATOM     31  F   UNL     1      -1.603  -2.575   8.778  0.00  0.00    -0.205 F 
ENDBRANCH  24  25
ENDBRANCH   6  20
BRANCH   8  32
ATOM     32  N   UNL     1       3.600  -9.609   5.954  0.00  0.00    -0.329 N 
ATOM     33  H   UNL     1       4.029  -9.237   6.741  0.00  0.00    +0.145 HD
ATOM     34  H   UNL     1       3.711 -10.548   5.740  0.00  0.00    +0.145 HD
ENDBRANCH   8  32
BRANCH   7  35
ATOM     35  C   UNL     1       3.316  -7.024   6.679  0.00  0.00    +0.100 C 
ATOM     36  N   UNL     1       3.803  -6.647   7.634  0.00  0.00    -0.191 NA
ENDBRANCH   7  35
TORSDOF 7
