REMARK  Name = ZINC27679203
REMARK  13 active torsions:
REMARK  status: ('A' for Active; 'I' for Inactive)
REMARK    1  A    between atoms: C_1  and  C_2
REMARK    2  A    between atoms: C_5  and  C_35
REMARK    3  A    between atoms: N_8  and  S_10
REMARK    4  A    between atoms: S_10  and  C_13
REMARK    5  A    between atoms: C_15  and  C_21
REMARK    6  A    between atoms: C_18  and  O_19
REMARK    7  A    between atoms: O_19  and  C_20
REMARK    8  A    between atoms: N_23  and  C_24
REMARK    9  A    between atoms: C_24  and  C_25
REMARK   10  A    between atoms: C_25  and  C_27
REMARK   11  A    between atoms: C_25  and  N_32
REMARK   12  A    between atoms: N_32  and  C_33
REMARK   13  A    between atoms: N_32  and  C_34
REMARK                            x       y       z     vdW  Elec       q    Type
REMARK                         _______ _______ _______ _____ _____    ______ ____
ROOT
ATOM      1  C   UNL     1       2.325  -3.384  -0.471  0.00  0.00    +0.148 A 
ATOM      2  C   UNL     1       3.590  -2.968  -0.821  0.00  0.00    +0.045 A 
ATOM      3  C   UNL     1       4.052  -3.166  -2.125  0.00  0.00    +0.039 A 
ATOM      4  C   UNL     1       3.228  -3.786  -3.068  0.00  0.00    +0.017 A 
ATOM      5  C   UNL     1       1.964  -4.199  -2.710  0.00  0.00    +0.048 A 
ATOM      6  C   UNL     1       1.510  -4.005  -1.410  0.00  0.00    +0.146 A 
ENDROOT
BRANCH   3   7
ATOM      7  C   UNL     1       5.407  -2.721  -2.505  0.00  0.00    +0.244 C 
ATOM      8  O   UNL     1       6.122  -2.182  -1.683  0.00  0.00    -0.270 OA
ATOM      9  N   UNL     1       5.851  -2.913  -3.763  0.00  0.00    -0.313 N 
ATOM     10  H   UNL     1       5.280  -3.343  -4.419  0.00  0.00    +0.149 HD
BRANCH   9  11
ATOM     11  C   UNL     1       7.196  -2.471  -4.140  0.00  0.00    +0.094 C 
BRANCH  11  12
ATOM     12  C   UNL     1       7.491  -2.906  -5.577  0.00  0.00    -0.014 C 
BRANCH  12  13
ATOM     13  C   UNL     1       6.548  -2.201  -6.519  0.00  0.00    -0.022 A 
ATOM     14  C   UNL     1       5.411  -2.664  -7.093  0.00  0.00    +0.009 A 
ATOM     15  C   UNL     1       4.697  -1.831  -7.934  0.00  0.00    +0.008 A 
ATOM     16  C   UNL     1       5.155  -0.575  -8.159  0.00  0.00    +0.045 A 
ATOM     17  S   UNL     1       6.635  -0.538  -7.161  0.00  0.00    -0.103 S 
ENDBRANCH  12  13
BRANCH  12  18
ATOM     18  N   UNL     1       8.876  -2.557  -5.920  0.00  0.00    +0.382 N 
ATOM     19  C   UNL     1       9.796  -3.270  -5.024  0.00  0.00    -0.096 C 
ATOM     20  C   UNL     1       9.149  -2.944  -7.310  0.00  0.00    -0.096 C 
ATOM     21  H   UNL     1       9.008  -1.562  -5.815  0.00  0.00    -0.082 HD
ENDBRANCH  12  18
ENDBRANCH  11  12
ENDBRANCH   9  11
ENDBRANCH   3   7
BRANCH   1  22
ATOM     22  S   UNL     1       1.740  -3.136   1.173  0.00  0.00    +0.064 S 
ATOM     23  O   UNL     1       2.777  -2.463   1.875  0.00  0.00    -0.153 OA
ATOM     24  O   UNL     1       1.209  -4.380   1.608  0.00  0.00    -0.153 OA
BRANCH  22  30
ATOM     25  C   UNL     1       0.142   1.565   0.120  0.00  0.00    +0.009 C 
ATOM     26  C   UNL     1       0.041   0.046  -0.031  0.00  0.00    +0.002 C 
ATOM     27  C   UNL     1      -1.431  -0.362  -0.115  0.00  0.00    +0.009 C 
ATOM     28  C   UNL     1      -1.532  -1.878  -0.299  0.00  0.00    +0.002 C 
ATOM     29  C   UNL     1      -0.905  -2.578   0.911  0.00  0.00    +0.112 C 
ATOM     30  N   UNL     1       0.466  -2.082   1.086  0.00  0.00    -0.176 NA
ATOM     31  C   UNL     1       0.687  -0.632   1.182  0.00  0.00    +0.112 C 
ATOM     32  C   UNL     1      -3.004  -2.281  -0.417  0.00  0.00    +0.009 C 
ENDBRANCH  22  30
ENDBRANCH   1  22
BRANCH   6  33
ATOM     33  O   UNL     1       0.266  -4.419  -1.059  0.00  0.00    -0.493 OA
ATOM     34  C   UNL     1      -0.518  -5.050  -2.074  0.00  0.00    +0.277 C 
ENDBRANCH   6  33
TORSDOF 8
