REMARK  Name = ZINC04486464
REMARK  4 active torsions:
REMARK  status: ('A' for Active; 'I' for Inactive)
REMARK    1  A    between atoms: N_7  and  S_8
REMARK    2  A    between atoms: S_8  and  C_11
REMARK    3  A    between atoms: C_23  and  S_25
REMARK    4  A    between atoms: S_25  and  N_28
REMARK                            x       y       z     vdW  Elec       q    Type
REMARK                         _______ _______ _______ _____ _____    ______ ____
ROOT
ATOM      1  C   UNL     1       2.403  -4.510  -0.049  0.00  0.00    +0.113 A 
ATOM      2  C   UNL     1       2.277  -5.191   1.146  0.00  0.00    +0.030 A 
ATOM      3  C   UNL     1       2.010  -6.551   1.154  0.00  0.00    +0.011 A 
ATOM      4  C   UNL     1       1.868  -7.238  -0.043  0.00  0.00    -0.006 A 
ATOM      5  C   UNL     1       1.996  -6.544  -1.258  0.00  0.00    +0.032 A 
ATOM      6  C   UNL     1       2.258  -5.179  -1.252  0.00  0.00    +0.041 A 
ATOM      7  C   UNL     1       1.798  -7.517  -2.359  0.00  0.00    +0.194 C 
ATOM      8  O   UNL     1       1.837  -7.278  -3.549  0.00  0.00    -0.287 OA
ATOM      9  C   UNL     1       1.543  -8.836  -1.734  0.00  0.00    +0.032 A 
ATOM     10  C   UNL     1       1.585  -8.667  -0.340  0.00  0.00    -0.006 A 
ATOM     11  C   UNL     1       1.377  -9.760   0.489  0.00  0.00    +0.011 A 
ATOM     12  C   UNL     1       1.129 -11.009  -0.060  0.00  0.00    +0.029 A 
ATOM     13  C   UNL     1       1.087 -11.175  -1.431  0.00  0.00    +0.109 A 
ATOM     14  C   UNL     1       1.293 -10.093  -2.271  0.00  0.00    +0.041 A 
ENDROOT
BRANCH   1  15
ATOM     15  S   UNL     1       2.743  -2.780  -0.042  0.00  0.00    +0.101 S 
ATOM     16  O   UNL     1       3.348  -2.481  -1.292  0.00  0.00    -0.146 OA
ATOM     17  O   UNL     1       3.374  -2.495   1.199  0.00  0.00    -0.146 OA
BRANCH  15  24
ATOM     18  C   UNL     1      -0.016   1.354   0.009  0.00  0.00    +0.005 A 
ATOM     19  C   UNL     1       1.195   2.067   0.002  0.00  0.00    +0.018 A 
ATOM     20  C   UNL     1       2.374   1.409  -0.013  0.00  0.00    +0.084 A 
ATOM     21  N   UNL     1       2.412   0.047  -0.022  0.00  0.00    -0.345 N 
ATOM     22  C   UNL     1       1.246  -0.679  -0.014  0.00  0.00    +0.153 A 
ATOM     23  C   UNL     1       0.002  -0.004   0.002  0.00  0.00    +0.048 A 
ATOM     24  N   UNL     1       1.285  -1.996  -0.022  0.00  0.00    -0.111 NA
ATOM     25  H   UNL     1       3.266  -0.412  -0.033  0.00  0.00    +0.167 HD
ENDBRANCH  15  24
ENDBRANCH   1  15
BRANCH  13  26
ATOM     26  S   UNL     1       0.772 -12.769  -2.113  0.00  0.00    +0.073 S 
ATOM     27  O   UNL     1       1.325 -12.767  -3.422  0.00  0.00    -0.150 OA
ATOM     28  O   UNL     1       1.155 -13.716  -1.125  0.00  0.00    -0.150 OA
BRANCH  26  29
ATOM     29  N   UNL     1      -0.868 -12.909  -2.292  0.00  0.00    -0.199 N 
ATOM     30  C   UNL     1      -1.543 -12.083  -3.184  0.00  0.00    +0.138 A 
ATOM     31  C   UNL     1      -2.922 -12.202  -3.325  0.00  0.00    +0.045 A 
ATOM     32  C   UNL     1      -3.581 -11.375  -4.216  0.00  0.00    +0.005 A 
ATOM     33  C   UNL     1      -2.835 -10.452  -4.939  0.00  0.00    +0.020 A 
ATOM     34  C   UNL     1      -1.470 -10.388  -4.749  0.00  0.00    +0.113 A 
ATOM     35  N   UNL     1      -0.869 -11.187  -3.887  0.00  0.00    -0.239 NA
ATOM     36  H   UNL     1      -1.358 -13.567  -1.774  0.00  0.00    +0.175 HD
ENDBRANCH  26  29
ENDBRANCH  13  26
TORSDOF 4
