REMARK  Name = ZINC63044477
REMARK  6 active torsions:
REMARK  status: ('A' for Active; 'I' for Inactive)
REMARK    1  A    between atoms: C_1  and  C_2
REMARK    2  A    between atoms: C_2  and  C_3
REMARK    3  A    between atoms: C_3  and  C_5
REMARK    4  A    between atoms: C_3  and  C_16
REMARK    5  A    between atoms: C_6  and  N_13
REMARK    6  A    between atoms: C_16  and  C_18
REMARK                            x       y       z     vdW  Elec       q    Type
REMARK                         _______ _______ _______ _____ _____    ______ ____
ROOT
ATOM      1  C   UNL     1       0.632  -2.000  -1.327  0.00  0.00    +0.096 A 
ATOM      2  C   UNL     1       0.067  -2.709  -2.319  0.00  0.00    +0.224 A 
ATOM      3  N   UNL     1       0.197  -4.059  -2.002  0.00  0.00    -0.274 N 
ATOM      4  C   UNL     1      -0.139  -5.279  -2.546  0.00  0.00    +0.102 A 
ATOM      5  C   UNL     1       0.168  -6.413  -1.918  0.00  0.00    +0.067 A 
ATOM      6  S   UNL     1       0.990  -5.812  -0.451  0.00  0.00    -0.058 S 
ATOM      7  C   UNL     1       0.854  -4.074  -0.800  0.00  0.00    +0.179 A 
ATOM      8  N   UNL     1       1.111  -2.858  -0.413  0.00  0.00    -0.224 NA
ENDROOT
BRANCH   2   9
ATOM      9  N   UNL     1      -0.579  -2.154  -3.531  0.00  0.00    +0.076 N 
ATOM     10  O   UNL     1      -1.761  -1.899  -3.523  0.00  0.00    -0.125 OA
ATOM     11  O   UNL     1       0.075  -1.957  -4.528  0.00  0.00    -0.125 OA
ENDBRANCH   2   9
BRANCH   1  12
ATOM     12  C   UNL     1       0.718  -0.497  -1.257  0.00  0.00    +0.055 C 
BRANCH  12  13
ATOM     13  C   UNL     1       2.187  -0.073  -1.207  0.00  0.00    +0.063 C 
ATOM     14  C   UNL     1       2.874  -0.457  -2.520  0.00  0.00    +0.020 C 
ATOM     15 BR   UNL     1       3.082  -0.981   0.290  0.00  0.00    -0.088 Br
ENDBRANCH  12  13
BRANCH  12  17
ATOM     16  C   UNL     1      -0.019   1.526   0.010  0.00  0.00    +0.004 C 
ATOM     17  C   UNL     1       0.002  -0.004   0.002  0.00  0.00    +0.007 C 
ENDBRANCH  12  17
ENDBRANCH   1  12
TORSDOF 4
