REMARK  Name = ZINC13251966
REMARK  4 active torsions:
REMARK  status: ('A' for Active; 'I' for Inactive)
REMARK    1  A    between atoms: C_9  and  C_11
REMARK    2  A    between atoms: N_14  and  S_17
REMARK    3  A    between atoms: S_17  and  C_20
REMARK    4  A    between atoms: C_22  and  C_27
REMARK                            x       y       z     vdW  Elec       q    Type
REMARK                         _______ _______ _______ _____ _____    ______ ____
ROOT
ATOM      1  C   UNL     1      -0.074  -0.003  -0.142  0.00  0.00    +0.057 C 
ATOM      2  C   UNL     1      -1.216  -0.605  -0.964  0.00  0.00    +0.028 C 
ATOM      3  C   UNL     1      -1.127  -2.134  -0.912  0.00  0.00    +0.110 C 
ATOM      4  N   UNL     1      -1.108  -2.558   0.495  0.00  0.00    -0.177 NA
ATOM      5  C   UNL     1      -0.107  -1.971   1.396  0.00  0.00    +0.110 C 
ATOM      6  C   UNL     1      -0.207  -0.445   1.317  0.00  0.00    +0.028 C 
ENDROOT
BRANCH   1  15
ATOM      7  C   UNL     1      -0.949   5.949  -0.464  0.00  0.00    +0.002 A 
ATOM      8  C   UNL     1       0.438   5.970  -0.437  0.00  0.00    +0.002 A 
ATOM      9  C   UNL     1       1.151   4.807  -0.363  0.00  0.00    +0.030 A 
ATOM     10  C   UNL     1       0.481   3.582  -0.314  0.00  0.00    +0.089 A 
ATOM     11  C   UNL     1      -0.923   3.560  -0.341  0.00  0.00    +0.066 A 
ATOM     12  C   UNL     1      -1.631   4.752  -0.417  0.00  0.00    +0.028 A 
ATOM     13  N   UNL     1      -1.285   2.229  -0.286  0.00  0.00    -0.342 N 
ATOM     14  H   UNL     1      -2.218   1.868  -0.292  0.00  0.00    +0.167 HD
ATOM     15  C   UNL     1      -0.139   1.500  -0.220  0.00  0.00    +0.111 A 
ATOM     16  N   UNL     1       0.895   2.291  -0.239  0.00  0.00    -0.232 NA
ENDBRANCH   1  15
BRANCH   4  17
ATOM     17  S   UNL     1      -2.194  -3.677   1.054  0.00  0.00    +0.062 S 
ATOM     18  O   UNL     1      -2.758  -4.301  -0.091  0.00  0.00    -0.153 OA
ATOM     19  O   UNL     1      -1.531  -4.411   2.074  0.00  0.00    -0.153 OA
BRANCH  17  20
ATOM     20  C   UNL     1      -3.498  -2.790   1.838  0.00  0.00    +0.120 A 
ATOM     21  C   UNL     1      -3.658  -2.867   3.206  0.00  0.00    +0.044 A 
ATOM     22  C   UNL     1      -4.689  -2.159   3.827  0.00  0.00    +0.065 A 
ATOM     23  C   UNL     1      -5.560  -1.386   3.056  0.00  0.00    +0.016 A 
ATOM     24  C   UNL     1      -5.393  -1.321   1.689  0.00  0.00    +0.018 A 
ATOM     25  C   UNL     1      -4.365  -2.021   1.080  0.00  0.00    +0.044 A 
ATOM     26 BR   UNL     1      -4.143  -1.926  -0.796  0.00  0.00    -0.048 Br
BRANCH  22  27
ATOM     27  C   UNL     1      -4.862  -2.233   5.292  0.00  0.00    +0.387 C 
ATOM     28  O   UNL     1      -4.103  -2.907   5.960  0.00  0.00    -0.241 OA
ATOM     29  O   UNL     1      -5.861  -1.553   5.887  0.00  0.00    -0.241 OA
ENDBRANCH  22  27
ENDBRANCH  17  20
ENDBRANCH   4  17
TORSDOF 4
