REMARK  Name = ZINC60336065
REMARK  7 active torsions:
REMARK  status: ('A' for Active; 'I' for Inactive)
REMARK    1  A    between atoms: C_1  and  C_2
REMARK    2  A    between atoms: C_5  and  C_28
REMARK    3  A    between atoms: C_8  and  C_27
REMARK    4  A    between atoms: C_9  and  C_11
REMARK    5  A    between atoms: C_20  and  S_22
REMARK    6  A    between atoms: S_22  and  N_25
REMARK    7  A    between atoms: N_25  and  C_26
REMARK                            x       y       z     vdW  Elec       q    Type
REMARK                         _______ _______ _______ _____ _____    ______ ____
ROOT
ATOM      1  C   UNL     1       0.068  -1.578   4.791  0.00  0.00    +0.286 C 
ATOM      2  O   UNL     1       0.060  -0.566   5.466  0.00  0.00    -0.266 OA
ATOM      3  N   UNL     1       0.090  -2.786   5.388  0.00  0.00    -0.264 N 
ATOM      4  C   UNL     1       0.107  -4.071   4.683  0.00  0.00    +0.119 C 
ATOM      5  C   UNL     1       0.130  -5.138   5.790  0.00  0.00    +0.056 C 
ATOM      6  C   UNL     1       0.123  -4.348   7.080  0.00  0.00    -0.023 A 
ATOM      7  C   UNL     1       0.105  -2.997   6.769  0.00  0.00    +0.040 A 
ATOM      8  C   UNL     1       0.102  -2.063   7.807  0.00  0.00    +0.026 A 
ATOM      9  C   UNL     1       0.119  -2.482   9.120  0.00  0.00    +0.030 A 
ATOM     10  C   UNL     1       0.141  -3.832   9.419  0.00  0.00    +0.106 A 
ATOM     11  C   UNL     1       0.135  -4.763   8.397  0.00  0.00    +0.034 A 
ENDROOT
BRANCH   1  20
ATOM     12  C   UNL     1      -0.018   1.503   0.010  0.00  0.00    +0.044 C 
ATOM     13  C   UNL     1       0.002  -0.004   0.002  0.00  0.00    -0.039 A 
ATOM     14  C   UNL     1       0.006  -0.684  -1.183  0.00  0.00    +0.004 A 
ATOM     15  C   UNL     1       0.025  -2.072  -1.198  0.00  0.00    +0.007 A 
ATOM     16  C   UNL     1       0.040  -2.789  -0.021  0.00  0.00    -0.008 A 
ATOM     17  C   UNL     1       0.037  -2.119   1.197  0.00  0.00    +0.139 A 
ATOM     18  C   UNL     1       0.023  -0.712   1.206  0.00  0.00    +0.027 A 
ATOM     19  C   UNL     1       0.030  -0.325   2.616  0.00  0.00    +0.008 A 
ATOM     20  C   UNL     1       0.053  -1.484   3.324  0.00  0.00    +0.194 A 
ATOM     21  O   UNL     1       0.049  -2.535   2.478  0.00  0.00    -0.450 OA
ATOM     22  C   UNL     1       0.016   1.076   3.171  0.00  0.00    +0.048 C 
ATOM     23  C   UNL     1       0.059  -4.295  -0.055  0.00  0.00    +0.047 C 
ENDBRANCH   1  20
BRANCH  10  24
ATOM     24  S   UNL     1       0.164  -4.364  11.098  0.00  0.00    +0.058 S 
ATOM     25  O   UNL     1       0.733  -5.666  11.104  0.00  0.00    -0.153 OA
ATOM     26  O   UNL     1       0.707  -3.292  11.857  0.00  0.00    -0.153 OA
BRANCH  24  27
ATOM     27  N   UNL     1      -1.412  -4.534  11.580  0.00  0.00    -0.193 NA
ATOM     28  C   UNL     1      -2.262  -5.552  10.959  0.00  0.00    +0.127 C 
ATOM     29  H   UNL     1      -1.772  -3.959  12.273  0.00  0.00    +0.148 HD
ENDBRANCH  24  27
ENDBRANCH  10  24
TORSDOF 3
