REMARK  Name = ZINC40148096
REMARK  6 active torsions:
REMARK  status: ('A' for Active; 'I' for Inactive)
REMARK    1  A    between atoms: C_1  and  N_2
REMARK    2  A    between atoms: N_2  and  C_3
REMARK    3  A    between atoms: C_3  and  N_5
REMARK    4  A    between atoms: C_6  and  C_30
REMARK    5  A    between atoms: C_9  and  C_11
REMARK    6  A    between atoms: C_13  and  C_24
REMARK                            x       y       z     vdW  Elec       q    Type
REMARK                         _______ _______ _______ _____ _____    ______ ____
ROOT
ATOM      1  C   UNL     1      -0.218  -5.043   0.637  0.00  0.00    +0.152 C 
ATOM      2  C   UNL     1      -1.181  -4.549   1.700  0.00  0.00    -0.014 C 
ATOM      3  C   UNL     1      -0.891  -4.888   3.025  0.00  0.00    +0.002 A 
ATOM      4  C   UNL     1      -1.734  -4.470   4.076  0.00  0.00    +0.030 A 
ATOM      5  C   UNL     1      -1.429  -4.813   5.357  0.00  0.00    +0.042 A 
ATOM      6  C   UNL     1      -0.298  -5.571   5.654  0.00  0.00    +0.022 A 
ATOM      7  C   UNL     1       0.553  -6.003   4.683  0.00  0.00    +0.025 A 
ATOM      8  C   UNL     1       0.300  -5.686   3.336  0.00  0.00    +0.041 A 
ATOM      9  N   UNL     1       1.136  -6.111   2.383  0.00  0.00    -0.284 N 
ATOM     10  C   UNL     1       0.970  -5.856   1.101  0.00  0.00    +0.230 C 
ATOM     11  O   UNL     1       1.773  -6.276   0.289  0.00  0.00    -0.274 OA
ATOM     12 CL   UNL     1      -2.470  -4.297   6.647  0.00  0.00    -0.084 Cl
ATOM     13  H   UNL     1       1.907  -6.636   2.650  0.00  0.00    +0.155 HD
ENDROOT
BRANCH   2  14
ATOM     14  C   UNL     1      -2.323  -3.779   1.365  0.00  0.00    -0.020 A 
ATOM     15  C   UNL     1      -2.454  -2.465   1.841  0.00  0.00    +0.008 A 
ATOM     16  C   UNL     1      -3.567  -1.725   1.510  0.00  0.00    +0.001 A 
ATOM     17  C   UNL     1      -4.556  -2.274   0.710  0.00  0.00    +0.000 A 
ATOM     18  C   UNL     1      -4.436  -3.570   0.234  0.00  0.00    +0.001 A 
ATOM     19  C   UNL     1      -3.328  -4.324   0.549  0.00  0.00    +0.008 A 
ENDBRANCH   2  14
BRANCH   1  23
ATOM     20  N   UNL     1       0.698  -1.695  -0.618  0.00  0.00    -0.197 N 
ATOM     21  C   UNL     1       1.400  -2.410  -1.697  0.00  0.00    +0.138 C 
ATOM     22  C   UNL     1       1.144  -3.894  -1.364  0.00  0.00    +0.083 C 
ATOM     23  C   UNL     1       0.306  -3.841  -0.106  0.00  0.00    +0.055 C 
ATOM     24  N   UNL     1       0.115  -2.632   0.233  0.00  0.00    -0.185 NA
BRANCH  21  25
ATOM     25  C   UNL     1       0.816  -2.054  -3.040  0.00  0.00    +0.010 A 
ATOM     26  C   UNL     1      -0.441  -1.485  -3.117  0.00  0.00    +0.008 A 
ATOM     27  C   UNL     1      -0.978  -1.158  -4.349  0.00  0.00    +0.000 A 
ATOM     28  C   UNL     1      -0.258  -1.401  -5.504  0.00  0.00    +0.003 A 
ATOM     29  C   UNL     1       0.999  -1.970  -5.429  0.00  0.00    +0.039 A 
ATOM     30  C   UNL     1       1.540  -2.292  -4.195  0.00  0.00    +0.128 A 
ATOM     31  F   UNL     1       2.771  -2.844  -4.120  0.00  0.00    -0.205 F 
ENDBRANCH  21  25
BRANCH  20  32
ATOM     32  C   UNL     1       0.633  -0.357  -0.475  0.00  0.00    +0.153 C 
ATOM     33  S   UNL     1       1.406   0.664  -1.611  0.00  0.00    -0.017 S 
BRANCH  32  35
ATOM     34  C   UNL     1      -0.110   1.633   0.719  0.00  0.00    +0.127 C 
ATOM     35  N   UNL     1      -0.040   0.178   0.563  0.00  0.00    -0.328 N 
ATOM     36  H   UNL     1      -0.478  -0.400   1.207  0.00  0.00    +0.147 HD
ENDBRANCH  32  35
ENDBRANCH  20  32
ENDBRANCH   1  23
TORSDOF 5
