REMARK  Name = ZINC39908888
REMARK  5 active torsions:
REMARK  status: ('A' for Active; 'I' for Inactive)
REMARK    1  A    between atoms: C_1  and  N_2
REMARK    2  A    between atoms: C_3  and  C_19
REMARK    3  A    between atoms: C_22  and  O_25
REMARK    4  A    between atoms: O_25  and  C_26
REMARK    5  A    between atoms: C_26  and  C_27
REMARK                            x       y       z     vdW  Elec       q    Type
REMARK                         _______ _______ _______ _____ _____    ______ ____
ROOT
ATOM      1  C   UNL     1      -0.018   1.461   0.010  0.00  0.00    +0.133 C 
ATOM      2  N   UNL     1       0.002  -0.004   0.002  0.00  0.00    -0.287 N 
ATOM      3  C   UNL     1      -1.177  -0.885   0.003  0.00  0.00    +0.144 C 
ATOM      4  C   UNL     1      -0.644  -2.280  -0.005  0.00  0.00    +0.072 A 
ATOM      5  C   UNL     1      -1.329  -3.577   0.001  0.00  0.00    +0.199 A 
ATOM      6  O   UNL     1      -2.530  -3.697  -0.162  0.00  0.00    -0.287 OA
ATOM      7  C   UNL     1      -0.419  -4.729   0.224  0.00  0.00    +0.066 A 
ATOM      8  C   UNL     1      -0.937  -6.003   0.455  0.00  0.00    +0.035 A 
ATOM      9  C   UNL     1      -0.077  -7.059   0.665  0.00  0.00    +0.042 A 
ATOM     10  C   UNL     1       1.296  -6.853   0.648  0.00  0.00    +0.023 A 
ATOM     11  C   UNL     1       1.818  -5.600   0.419  0.00  0.00    +0.048 A 
ATOM     12  C   UNL     1       0.969  -4.515   0.201  0.00  0.00    +0.140 A 
ATOM     13  O   UNL     1       1.509  -3.296  -0.032  0.00  0.00    -0.450 OA
ATOM     14  C   UNL     1       0.720  -2.204  -0.016  0.00  0.00    +0.199 A 
ATOM     15  C   UNL     1       1.104  -0.781  -0.013  0.00  0.00    +0.283 C 
ATOM     16  O   UNL     1       2.247  -0.369  -0.021  0.00  0.00    -0.267 OA
ATOM     17 CL   UNL     1      -0.712  -8.649   0.953  0.00  0.00    -0.084 Cl
ENDROOT
BRANCH   3  18
ATOM     18  C   UNL     1      -2.011  -0.639  -1.228  0.00  0.00    -0.022 A 
ATOM     19  C   UNL     1      -1.395  -0.398  -2.442  0.00  0.00    +0.009 A 
ATOM     20  C   UNL     1      -2.157  -0.171  -3.572  0.00  0.00    +0.046 A 
ATOM     21  C   UNL     1      -3.541  -0.186  -3.488  0.00  0.00    +0.121 A 
ATOM     22  C   UNL     1      -4.157  -0.427  -2.269  0.00  0.00    +0.046 A 
ATOM     23  C   UNL     1      -3.391  -0.659  -1.143  0.00  0.00    +0.009 A 
BRANCH  21  24
ATOM     24  O   UNL     1      -4.293   0.038  -4.598  0.00  0.00    -0.483 OA
BRANCH  24  25
ATOM     25  C   UNL     1      -5.713   0.008  -4.436  0.00  0.00    +0.324 C 
BRANCH  25  26
ATOM     26  C   UNL     1      -6.375   0.275  -5.764  0.00  0.00    +0.248 C 
ATOM     27  O   UNL     1      -5.697   0.470  -6.751  0.00  0.00    -0.272 OA
ATOM     28  N   UNL     1      -7.719   0.295  -5.854  0.00  0.00    -0.327 N 
ATOM     29  H   UNL     1      -8.261   0.139  -5.065  0.00  0.00    +0.145 HD
ATOM     30  H   UNL     1      -8.145   0.467  -6.709  0.00  0.00    +0.145 HD
ENDBRANCH  25  26
ENDBRANCH  24  25
ENDBRANCH  21  24
ENDBRANCH   3  18
TORSDOF 4
