REMARK  Name = ZINC06554056
REMARK  3 active torsions:
REMARK  status: ('A' for Active; 'I' for Inactive)
REMARK    1  A    between atoms: N_9  and  N_10
REMARK    2  A    between atoms: C_11  and  C_13
REMARK    3  A    between atoms: C_15  and  C_19
REMARK                            x       y       z     vdW  Elec       q    Type
REMARK                         _______ _______ _______ _____ _____    ______ ____
ROOT
ATOM      1  C   UNL     1      -0.017   1.381   0.010  0.00  0.00    +0.017 A 
ATOM      2  C   UNL     1       1.162   2.100   0.002  0.00  0.00    +0.025 A 
ATOM      3  C   UNL     1       2.384   1.437  -0.013  0.00  0.00    +0.043 A 
ATOM      4  C   UNL     1       2.399   0.036  -0.021  0.00  0.00    +0.029 A 
ATOM      5  C   UNL     1       1.207  -0.680  -0.013  0.00  0.00    +0.027 A 
ATOM      6  C   UNL     1       0.002  -0.004   0.002  0.00  0.00    +0.019 A 
ATOM      7 BR   UNL     1      -1.623  -0.971   0.012  0.00  0.00    -0.050 Br
ATOM      8  C   UNL     1       3.824  -0.366  -0.036  0.00  0.00    +0.153 C 
ATOM      9  N   UNL     1       4.310  -1.585  -0.047  0.00  0.00    -0.174 NA
ATOM     10  C   UNL     1       4.579   0.902  -0.036  0.00  0.00    +0.269 C 
ATOM     11  O   UNL     1       5.791   1.014  -0.046  0.00  0.00    -0.268 OA
ATOM     12  N   UNL     1       3.692   1.911  -0.022  0.00  0.00    -0.280 N 
ATOM     13  H   UNL     1       3.932   2.851  -0.020  0.00  0.00    +0.155 HD
ENDROOT
BRANCH   9  14
ATOM     14  N   UNL     1       5.696  -1.786  -0.061  0.00  0.00    -0.201 N 
ATOM     15  C   UNL     1       6.195  -3.038  -0.073  0.00  0.00    +0.281 C 
ATOM     16  O   UNL     1       5.442  -3.993  -0.072  0.00  0.00    -0.267 OA
ATOM     17  H   UNL     1       6.297  -1.025  -0.062  0.00  0.00    +0.178 HD
BRANCH  15  18
ATOM     18  C   UNL     1       7.650  -3.250  -0.087  0.00  0.00    +0.122 A 
ATOM     19  C   UNL     1       8.313  -4.465  -0.106  0.00  0.00    +0.057 A 
ATOM     20  C   UNL     1       9.672  -4.145  -0.115  0.00  0.00    +0.067 A 
ATOM     21  N   UNL     1       9.777  -2.841  -0.101  0.00  0.00    -0.178 NA
ATOM     22  N   UNL     1       8.619  -2.286  -0.091  0.00  0.00    -0.272 N 
ATOM     23  H   UNL     1       8.456  -1.330  -0.084  0.00  0.00    +0.189 HD
BRANCH  20  24
ATOM     24  C   UNL     1      10.815  -5.127  -0.135  0.00  0.00    +0.040 C 
ATOM     25  C   UNL     1      10.506  -6.579   0.236  0.00  0.00    +0.010 C 
ATOM     26  C   UNL     1      11.285  -5.691   1.208  0.00  0.00    +0.010 C 
ENDBRANCH  20  24
ENDBRANCH  15  18
ENDBRANCH   9  14
TORSDOF 3
