REMARK  Name = ZINC42379434
REMARK  5 active torsions:
REMARK  status: ('A' for Active; 'I' for Inactive)
REMARK    1  A    between atoms: C_3  and  C_6
REMARK    2  A    between atoms: C_6  and  C_8
REMARK    3  A    between atoms: C_6  and  N_26
REMARK    4  A    between atoms: C_8  and  N_9
REMARK    5  A    between atoms: C_10  and  C_12
REMARK                            x       y       z     vdW  Elec       q    Type
REMARK                         _______ _______ _______ _____ _____    ______ ____
ROOT
ATOM      1  N   UNL     1       5.544   0.158  -1.652  0.00  0.00    -0.316 N 
ATOM      2  C   UNL     1       6.170   0.162  -2.845  0.00  0.00    +0.218 C 
ATOM      3  O   UNL     1       5.522   0.153  -3.870  0.00  0.00    -0.275 OA
ATOM      4  H   UNL     1       6.062   0.165  -0.832  0.00  0.00    +0.149 HD
ENDROOT
BRANCH   2   5
ATOM      5  C   UNL     1       7.676   0.177  -2.906  0.00  0.00    +0.092 C 
ATOM      6  C   UNL     1       8.128   0.181  -4.368  0.00  0.00    +0.016 C 
ATOM      7  C   UNL     1       9.657   0.163  -4.431  0.00  0.00    +0.020 C 
ATOM      8  C   UNL     1      10.206   1.422  -3.752  0.00  0.00    +0.109 C 
ATOM      9  N   UNL     1       9.659   1.502  -2.391  0.00  0.00    -0.285 N 
ATOM     10  C   UNL     1       8.203   1.436  -2.209  0.00  0.00    +0.122 C 
ATOM     11  C   UNL     1      10.478   1.634  -1.328  0.00  0.00    +0.305 C 
ATOM     12  O   UNL     1      11.675   1.471  -1.460  0.00  0.00    -0.252 OA
ATOM     13  N   UNL     1       9.969   1.946  -0.120  0.00  0.00    -0.285 N 
ATOM     14  C   UNL     1       8.540   1.984   0.224  0.00  0.00    +0.109 C 
ATOM     15  C   UNL     1       8.436   2.414   1.703  0.00  0.00    +0.020 C 
ATOM     16  C   UNL     1       9.785   3.140   1.949  0.00  0.00    +0.020 C 
ATOM     17  C   UNL     1      10.753   2.298   1.078  0.00  0.00    +0.109 C 
ENDBRANCH   2   5
BRANCH   1  18
ATOM     18  C   UNL     1       4.080   0.143  -1.593  0.00  0.00    +0.096 C 
BRANCH  18  19
ATOM     19  C   UNL     1       3.627   0.271  -0.137  0.00  0.00    +0.016 C 
BRANCH  19  20
ATOM     20  N   UNL     1       4.212   1.483   0.453  0.00  0.00    +0.387 N 
ATOM     21  C   UNL     1       3.624   2.693  -0.176  0.00  0.00    -0.078 C 
ATOM     22  C   UNL     1       3.880   3.800   0.879  0.00  0.00    -0.020 C 
ATOM     23  C   UNL     1       3.663   3.058   2.217  0.00  0.00    -0.020 C 
ATOM     24  C   UNL     1       3.868   1.567   1.889  0.00  0.00    -0.078 C 
ATOM     25  H   UNL     1       5.214   1.479   0.335  0.00  0.00    -0.081 HD
ENDBRANCH  19  20
BRANCH  19  28
ATOM     26  C   UNL     1       4.150  -2.890   1.684  0.00  0.00    +0.041 A 
ATOM     27  C   UNL     1       3.325  -2.000   0.960  0.00  0.00    +0.043 A 
ATOM     28  C   UNL     1       4.084  -0.937   0.640  0.00  0.00    +0.093 A 
ATOM     29  O   UNL     1       5.319  -1.135   1.129  0.00  0.00    -0.469 OA
ATOM     30  C   UNL     1       5.365  -2.318   1.763  0.00  0.00    +0.195 A 
ENDBRANCH  19  28
ENDBRANCH  18  19
ENDBRANCH   1  18
TORSDOF 5
