REMARK  Name = ZINC21981270
REMARK  5 active torsions:
REMARK  status: ('A' for Active; 'I' for Inactive)
REMARK    1  A    between atoms: C_3  and  O_28
REMARK    2  A    between atoms: C_10  and  O_27
REMARK    3  A    between atoms: N_14  and  C_15
REMARK    4  A    between atoms: C_15  and  C_16
REMARK    5  A    between atoms: C_22  and  O_26
REMARK                            x       y       z     vdW  Elec       q    Type
REMARK                         _______ _______ _______ _____ _____    ______ ____
ROOT
ATOM      1  C   UNL     1      -1.207   0.617  -2.059  0.00  0.00    +0.007 A 
ATOM      2  C   UNL     1      -2.077   1.045  -3.051  0.00  0.00    +0.049 A 
ATOM      3  C   UNL     1      -2.991   2.085  -2.888  0.00  0.00    +0.159 A 
ATOM      4  C   UNL     1      -2.992   2.736  -1.645  0.00  0.00    +0.166 A 
ATOM      5  C   UNL     1      -2.042   2.336  -0.732  0.00  0.00    +0.013 A 
ATOM      6  C   UNL     1      -1.190   1.254  -0.833  0.00  0.00    -0.041 A 
ATOM      7  C   UNL     1      -0.355   0.894   0.347  0.00  0.00    +0.023 C 
ATOM      8  C   UNL     1      -0.817   1.514   1.670  0.00  0.00    -0.031 C 
ATOM      9  C   UNL     1      -2.170   2.197   1.605  0.00  0.00    +0.068 C 
ATOM     10  C   UNL     1      -2.124   3.228   0.475  0.00  0.00    +0.064 C 
ATOM     11  C   UNL     1      -0.969   4.189   0.614  0.00  0.00    -0.001 C 
ATOM     12  C   UNL     1       0.348   3.455   0.867  0.00  0.00    -0.077 C 
ATOM     13  N   UNL     1       0.191   2.549   2.018  0.00  0.00    +0.384 N 
ATOM     14  C   UNL     1      -3.455   3.950   0.259  0.00  0.00    +0.215 C 
ATOM     15  O   UNL     1      -3.802   3.669  -1.110  0.00  0.00    -0.481 OA
ATOM     16  C   UNL     1      -4.476   3.362   1.235  0.00  0.00    +0.156 C 
ATOM     17  C   UNL     1      -3.974   3.543   2.671  0.00  0.00    +0.038 C 
ATOM     18  C   UNL     1      -2.619   2.860   2.890  0.00  0.00    +0.037 C 
ATOM     19  H   UNL     1      -0.144   3.124   2.893  0.00  0.00    -0.081 HD
ENDROOT
BRANCH  16  20
ATOM     20  O   UNL     1      -5.729   4.027   1.070  0.00  0.00    -0.388 OA
ATOM     21  H   UNL     1      -6.591   3.738   1.689  0.00  0.00    +0.210 HD
ENDBRANCH  16  20
BRANCH   9  22
ATOM     22  O   UNL     1      -3.147   1.212   1.264  0.00  0.00    -0.389 OA
ATOM     23  H   UNL     1      -4.205   1.498   1.164  0.00  0.00    +0.210 HD
ENDBRANCH   9  22
BRANCH   3  24
ATOM     24  O   UNL     1      -3.840   2.450  -3.885  0.00  0.00    -0.503 OA
ATOM     25  H   UNL     1      -4.551   3.275  -3.728  0.00  0.00    +0.292 HD
ENDBRANCH   3  24
BRANCH  13  26
ATOM     26  C   UNL     1       1.475   1.936   2.384  0.00  0.00    -0.075 C 
BRANCH  26  27
ATOM     27  C   UNL     1       2.430   3.018   2.893  0.00  0.00    -0.028 C 
ATOM     28  C   UNL     1       3.706   3.270   2.087  0.00  0.00    +0.002 C 
ATOM     29  C   UNL     1       3.784   2.564   3.442  0.00  0.00    +0.002 C 
ENDBRANCH  26  27
ENDBRANCH  13  26
TORSDOF 5
