REMARK  Name = ZINC10251587
REMARK  7 active torsions:
REMARK  status: ('A' for Active; 'I' for Inactive)
REMARK    1  A    between atoms: C_1  and  C_2
REMARK    2  A    between atoms: C_5  and  N_8
REMARK    3  A    between atoms: N_15  and  N_18
REMARK    4  A    between atoms: C_19  and  C_21
REMARK    5  A    between atoms: C_21  and  O_22
REMARK    6  A    between atoms: O_22  and  C_23
REMARK    7  A    between atoms: C_28  and  C_29
REMARK                            x       y       z     vdW  Elec       q    Type
REMARK                         _______ _______ _______ _____ _____    ______ ____
ROOT
ATOM      1  N   UNL     1       0.002  -0.004   0.002  0.00  0.00    -0.214 N 
ATOM      2  C   UNL     1       1.300  -0.413  -0.013  0.00  0.00    +0.170 A 
ATOM      3  C   UNL     1       2.086   0.750  -0.014  0.00  0.00    +0.105 A 
ATOM      4  C   UNL     1       1.207   1.849   0.001  0.00  0.00    +0.150 A 
ATOM      5  N   UNL     1      -0.017   1.396   0.010  0.00  0.00    -0.172 NA
ATOM      6  C   UNL     1       3.541   0.599  -0.029  0.00  0.00    +0.282 A 
ATOM      7  O   UNL     1       4.278   1.569  -0.032  0.00  0.00    -0.265 OA
ATOM      8  N   UNL     1       4.039  -0.660  -0.041  0.00  0.00    -0.212 N 
ATOM      9  C   UNL     1       3.200  -1.727  -0.038  0.00  0.00    +0.224 A 
ATOM     10  N   UNL     1       1.904  -1.611  -0.025  0.00  0.00    -0.216 NA
ENDROOT
BRANCH   1  15
ATOM     11  C   UNL     1      -4.551  -3.391   0.028  0.00  0.00    +0.044 C 
ATOM     12  C   UNL     1      -3.341  -2.492   0.021  0.00  0.00    -0.050 A 
ATOM     13  C   UNL     1      -3.368  -1.296   0.714  0.00  0.00    +0.005 A 
ATOM     14  C   UNL     1      -2.261  -0.469   0.710  0.00  0.00    +0.028 A 
ATOM     15  C   UNL     1      -1.122  -0.840   0.008  0.00  0.00    +0.068 A 
ATOM     16  C   UNL     1      -1.101  -2.039  -0.692  0.00  0.00    +0.028 A 
ATOM     17  C   UNL     1      -2.208  -2.864  -0.679  0.00  0.00    +0.005 A 
ENDBRANCH   1  15
BRANCH   8  18
ATOM     18  N   UNL     1       5.425  -0.862  -0.057  0.00  0.00    -0.216 N 
ATOM     19  C   UNL     1       6.036  -1.252  -1.193  0.00  0.00    +0.269 C 
ATOM     20  O   UNL     1       5.386  -1.428  -2.202  0.00  0.00    -0.270 OA
ATOM     21  H   UNL     1       5.945  -0.722   0.750  0.00  0.00    +0.176 HD
BRANCH  19  22
ATOM     22  C   UNL     1       7.527  -1.470  -1.210  0.00  0.00    +0.326 C 
BRANCH  22  23
ATOM     23  O   UNL     1       7.935  -1.876  -2.518  0.00  0.00    -0.482 OA
BRANCH  23  24
ATOM     24  C   UNL     1       9.259  -2.115  -2.705  0.00  0.00    +0.124 A 
ATOM     25  C   UNL     1      10.150  -1.956  -1.653  0.00  0.00    +0.046 A 
ATOM     26  C   UNL     1      11.495  -2.205  -1.844  0.00  0.00    +0.004 A 
ATOM     27  C   UNL     1      11.956  -2.602  -3.086  0.00  0.00    +0.000 A 
ATOM     28  C   UNL     1      11.071  -2.756  -4.138  0.00  0.00    +0.007 A 
ATOM     29  C   UNL     1       9.724  -2.513  -3.950  0.00  0.00    -0.009 A 
ATOM     30  C   UNL     1       8.761  -2.680  -5.097  0.00  0.00    +0.047 C 
ENDBRANCH  23  24
ENDBRANCH  22  23
ENDBRANCH  19  22
ENDBRANCH   8  18
TORSDOF 5
