REMARK  Name = ZINC15930673
REMARK  5 active torsions:
REMARK  status: ('A' for Active; 'I' for Inactive)
REMARK    1  A    between atoms: C_1  and  C_2
REMARK    2  A    between atoms: N_4  and  C_19
REMARK    3  A    between atoms: C_8  and  N_9
REMARK    4  A    between atoms: N_9  and  C_10
REMARK    5  A    between atoms: C_13  and  N_16
REMARK                            x       y       z     vdW  Elec       q    Type
REMARK                         _______ _______ _______ _____ _____    ______ ____
ROOT
ATOM      1  C   UNL     1      -0.018   1.503   0.010  0.00  0.00    +0.068 C 
ATOM      2  C   UNL     1       0.002  -0.004   0.002  0.00  0.00    +0.070 C 
ATOM      3  N   UNL     1       0.008  -0.765  -1.049  0.00  0.00    -0.176 NA
ATOM      4  N   UNL     1       0.028  -2.115  -0.699  0.00  0.00    -0.156 N 
ATOM      5  C   UNL     1       0.035  -2.244   0.644  0.00  0.00    +0.273 C 
ATOM      6  O   UNL     1       0.052  -3.285   1.280  0.00  0.00    -0.268 OA
ATOM      7  C   UNL     1       0.025  -0.879   1.183  0.00  0.00    +0.075 C 
ATOM      8  C   UNL     1       0.033  -0.499   2.515  0.00  0.00    +0.087 C 
ENDROOT
BRANCH   4   9
ATOM      9  C   UNL     1       0.038  -3.181  -1.608  0.00  0.00    +0.061 A 
ATOM     10  C   UNL     1       0.052  -4.490  -1.145  0.00  0.00    +0.028 A 
ATOM     11  C   UNL     1       0.061  -5.539  -2.043  0.00  0.00    +0.040 A 
ATOM     12  C   UNL     1       0.058  -5.286  -3.405  0.00  0.00    +0.124 A 
ATOM     13  C   UNL     1       0.045  -3.981  -3.869  0.00  0.00    +0.040 A 
ATOM     14  C   UNL     1       0.029  -2.929  -2.974  0.00  0.00    +0.028 A 
ATOM     15  F   UNL     1       0.069  -6.314  -4.282  0.00  0.00    -0.205 F 
ENDBRANCH   4   9
BRANCH   8  16
ATOM     16  N   UNL     1       0.055  -1.437   3.485  0.00  0.00    -0.320 N 
ATOM     17  H   UNL     1       0.065  -2.378   3.249  0.00  0.00    +0.152 HD
BRANCH  16  18
ATOM     18  C   UNL     1       0.063  -1.053   4.829  0.00  0.00    +0.031 A 
ATOM     19  C   UNL     1       0.043   0.294   5.168  0.00  0.00    +0.025 A 
ATOM     20  C   UNL     1       0.050   0.670   6.497  0.00  0.00    +0.034 A 
ATOM     21  C   UNL     1       0.078  -0.292   7.489  0.00  0.00    +0.126 A 
ATOM     22  C   UNL     1       0.099  -1.634   7.155  0.00  0.00    +0.034 A 
ATOM     23  C   UNL     1       0.086  -2.017   5.828  0.00  0.00    +0.025 A 
BRANCH  21  24
ATOM     24  N   UNL     1       0.087   0.114   8.912  0.00  0.00    +0.056 N 
ATOM     25  O   UNL     1       0.070   1.287   9.206  0.00  0.00    -0.126 OA
ATOM     26  O   UNL     1       0.112  -0.726   9.781  0.00  0.00    -0.126 OA
ENDBRANCH  21  24
ENDBRANCH  16  18
ENDBRANCH   8  16
TORSDOF 4
