REMARK  Name = ZINC28114313
REMARK  10 active torsions:
REMARK  status: ('A' for Active; 'I' for Inactive)
REMARK    1  A    between atoms: C_1  and  C_2
REMARK    2  A    between atoms: C_2  and  C_3
REMARK    3  A    between atoms: C_2  and  C_4
REMARK    4  A    between atoms: C_2  and  C_5
REMARK    5  A    between atoms: N_8  and  N_30
REMARK    6  A    between atoms: N_10  and  N_11
REMARK    7  A    between atoms: C_12  and  C_13
REMARK    8  A    between atoms: C_16  and  O_19
REMARK    9  A    between atoms: O_19  and  C_20
REMARK   10  A    between atoms: C_20  and  C_21
REMARK                            x       y       z     vdW  Elec       q    Type
REMARK                         _______ _______ _______ _____ _____    ______ ____
ROOT
ATOM      1  C   UNL     1       0.095  -0.182   0.116  0.00  0.00    +0.106 A 
ATOM      2  C   UNL     1       1.427  -0.753  -0.101  0.00  0.00    +0.292 A 
ATOM      3  O   UNL     1       1.550  -1.921  -0.419  0.00  0.00    -0.264 OA
ATOM      4  N   UNL     1       2.517   0.032   0.058  0.00  0.00    -0.198 N 
ATOM      5  C   UNL     1       2.321   1.353   0.417  0.00  0.00    +0.253 A 
ATOM      6  N   UNL     1       3.252   2.039   1.047  0.00  0.00    -0.204 N 
ATOM      7  N   UNL     1       1.105   1.922   0.088  0.00  0.00    -0.136 NA
ATOM      8  N   UNL     1      -0.043   1.115   0.205  0.00  0.00    -0.273 N 
ATOM      9  H   UNL     1       3.107   3.111   1.242  0.00  0.00    +0.177 HD
ATOM     10  H   UNL     1      -1.039   1.553   0.367  0.00  0.00    +0.189 HD
ENDROOT
BRANCH   1  12
ATOM     11  C   UNL     1      -2.361  -0.234   0.457  0.00  0.00    +0.017 C 
ATOM     12  C   UNL     1      -1.107  -1.083   0.236  0.00  0.00    +0.009 C 
ATOM     13  C   UNL     1      -1.264  -1.898  -1.049  0.00  0.00    +0.017 C 
ATOM     14  C   UNL     1      -0.918  -2.031   1.422  0.00  0.00    +0.017 C 
ENDBRANCH   1  12
BRANCH   4  15
ATOM     15  N   UNL     1       3.775  -0.466  -0.132  0.00  0.00    -0.293 N 
ATOM     16  H   UNL     1       4.651   0.187   0.001  0.00  0.00    +0.163 HD
ATOM     17  H   UNL     1       3.913  -1.519  -0.419  0.00  0.00    +0.163 HD
ENDBRANCH   4  15
BRANCH   6  18
ATOM     18  N   UNL     1       4.334   1.453   1.435  0.00  0.00    -0.188 NA
ATOM     19  C   UNL     1       5.257   2.132   2.059  0.00  0.00    +0.138 C 
BRANCH  19  20
ATOM     20  C   UNL     1       6.491   1.464   2.501  0.00  0.00    -0.005 A 
ATOM     21  C   UNL     1       6.675   0.099   2.259  0.00  0.00    +0.013 A 
ATOM     22  C   UNL     1       7.835  -0.521   2.669  0.00  0.00    +0.046 A 
ATOM     23  C   UNL     1       8.815   0.205   3.333  0.00  0.00    +0.121 A 
ATOM     24  C   UNL     1       8.635   1.559   3.582  0.00  0.00    +0.046 A 
ATOM     25  C   UNL     1       7.482   2.190   3.170  0.00  0.00    +0.013 A 
BRANCH  23  26
ATOM     26  O   UNL     1       9.955  -0.413   3.741  0.00  0.00    -0.487 OA
BRANCH  26  27
ATOM     27  C   UNL     1      10.076  -1.807   3.454  0.00  0.00    +0.264 C 
BRANCH  27  28
ATOM     28  C   UNL     1      11.395  -2.316   3.977  0.00  0.00    -0.010 A 
ATOM     29  C   UNL     1      12.514  -2.293   3.167  0.00  0.00    +0.008 A 
ATOM     30  C   UNL     1      13.726  -2.753   3.648  0.00  0.00    +0.020 A 
ATOM     31  C   UNL     1      13.814  -3.248   4.937  0.00  0.00    +0.041 A 
ATOM     32  C   UNL     1      12.692  -3.276   5.746  0.00  0.00    +0.020 A 
ATOM     33  C   UNL     1      11.483  -2.809   5.265  0.00  0.00    +0.008 A 
ATOM     34 CL   UNL     1      15.334  -3.833   5.540  0.00  0.00    -0.084 Cl
ENDBRANCH  27  28
ENDBRANCH  26  27
ENDBRANCH  23  26
ENDBRANCH  19  20
ENDBRANCH   6  18
TORSDOF 7
