REMARK  Name = ZINC24442476
REMARK  7 active torsions:
REMARK  status: ('A' for Active; 'I' for Inactive)
REMARK    1  A    between atoms: C_1  and  C_2
REMARK    2  A    between atoms: C_12  and  C_14
REMARK    3  A    between atoms: C_16  and  C_31
REMARK    4  A    between atoms: N_26  and  C_27
REMARK    5  A    between atoms: C_27  and  C_28
REMARK    6  A    between atoms: C_28  and  C_29
REMARK    7  A    between atoms: C_28  and  C_30
REMARK                            x       y       z     vdW  Elec       q    Type
REMARK                         _______ _______ _______ _____ _____    ______ ____
ROOT
ATOM      1  C   UNL     1      -1.209   3.626   0.174  0.00  0.00    +0.055 A 
ATOM      2  C   UNL     1      -0.989   2.416   0.836  0.00  0.00    +0.037 A 
ATOM      3  C   UNL     1       0.185   1.720   0.601  0.00  0.00    +0.047 A 
ATOM      4  N   UNL     1       1.097   2.164  -0.241  0.00  0.00    -0.233 NA
ATOM      5  C   UNL     1       0.942   3.300  -0.900  0.00  0.00    +0.151 A 
ATOM      6  C   UNL     1      -0.218   4.071  -0.715  0.00  0.00    +0.094 A 
ATOM      7  C   UNL     1      -0.355   5.330  -1.468  0.00  0.00    +0.264 A 
ATOM      8  O   UNL     1      -1.340   6.030  -1.340  0.00  0.00    -0.267 OA
ATOM      9  N   UNL     1       0.646   5.685  -2.304  0.00  0.00    -0.274 N 
ATOM     10  H   UNL     1       0.575   6.619  -2.881  0.00  0.00    +0.173 HD
ATOM     11  C   UNL     1       1.735   4.914  -2.447  0.00  0.00    +0.331 A 
ATOM     12  O   UNL     1       2.608   5.277  -3.211  0.00  0.00    -0.246 OA
ATOM     13  N   UNL     1       1.905   3.759  -1.782  0.00  0.00    -0.278 N 
ENDROOT
BRANCH   1  24
ATOM     14  C   UNL     1      -4.417   6.506  -0.665  0.00  0.00    +0.029 C 
ATOM     15  C   UNL     1      -4.735   5.039  -0.373  0.00  0.00    +0.083 C 
ATOM     16  C   UNL     1      -5.632   4.459  -1.479  0.00  0.00    +0.059 C 
ATOM     17  C   UNL     1      -4.822   3.329  -2.072  0.00  0.00    -0.024 A 
ATOM     18  C   UNL     1      -5.112   2.445  -3.093  0.00  0.00    +0.005 A 
ATOM     19  C   UNL     1      -4.192   1.480  -3.460  0.00  0.00    +0.000 A 
ATOM     20  C   UNL     1      -2.978   1.402  -2.801  0.00  0.00    +0.002 A 
ATOM     21  C   UNL     1      -2.684   2.282  -1.782  0.00  0.00    +0.024 A 
ATOM     22  C   UNL     1      -3.608   3.259  -1.406  0.00  0.00    +0.040 A 
ATOM     23  N   UNL     1      -3.510   4.235  -0.411  0.00  0.00    -0.264 N 
ATOM     24  C   UNL     1      -2.447   4.409   0.398  0.00  0.00    +0.252 C 
ATOM     25  O   UNL     1      -2.503   5.208   1.312  0.00  0.00    -0.270 OA
ENDBRANCH   1  24
BRANCH   3  26
ATOM     26  C   UNL     1       0.422   0.417   1.320  0.00  0.00    +0.038 C 
ATOM     27  C   UNL     1      -0.497   0.081   2.496  0.00  0.00    +0.010 C 
ATOM     28  C   UNL     1       0.956   0.488   2.752  0.00  0.00    +0.010 C 
ENDBRANCH   3  26
BRANCH  13  29
ATOM     29  C   UNL     1       3.124   2.974  -1.994  0.00  0.00    +0.131 C 
BRANCH  29  30
ATOM     30  C   UNL     1       2.903   1.988  -3.143  0.00  0.00    +0.003 C 
ATOM     31  C   UNL     1       2.688   2.763  -4.445  0.00  0.00    +0.009 C 
ATOM     32  C   UNL     1       4.130   1.085  -3.284  0.00  0.00    +0.009 C 
ENDBRANCH  29  30
ENDBRANCH  13  29
TORSDOF 4
