REMARK  Name = ZINC08425775
REMARK  7 active torsions:
REMARK  status: ('A' for Active; 'I' for Inactive)
REMARK    1  A    between atoms: C_1  and  C_2
REMARK    2  A    between atoms: N_4  and  C_33
REMARK    3  A    between atoms: C_7  and  C_9
REMARK    4  A    between atoms: C_9  and  C_10
REMARK    5  A    between atoms: C_9  and  C_19
REMARK    6  A    between atoms: C_21  and  C_32
REMARK    7  A    between atoms: N_23  and  C_26
REMARK                            x       y       z     vdW  Elec       q    Type
REMARK                         _______ _______ _______ _____ _____    ______ ____
ROOT
ATOM      1  C   UNL     1      -1.119  -0.518   1.925  0.00  0.00    +0.054 C 
ENDROOT
BRANCH   1   2
ATOM      2  C   UNL     1      -1.006  -1.256   3.234  0.00  0.00    -0.038 A 
ATOM      3  C   UNL     1      -0.017  -0.912   4.136  0.00  0.00    +0.008 A 
ATOM      4  C   UNL     1       0.091  -1.586   5.339  0.00  0.00    +0.050 A 
ATOM      5  C   UNL     1      -0.793  -2.609   5.641  0.00  0.00    +0.166 A 
ATOM      6  C   UNL     1      -1.790  -2.955   4.732  0.00  0.00    +0.166 A 
ATOM      7  C   UNL     1      -1.895  -2.271   3.532  0.00  0.00    +0.053 A 
ATOM      8  O   UNL     1      -2.523  -3.980   5.257  0.00  0.00    -0.453 OA
ATOM      9  C   UNL     1      -1.714  -4.529   6.315  0.00  0.00    +0.466 C 
ATOM     10  O   UNL     1      -0.902  -3.417   6.736  0.00  0.00    -0.453 OA
ENDBRANCH   1   2
BRANCH   1  17
ATOM     11  C   UNL     1      -1.038  -3.243   0.158  0.00  0.00    +0.063 C 
ATOM     12  C   UNL     1       0.052  -2.421   0.796  0.00  0.00    +0.047 C 
ATOM     13  N   UNL     1       1.161  -2.857   1.253  0.00  0.00    -0.181 NA
ATOM     14  N   UNL     1       1.966  -1.854   1.784  0.00  0.00    -0.160 N 
ATOM     15  C   UNL     1       1.370  -0.647   1.685  0.00  0.00    +0.249 C 
ATOM     16  O   UNL     1       1.806   0.424   2.051  0.00  0.00    -0.273 OA
ATOM     17  C   UNL     1       0.039  -0.921   1.010  0.00  0.00    +0.131 C 
BRANCH  14  18
ATOM     18  C   UNL     1       3.230  -2.069   2.347  0.00  0.00    +0.060 A 
ATOM     19  C   UNL     1       3.955  -1.000   2.857  0.00  0.00    +0.025 A 
ATOM     20  C   UNL     1       5.202  -1.215   3.412  0.00  0.00    +0.002 A 
ATOM     21  C   UNL     1       5.727  -2.493   3.460  0.00  0.00    +0.000 A 
ATOM     22  C   UNL     1       5.008  -3.560   2.953  0.00  0.00    +0.002 A 
ATOM     23  C   UNL     1       3.758  -3.352   2.402  0.00  0.00    +0.025 A 
ENDBRANCH  14  18
ENDBRANCH   1  17
BRANCH   1  24
ATOM     24  C   UNL     1      -1.063   0.989   2.183  0.00  0.00    +0.131 C 
ATOM     25  C   UNL     1      -2.335   1.463   2.854  0.00  0.00    +0.047 C 
ATOM     26  N   UNL     1      -2.884   2.305   2.068  0.00  0.00    -0.181 NA
ATOM     27  N   UNL     1      -2.165   2.509   0.895  0.00  0.00    -0.160 N 
ATOM     28  C   UNL     1      -1.042   1.755   0.874  0.00  0.00    +0.249 C 
ATOM     29  O   UNL     1      -0.201   1.701   0.000  0.00  0.00    -0.273 OA
ATOM     30  C   UNL     1      -2.856   1.021   4.197  0.00  0.00    +0.063 C 
BRANCH  27  31
ATOM     31  C   UNL     1      -2.551   3.381  -0.129  0.00  0.00    +0.060 A 
ATOM     32  C   UNL     1      -1.854   3.398  -1.330  0.00  0.00    +0.025 A 
ATOM     33  C   UNL     1      -2.237   4.260  -2.338  0.00  0.00    +0.002 A 
ATOM     34  C   UNL     1      -3.315   5.107  -2.153  0.00  0.00    +0.000 A 
ATOM     35  C   UNL     1      -4.012   5.093  -0.959  0.00  0.00    +0.002 A 
ATOM     36  C   UNL     1      -3.637   4.229   0.051  0.00  0.00    +0.025 A 
ENDBRANCH  27  31
ENDBRANCH   1  24
TORSDOF 5
