REMARK  Name = ZINC61592521
REMARK  6 active torsions:
REMARK  status: ('A' for Active; 'I' for Inactive)
REMARK    1  A    between atoms: C_1  and  N_2
REMARK    2  A    between atoms: C_8  and  S_9
REMARK    3  A    between atoms: S_9  and  C_10
REMARK    4  A    between atoms: C_10  and  C_12
REMARK    5  A    between atoms: C_10  and  C_14
REMARK    6  A    between atoms: C_12  and  N_13
REMARK                            x       y       z     vdW  Elec       q    Type
REMARK                         _______ _______ _______ _____ _____    ______ ____
ROOT
ATOM      1  C   UNL     1      -0.092  -1.798   3.749  0.00  0.00    +0.073 C 
ENDROOT
BRANCH   1   2
ATOM      2  C   UNL     1      -0.401  -1.554   5.204  0.00  0.00    +0.002 A 
ATOM      3  C   UNL     1      -1.480  -1.946   5.925  0.00  0.00    +0.013 A 
ATOM      4  C   UNL     1      -1.552  -1.603   7.262  0.00  0.00    +0.023 A 
ATOM      5  C   UNL     1      -0.542  -0.885   7.813  0.00  0.00    +0.055 A 
ATOM      6  S   UNL     1       0.562  -0.679   6.426  0.00  0.00    -0.085 S 
ATOM      7 BR   UNL     1      -0.350  -0.270   9.590  0.00  0.00    -0.043 Br
ENDBRANCH   1   2
BRANCH   1   8
ATOM      8  S   UNL     1       0.077  -0.209   2.891  0.00  0.00    -0.079 S 
BRANCH   8  16
ATOM      9  C   UNL     1       0.211   1.689   0.231  0.00  0.00    +0.156 C 
ATOM     10  N   UNL     1       0.236   0.227   0.132  0.00  0.00    -0.274 N 
ATOM     11  C   UNL     1       0.319  -0.485  -1.009  0.00  0.00    +0.345 A 
ATOM     12  O   UNL     1       0.387  -0.031  -2.138  0.00  0.00    -0.245 OA
ATOM     13  N   UNL     1       0.313  -1.792  -0.675  0.00  0.00    -0.226 N 
ATOM     14  H   UNL     1       0.363  -2.542  -1.288  0.00  0.00    +0.194 HD
ATOM     15  N   UNL     1       0.223  -1.867   0.722  0.00  0.00    -0.145 NA
ATOM     16  C   UNL     1       0.184  -0.653   1.189  0.00  0.00    +0.192 A 
ENDBRANCH   8  16
ENDBRANCH   1   8
BRANCH   1  17
ATOM     17  C   UNL     1       1.215  -2.584   3.631  0.00  0.00    -0.066 C 
BRANCH  17  18
ATOM     18  N   UNL     1       1.036  -3.923   4.207  0.00  0.00    +0.379 N 
ATOM     19  H   UNL     1       1.870  -4.470   4.053  0.00  0.00    -0.090 HD
ATOM     20  H   UNL     1       0.865  -3.842   5.198  0.00  0.00    -0.090 HD
ATOM     21  H   UNL     1       0.250  -4.377   3.766  0.00  0.00    -0.090 HD
ENDBRANCH  17  18
ENDBRANCH   1  17
TORSDOF 5
