REMARK  Name = ZINC13637032
REMARK  5 active torsions:
REMARK  status: ('A' for Active; 'I' for Inactive)
REMARK    1  A    between atoms: C_1  and  O_2
REMARK    2  A    between atoms: O_2  and  C_3
REMARK    3  A    between atoms: C_3  and  C_5
REMARK    4  A    between atoms: C_18  and  C_21
REMARK    5  A    between atoms: C_24  and  O_27
REMARK                            x       y       z     vdW  Elec       q    Type
REMARK                         _______ _______ _______ _____ _____    ______ ____
ROOT
ATOM      1  C   UNL     1       0.256   2.116   0.255  0.00  0.00    +0.059 A 
ATOM      2  C   UNL     1       0.062   0.733   0.190  0.00  0.00    +0.017 A 
ATOM      3  C   UNL     1       1.135  -0.106   0.108  0.00  0.00    +0.024 A 
ATOM      4  C   UNL     1       2.433   0.400   0.083  0.00  0.00    +0.031 A 
ATOM      5  C   UNL     1       2.632   1.787   0.139  0.00  0.00    -0.019 A 
ATOM      6  C   UNL     1       1.555   2.634   0.229  0.00  0.00    +0.021 A 
ATOM      7  C   UNL     1       4.026   2.280   0.086  0.00  0.00    +0.049 C 
ATOM      8  C   UNL     1       4.453   3.584   0.677  0.00  0.00    -0.023 C 
ATOM      9  C   UNL     1       5.701   3.477   1.116  0.00  0.00    -0.030 C 
ATOM     10  C   UNL     1       6.225   2.062   0.861  0.00  0.00    +0.033 C 
ATOM     11  C   UNL     1       4.923   1.251   0.837  0.00  0.00    +0.029 C 
ATOM     12  C   UNL     1       4.903  -0.003  -0.019  0.00  0.00    +0.105 C 
ATOM     13  N   UNL     1       3.506  -0.488   0.017  0.00  0.00    -0.336 N 
ATOM     14  H   UNL     1       3.333  -1.442  -0.006  0.00  0.00    +0.147 HD
ENDROOT
BRANCH  12  15
ATOM     15  C   UNL     1       5.303   0.326  -1.434  0.00  0.00    -0.027 A 
ATOM     16  C   UNL     1       4.338   0.669  -2.362  0.00  0.00    +0.009 A 
ATOM     17  C   UNL     1       4.704   0.976  -3.659  0.00  0.00    +0.046 A 
ATOM     18  C   UNL     1       6.039   0.929  -4.031  0.00  0.00    +0.117 A 
ATOM     19  C   UNL     1       7.005   0.579  -3.099  0.00  0.00    +0.046 A 
ATOM     20  C   UNL     1       6.635   0.279  -1.802  0.00  0.00    +0.009 A 
BRANCH  18  21
ATOM     21  O   UNL     1       6.401   1.225  -5.308  0.00  0.00    -0.507 OA
ATOM     22  H   UNL     1       6.413   0.461  -5.900  0.00  0.00    +0.292 HD
ENDBRANCH  18  21
ENDBRANCH  12  15
BRANCH   1  23
ATOM     23  C   UNL     1      -0.902   3.024   0.343  0.00  0.00    +0.339 C 
ATOM     24  O   UNL     1      -0.729   4.225   0.399  0.00  0.00    -0.245 OA
BRANCH  23  26
ATOM     25  C   UNL     1      -3.244   3.473   0.451  0.00  0.00    +0.280 C 
ATOM     26  O   UNL     1      -2.152   2.521   0.362  0.00  0.00    -0.464 OA
ENDBRANCH  23  26
ENDBRANCH   1  23
TORSDOF 4
