REMARK  Name = ZINC64683262
REMARK  7 active torsions:
REMARK  status: ('A' for Active; 'I' for Inactive)
REMARK    1  A    between atoms: C_4  and  C_7
REMARK    2  A    between atoms: C_10  and  C_13
REMARK    3  A    between atoms: C_13  and  N_14
REMARK    4  A    between atoms: N_17  and  CA_18
REMARK    5  A    between atoms: CA_18  and  CB_20
REMARK    6  A    between atoms: CA_18  and  C_30
REMARK    7  A    between atoms: CB_20  and  CG_21
REMARK                            x       y       z     vdW  Elec       q    Type
REMARK                         _______ _______ _______ _____ _____    ______ ____
ROOT
ATOM      1  N   UNK A   0       3.209  -4.322   1.883  0.00  0.00    -0.294 N 
ATOM      2  C   UNK A   0       2.976  -5.427   2.618  0.00  0.00    +0.301 C 
ATOM      3  O   UNK A   0       3.354  -6.513   2.220  0.00  0.00    -0.253 OA
ATOM      4  N   TRP A   1       2.325  -5.330   3.794  0.00  0.00    -0.286 N 
ATOM      5  H   UNK A   0       2.908  -3.456   2.200  0.00  0.00    +0.151 HD
ATOM      6  H   TRP A   1       2.024  -4.464   4.112  0.00  0.00    +0.151 HD
ENDROOT
BRANCH   1   7
ATOM      7  C   UNK A   0       3.917  -4.428   0.605  0.00  0.00    +0.157 C 
BRANCH   7  10
ATOM      8  C   UNK A   0       3.711  -0.707  -0.038  0.00  0.00    +0.193 C 
ATOM      9  N   UNK A   0       3.581  -2.048   0.569  0.00  0.00    -0.271 NA
ATOM     10  C   UNK A   0       4.046  -3.059  -0.013  0.00  0.00    +0.042 C 
ATOM     11  C   UNK A   0       4.744  -2.875  -1.353  0.00  0.00    +0.123 C 
ATOM     12  S   UNK A   0       4.202  -1.156  -1.761  0.00  0.00    -0.124 S 
BRANCH   8  16
ATOM     13  C   UNK A   0      -0.017   1.378   0.010  0.00  0.00    +0.000 A 
ATOM     14  C   UNK A   0       1.171   2.086   0.002  0.00  0.00    +0.000 A 
ATOM     15  C   UNK A   0       2.377   1.411  -0.013  0.00  0.00    +0.006 A 
ATOM     16  C   UNK A   0       2.396   0.029  -0.020  0.00  0.00    -0.013 A 
ATOM     17  C   UNK A   0       1.208  -0.679  -0.012  0.00  0.00    +0.006 A 
ATOM     18  C   UNK A   0       0.002  -0.004   0.002  0.00  0.00    +0.000 A 
ENDBRANCH   8  16
ENDBRANCH   7  10
ENDBRANCH   1   7
BRANCH   4  19
ATOM     19  CA  TRP A   1       2.072  -6.532   4.593  0.00  0.00    +0.191 C 
BRANCH  19  20
ATOM     20  C   TRP A   1       3.277  -6.828   5.449  0.00  0.00    +0.376 C 
ATOM     21  O   TRP A   1       3.989  -5.917   5.837  0.00  0.00    -0.244 OA
ATOM     22  OXT TRP A   1       3.539  -7.979   5.755  0.00  0.00    -0.244 OA
ENDBRANCH  19  20
BRANCH  19  23
ATOM     23  CB  TRP A   1       0.854  -6.301   5.489  0.00  0.00    +0.067 C 
BRANCH  23  24
ATOM     24  CG  TRP A   1      -0.374  -6.126   4.633  0.00  0.00    -0.039 C 
ATOM     25  CD2 TRP A   1      -1.267  -7.081   4.287  0.00  0.00    -0.001 A 
ATOM     26  CE3 TRP A   1      -1.359  -8.514   4.593  0.00  0.00    +0.010 A 
ATOM     27  CZ3 TRP A   1      -2.393  -9.227   4.091  0.00  0.00    +0.001 A 
ATOM     28  CH2 TRP A   1      -3.376  -8.633   3.288  0.00  0.00    +0.002 A 
ATOM     29  CZ2 TRP A   1      -3.360  -7.323   2.964  0.00  0.00    +0.026 A 
ATOM     30  CE2 TRP A   1      -2.318  -6.478   3.438  0.00  0.00    +0.043 A 
ATOM     31  NE1 TRP A   1      -2.085  -5.200   3.265  0.00  0.00    -0.380 N 
ATOM     32  CD1 TRP A   1      -0.860  -4.846   3.991  0.00  0.00    +0.144 C 
ATOM     33  HE1 TRP A   1      -2.632  -4.589   2.747  0.00  0.00    +0.160 HD
ENDBRANCH  23  24
ENDBRANCH  19  23
ENDBRANCH   4  19
TORSDOF 7
