REMARK  Name = ZINC31920641
REMARK  6 active torsions:
REMARK  status: ('A' for Active; 'I' for Inactive)
REMARK    1  A    between atoms: C_1  and  C_2
REMARK    2  A    between atoms: C_2  and  C_3
REMARK    3  A    between atoms: C_2  and  C_4
REMARK    4  A    between atoms: C_2  and  C_5
REMARK    5  A    between atoms: C_6  and  C_15
REMARK    6  A    between atoms: C_15  and  O_16
REMARK                            x       y       z     vdW  Elec       q    Type
REMARK                         _______ _______ _______ _____ _____    ______ ____
ROOT
ATOM      1  C   UNL     1      -3.315   2.426  -0.170  0.00  0.00    +0.071 A 
ATOM      2  C   UNL     1      -2.533   1.341   0.017  0.00  0.00    +0.072 A 
ATOM      3  N   UNL     1      -1.257   1.791   0.219  0.00  0.00    -0.300 N 
ATOM      4  C   UNL     1      -0.078   1.147   0.462  0.00  0.00    +0.113 A 
ATOM      5  C   UNL     1       1.064   1.847   0.634  0.00  0.00    +0.058 A 
ATOM      6  C   UNL     1       1.052   3.251   0.571  0.00  0.00    +0.025 A 
ATOM      7  C   UNL     1      -0.117   3.904   0.334  0.00  0.00    +0.048 A 
ATOM      8  C   UNL     1      -1.301   3.160   0.156  0.00  0.00    +0.138 A 
ATOM      9  N   UNL     1      -2.554   3.520  -0.082  0.00  0.00    -0.232 NA
ATOM     10 CL   UNL     1       2.554   1.008   0.936  0.00  0.00    -0.082 Cl
ENDROOT
BRANCH   1  12
ATOM     11  C   UNL     1      -5.333   3.840  -0.449  0.00  0.00    +0.017 C 
ATOM     12  C   UNL     1      -4.799   2.407  -0.432  0.00  0.00    +0.006 C 
ATOM     13  C   UNL     1      -5.069   1.746  -1.786  0.00  0.00    +0.017 C 
ATOM     14  C   UNL     1      -5.502   1.614   0.671  0.00  0.00    +0.017 C 
ENDBRANCH   1  12
BRANCH   2  15
ATOM     15  C   UNL     1      -2.981  -0.098  -0.000  0.00  0.00    +0.211 C 
BRANCH  15  16
ATOM     16  O   UNL     1      -3.215  -0.540   1.338  0.00  0.00    -0.389 OA
ATOM     17  H   UNL     1      -3.551  -1.571   1.527  0.00  0.00    +0.210 HD
ENDBRANCH  15  16
ENDBRANCH   2  15
TORSDOF 3
