REMARK  Name = ZINC03386456
REMARK  9 active torsions:
REMARK  status: ('A' for Active; 'I' for Inactive)
REMARK    1  A    between atoms: C_1  and  C_2
REMARK    2  A    between atoms: C_2  and  C_3
REMARK    3  A    between atoms: C_2  and  C_4
REMARK    4  A    between atoms: C_4  and  C_6
REMARK    5  A    between atoms: C_4  and  S_12
REMARK    6  A    between atoms: S_12  and  C_13
REMARK    7  A    between atoms: C_16  and  C_25
REMARK    8  A    between atoms: N_17  and  C_18
REMARK    9  A    between atoms: C_18  and  C_19
REMARK                            x       y       z     vdW  Elec       q    Type
REMARK                         _______ _______ _______ _____ _____    ______ ____
ROOT
ATOM      1  C   UNL     1       2.600  -4.159  -0.728  0.00  0.00    +0.193 A 
ATOM      2  N   UNL     1       1.650  -4.662   0.027  0.00  0.00    -0.122 NA
ATOM      3  N   UNL     1       1.562  -5.931  -0.160  0.00  0.00    -0.128 NA
ATOM      4  C   UNL     1       2.451  -6.315  -1.047  0.00  0.00    +0.165 A 
ATOM      5  N   UNL     1       3.139  -5.191  -1.442  0.00  0.00    -0.298 N 
ENDROOT
BRANCH   4   6
ATOM      6  C   UNL     1       2.667  -7.694  -1.534  0.00  0.00    +0.019 A 
ATOM      7  C   UNL     1       3.951  -8.123  -1.875  0.00  0.00    +0.013 A 
ATOM      8  C   UNL     1       4.147  -9.412  -2.325  0.00  0.00    +0.021 A 
ATOM      9  C   UNL     1       3.072 -10.277  -2.447  0.00  0.00    +0.041 A 
ATOM     10  C   UNL     1       1.796  -9.856  -2.114  0.00  0.00    +0.021 A 
ATOM     11  C   UNL     1       1.588  -8.570  -1.659  0.00  0.00    +0.013 A 
ATOM     12 CL   UNL     1       3.326 -11.896  -3.019  0.00  0.00    -0.084 Cl
ENDBRANCH   4   6
BRANCH   1  13
ATOM     13  S   UNL     1       3.083  -2.466  -0.811  0.00  0.00    -0.073 S 
BRANCH  13  14
ATOM     14  C   UNL     1       1.929  -1.752   0.387  0.00  0.00    +0.143 C 
BRANCH  14  15
ATOM     15  C   UNL     1       2.080  -0.252   0.396  0.00  0.00    +0.234 C 
ATOM     16  O   UNL     1       3.093   0.258  -0.034  0.00  0.00    -0.274 OA
ATOM     17  N   UNL     1       1.090   0.522   0.882  0.00  0.00    -0.239 N 
ATOM     18  C   UNL     1       1.224   1.863   0.890  0.00  0.00    +0.303 C 
ATOM     19  O   UNL     1       2.239   2.374   0.460  0.00  0.00    -0.253 OA
ATOM     20  N   UNL     1       0.232   2.637   1.371  0.00  0.00    -0.313 N 
ATOM     21  H   UNL     1       0.280   0.114   1.226  0.00  0.00    +0.159 HD
ATOM     22  H   UNL     1      -0.580   2.229   1.711  0.00  0.00    +0.146 HD
ATOM     23  H   UNL     1       0.329   3.602   1.377  0.00  0.00    +0.146 HD
ENDBRANCH  14  15
BRANCH  14  25
ATOM     24  C   UNL     1       3.621  -1.832   2.224  0.00  0.00    +0.009 C 
ATOM     25  C   UNL     1       2.234  -2.303   1.781  0.00  0.00    +0.005 C 
ATOM     26  C   UNL     1       1.183  -1.797   2.771  0.00  0.00    +0.009 C 
ENDBRANCH  14  25
ENDBRANCH  13  14
ENDBRANCH   1  13
BRANCH   5  27
ATOM     27  C   UNL     1       4.226  -5.117  -2.422  0.00  0.00    +0.161 C 
BRANCH  27  28
ATOM     28  C   UNL     1       3.646  -5.026  -3.810  0.00  0.00    -0.028 A 
ATOM     29  C   UNL     1       3.455  -6.174  -4.556  0.00  0.00    +0.005 A 
ATOM     30  C   UNL     1       2.918  -6.091  -5.827  0.00  0.00    +0.000 A 
ATOM     31  C   UNL     1       2.582  -4.859  -6.356  0.00  0.00    +0.000 A 
ATOM     32  C   UNL     1       2.778  -3.710  -5.612  0.00  0.00    +0.000 A 
ATOM     33  C   UNL     1       3.309  -3.794  -4.339  0.00  0.00    +0.005 A 
ENDBRANCH  27  28
ENDBRANCH   5  27
TORSDOF 7
