REMARK  Name = ZINC39355679
REMARK  6 active torsions:
REMARK  status: ('A' for Active; 'I' for Inactive)
REMARK    1  A    between atoms: C_4  and  C_7
REMARK    2  A    between atoms: C_17  and  N_19
REMARK    3  A    between atoms: C_23  and  C_26
REMARK    4  A    between atoms: N_28  and  C_29
REMARK    5  A    between atoms: C_29  and  C_30
REMARK    6  A    between atoms: C_30  and  O_31
REMARK                            x       y       z     vdW  Elec       q    Type
REMARK                         _______ _______ _______ _____ _____    ______ ____
ROOT
ATOM      1  C   UNL     1       5.309  -1.419   1.225  0.00  0.00    -0.036 C 
ATOM      2  C   UNL     1       6.117  -1.550   0.091  0.00  0.00    +0.000 A 
ATOM      3  C   UNL     1       7.508  -1.744   0.217  0.00  0.00    +0.030 A 
ATOM      4  C   UNL     1       8.272  -1.869  -0.903  0.00  0.00    +0.042 A 
ATOM      5  C   UNL     1       7.706  -1.808  -2.176  0.00  0.00    +0.022 A 
ATOM      6  C   UNL     1       6.370  -1.622  -2.360  0.00  0.00    +0.025 A 
ATOM      7  C   UNL     1       5.520  -1.486  -1.247  0.00  0.00    +0.041 A 
ATOM      8  N   UNL     1       4.208  -1.304  -1.430  0.00  0.00    -0.286 N 
ATOM      9  C   UNL     1       3.346  -1.167  -0.441  0.00  0.00    +0.208 C 
ATOM     10  O   UNL     1       2.165  -1.004  -0.682  0.00  0.00    -0.277 OA
ATOM     11  C   UNL     1       3.824  -1.220   0.992  0.00  0.00    +0.052 C 
ATOM     12 CL   UNL     1       9.984  -2.107  -0.744  0.00  0.00    -0.084 Cl
ATOM     13  H   UNL     1       3.871  -1.270  -2.339  0.00  0.00    +0.155 HD
ENDROOT
BRANCH  11  14
ATOM     14  N   UNL     1       3.111  -2.311   1.670  0.00  0.00    +0.391 N 
ATOM     15  C   UNL     1       3.422  -3.583   1.007  0.00  0.00    -0.077 C 
ATOM     16  C   UNL     1       2.747  -4.733   1.759  0.00  0.00    -0.018 C 
ATOM     17  C   UNL     1       1.232  -4.513   1.761  0.00  0.00    +0.009 C 
ATOM     18  C   UNL     1       0.923  -3.151   2.387  0.00  0.00    +0.058 C 
ATOM     19  C   UNL     1       1.666  -2.060   1.613  0.00  0.00    -0.065 C 
ATOM     20  H   UNL     1       3.405  -2.356   2.634  0.00  0.00    -0.080 HD
BRANCH  18  21
ATOM     21  C   UNL     1      -0.560  -2.892   2.325  0.00  0.00    +0.214 C 
ATOM     22  O   UNL     1      -1.049  -2.404   1.329  0.00  0.00    -0.276 OA
ATOM     23  N   UNL     1      -1.343  -3.203   3.378  0.00  0.00    -0.313 N 
ATOM     24  H   UNL     1      -0.951  -3.593   4.175  0.00  0.00    +0.149 HD
BRANCH  23  25
ATOM     25  C   UNL     1      -2.785  -2.951   3.317  0.00  0.00    +0.132 C 
BRANCH  25  26
ATOM     26  C   UNL     1      -3.434  -3.391   4.631  0.00  0.00    +0.174 C 
BRANCH  26  27
ATOM     27  O   UNL     1      -2.952  -2.572   5.698  0.00  0.00    -0.393 OA
ATOM     28  H   UNL     1      -3.322  -2.795   6.563  0.00  0.00    +0.209 HD
ENDBRANCH  26  27
ENDBRANCH  25  26
ENDBRANCH  23  25
ENDBRANCH  18  21
ENDBRANCH  11  14
BRANCH   1  32
ATOM     29  C   UNL     1       6.916  -1.588   5.090  0.00  0.00    +0.000 A 
ATOM     30  C   UNL     1       6.322  -0.419   4.643  0.00  0.00    +0.001 A 
ATOM     31  C   UNL     1       5.791  -0.353   3.374  0.00  0.00    +0.008 A 
ATOM     32  C   UNL     1       5.853  -1.476   2.533  0.00  0.00    -0.022 A 
ATOM     33  C   UNL     1       6.458  -2.656   2.996  0.00  0.00    +0.008 A 
ATOM     34  C   UNL     1       6.982  -2.701   4.268  0.00  0.00    +0.001 A 
ENDBRANCH   1  32
TORSDOF 6
