REMARK  Name = ZINC08915345
REMARK  5 active torsions:
REMARK  status: ('A' for Active; 'I' for Inactive)
REMARK    1  A    between atoms: C_4  and  C_7
REMARK    2  A    between atoms: C_7  and  C_9
REMARK    3  A    between atoms: C_11  and  C_23
REMARK    4  A    between atoms: C_14  and  O_22
REMARK    5  A    between atoms: C_16  and  C_17
REMARK                            x       y       z     vdW  Elec       q    Type
REMARK                         _______ _______ _______ _____ _____    ______ ____
ROOT
ATOM      1  C   UNL     1       3.578  -2.428  -0.008  0.00  0.00    +0.149 C 
ATOM      2  C   UNL     1       4.912  -3.020  -0.486  0.00  0.00    +0.120 C 
ATOM      3  N   UNL     1       4.920  -4.443  -0.112  0.00  0.00    -0.293 N 
ATOM      4  C   UNL     1       4.451  -4.802   1.128  0.00  0.00    +0.256 C 
ATOM      5  N   UNL     1       3.791  -3.987   1.879  0.00  0.00    -0.306 N 
ATOM      6  C   UNL     1       3.482  -2.611   1.509  0.00  0.00    +0.284 C 
ATOM      7  O   UNL     1       4.409  -1.732   2.149  0.00  0.00    -0.194 OA
ATOM      8  H   UNL     1       5.249  -5.114  -0.729  0.00  0.00    +0.151 HD
ATOM      9  H   UNL     1       3.481  -4.309   2.741  0.00  0.00    +0.167 HD
ENDROOT
BRANCH   2  10
ATOM     10  C   UNL     1       5.028  -2.881  -1.982  0.00  0.00    -0.025 A 
ATOM     11  C   UNL     1       4.374  -3.773  -2.811  0.00  0.00    +0.007 A 
ATOM     12  C   UNL     1       4.479  -3.647  -4.183  0.00  0.00    +0.022 A 
ATOM     13  C   UNL     1       5.239  -2.628  -4.728  0.00  0.00    +0.059 A 
ATOM     14  C   UNL     1       5.894  -1.734  -3.897  0.00  0.00    +0.060 A 
ATOM     15  C   UNL     1       5.783  -1.859  -2.524  0.00  0.00    +0.027 A 
ATOM     16 CL   UNL     1       6.848  -0.454  -4.579  0.00  0.00    -0.082 Cl
ATOM     17 CL   UNL     1       5.373  -2.469  -6.452  0.00  0.00    -0.082 Cl
ENDBRANCH   2  10
BRANCH   6  18
ATOM     18  C   UNL     1       2.064  -2.269   1.970  0.00  0.00    +0.441 C 
ATOM     19  F   UNL     1       1.141  -3.033   1.246  0.00  0.00    -0.166 F 
ATOM     20  F   UNL     1       1.936  -2.553   3.334  0.00  0.00    -0.166 F 
ATOM     21  F   UNL     1       1.817  -0.910   1.751  0.00  0.00    -0.166 F 
ENDBRANCH   6  18
BRANCH   1  22
ATOM     22  C   UNL     1       3.524  -0.960  -0.346  0.00  0.00    +0.173 C 
ATOM     23  O   UNL     1       4.381  -0.210   0.070  0.00  0.00    -0.292 OA
BRANCH  22  27
ATOM     24  C   UNL     1       0.373   0.547  -2.753  0.00  0.00    +0.000 A 
ATOM     25  C   UNL     1       1.284   1.421  -2.186  0.00  0.00    +0.001 A 
ATOM     26  C   UNL     1       2.311   0.939  -1.402  0.00  0.00    +0.011 A 
ATOM     27  C   UNL     1       2.430  -0.437  -1.181  0.00  0.00    +0.018 A 
ATOM     28  C   UNL     1       1.506  -1.313  -1.758  0.00  0.00    +0.011 A 
ATOM     29  C   UNL     1       0.484  -0.816  -2.539  0.00  0.00    +0.001 A 
ENDBRANCH  22  27
ENDBRANCH   1  22
BRANCH   4  30
ATOM     30  O   UNL     1       4.689  -6.054   1.577  0.00  0.00    -0.483 OA
ATOM     31  H   UNL     1       4.329  -6.231   2.456  0.00  0.00    +0.295 HD
ENDBRANCH   4  30
TORSDOF 5
