REMARK  Name = ZINC03628260
REMARK  18 active torsions:
REMARK  status: ('A' for Active; 'I' for Inactive)
REMARK    1  A    between atoms: C_1  and  C_2
REMARK    2  A    between atoms: C_2  and  CA_3
REMARK    3  A    between atoms: CA_3  and  C_5
REMARK    4  A    between atoms: CA_3  and  N_66
REMARK    5  A    between atoms: C_5  and  O_6
REMARK    6  A    between atoms: C_7  and  C_8
REMARK    7  A    between atoms: C_7  and  N_66
REMARK    8  A    between atoms: C_8  and  C_10
REMARK    9  A    between atoms: C_8  and  O_34
REMARK   10  A    between atoms: C_10  and  O_11
REMARK   11  A    between atoms: O_11  and  C_12
REMARK   12  A    between atoms: C_18  and  C_29
REMARK   13  A    between atoms: C_19  and  C_28
REMARK   14  A    between atoms: N_20  and  C_21
REMARK   15  A    between atoms: C_24  and  C_27
REMARK   16  A    between atoms: C_29  and  O_31
REMARK   17  A    between atoms: O_31  and  C_32
REMARK   18  A    between atoms: C_32  and  C_33
REMARK                            x       y       z     vdW  Elec       q    Type
REMARK                         _______ _______ _______ _____ _____    ______ ____
ROOT
ATOM      1  C   UNL     1       0.480  -0.220  -1.783  0.00  0.00    +0.121 A 
ATOM      2  C   UNL     1       0.906   0.651  -2.781  0.00  0.00    +0.048 A 
ATOM      3  C   UNL     1       1.438   0.165  -3.955  0.00  0.00    +0.030 A 
ATOM      4  C   UNL     1       1.540  -1.207  -4.156  0.00  0.00    +0.055 A 
ATOM      5  C   UNL     1       1.105  -2.087  -3.153  0.00  0.00    +0.018 A 
ATOM      6  C   UNL     1       0.575  -1.586  -1.966  0.00  0.00    +0.056 A 
ATOM      7  C   UNL     1       1.349  -3.446  -3.672  0.00  0.00    +0.088 A 
ATOM      8  C   UNL     1       1.897  -3.295  -4.913  0.00  0.00    +0.036 A 
ATOM      9  N   UNL     1       2.013  -1.976  -5.205  0.00  0.00    -0.312 N 
ATOM     10  C   UNL     1       2.311  -4.423  -5.821  0.00  0.00    +0.065 C 
ENDROOT
BRANCH   9  11
ATOM     11  C   UNL     1       2.537  -1.464  -6.399  0.00  0.00    +0.047 A 
ATOM     12  C   UNL     1       3.711  -0.723  -6.382  0.00  0.00    +0.026 A 
ATOM     13  C   UNL     1       4.227  -0.223  -7.561  0.00  0.00    +0.005 A 
ATOM     14  C   UNL     1       3.571  -0.453  -8.757  0.00  0.00    -0.050 A 
ATOM     15  C   UNL     1       2.399  -1.187  -8.776  0.00  0.00    +0.005 A 
ATOM     16  C   UNL     1       1.880  -1.693  -7.601  0.00  0.00    +0.026 A 
ATOM     17  C   UNL     1       4.135   0.097 -10.042  0.00  0.00    +0.044 C 
ENDBRANCH   9  11
BRANCH   7  18
ATOM     18  C   UNL     1       1.059  -4.711  -2.988  0.00  0.00    +0.342 C 
ATOM     19  O   UNL     1      -0.024  -5.246  -3.132  0.00  0.00    -0.245 OA
BRANCH  18  20
ATOM     20  O   UNL     1       1.994  -5.281  -2.201  0.00  0.00    -0.461 OA
BRANCH  20  21
ATOM     21  C   UNL     1       1.638  -6.533  -1.556  0.00  0.00    +0.229 C 
ATOM     22  C   UNL     1       2.815  -7.024  -0.711  0.00  0.00    +0.048 C 
ENDBRANCH  20  21
ENDBRANCH  18  20
ENDBRANCH   7  18
BRANCH   1  23
ATOM     23  O   UNL     1      -0.037   0.275  -0.627  0.00  0.00    -0.489 OA
BRANCH  23  24
ATOM     24  C   UNL     1      -0.106   1.697  -0.503  0.00  0.00    +0.258 C 
BRANCH  24  25
ATOM     25  C   UNL     1      -0.711   2.062   0.855  0.00  0.00    +0.135 C 
BRANCH  25  26
ATOM     26  O   UNL     1       0.167   1.634   1.898  0.00  0.00    -0.390 OA
ATOM     27  H   UNL     1       1.047   2.034   1.860  0.00  0.00    +0.210 HD
ENDBRANCH  25  26
BRANCH  25  28
ATOM     28  C   UNL     1      -0.900   3.578   0.937  0.00  0.00    -0.047 C 
BRANCH  28  29
ATOM     29  N   UNL     1      -1.484   3.921   2.248  0.00  0.00    +0.384 N 
ATOM     30  H1  UNL     1      -2.427   3.520   2.314  0.00  0.00    -0.085 HD
ATOM     31  H2  UNL     1      -0.894   3.534   2.993  0.00  0.00    -0.085 HD
BRANCH  29  32
ATOM     32  CA  UNL     1      -1.567   5.386   2.404  0.00  0.00    -0.046 C 
BRANCH  32  34
ATOM     33  C   UNL     1      -0.286   7.444   3.007  0.00  0.00    +0.002 C 
ATOM     34  C   UNL     1      -0.245   5.915   2.963  0.00  0.00    -0.017 C 
ENDBRANCH  32  34
BRANCH  32  35
ATOM     35  C   UNL     1      -2.702   5.724   3.372  0.00  0.00    +0.140 C 
BRANCH  35  36
ATOM     36  O   UNL     1      -2.389   5.217   4.670  0.00  0.00    -0.397 OA
ATOM     37  H   UNL     1      -3.067   5.395   5.336  0.00  0.00    +0.209 HD
ENDBRANCH  35  36
ENDBRANCH  32  35
ENDBRANCH  29  32
ENDBRANCH  28  29
ENDBRANCH  25  28
ENDBRANCH  24  25
ENDBRANCH  23  24
ENDBRANCH   1  23
TORSDOF 14
