REMARK  Name = ZINC42170571
REMARK  11 active torsions:
REMARK  status: ('A' for Active; 'I' for Inactive)
REMARK    1  A    between atoms: C_1  and  C_2
REMARK    2  A    between atoms: C_4  and  N_25
REMARK    3  A    between atoms: C_7  and  S_8
REMARK    4  A    between atoms: S_8  and  N_11
REMARK    5  A    between atoms: N_11  and  C_12
REMARK    6  A    between atoms: C_12  and  C_14
REMARK    7  A    between atoms: C_12  and  C_15
REMARK    8  A    between atoms: C_18  and  O_23
REMARK    9  A    between atoms: C_20  and  O_21
REMARK   10  A    between atoms: O_21  and  C_22
REMARK   11  A    between atoms: O_23  and  C_24
REMARK                            x       y       z     vdW  Elec       q    Type
REMARK                         _______ _______ _______ _____ _____    ______ ____
ROOT
ATOM      1  N   UNL     1       1.139   0.811   2.610  0.00  0.00    -0.183 NA
ATOM      2  H   UNL     1       1.682   0.685   3.404  0.00  0.00    +0.149 HD
ENDROOT
BRANCH   1   3
ATOM      3  S   UNL     1       0.207  -0.433   2.038  0.00  0.00    +0.059 S 
ATOM      4  O   UNL     1      -1.086   0.104   1.799  0.00  0.00    -0.153 OA
ATOM      5  O   UNL     1       0.425  -1.536   2.908  0.00  0.00    -0.153 OA
BRANCH   3  12
ATOM      6  C   UNL     1       2.942  -1.657   1.626  0.00  0.00    +0.046 C 
ATOM      7  C   UNL     1       2.123  -1.447   0.379  0.00  0.00    -0.022 A 
ATOM      8  C   UNL     1       2.633  -1.814  -0.853  0.00  0.00    +0.038 A 
ATOM      9  C   UNL     1       1.881  -1.621  -1.996  0.00  0.00    +0.127 A 
ATOM     10  C   UNL     1       0.619  -1.063  -1.909  0.00  0.00    +0.034 A 
ATOM     11  C   UNL     1       0.110  -0.697  -0.677  0.00  0.00    +0.031 A 
ATOM     12  C   UNL     1       0.860  -0.894   0.468  0.00  0.00    +0.108 A 
BRANCH   9  13
ATOM     13  N   UNL     1       2.427  -2.013  -3.315  0.00  0.00    +0.056 N 
ATOM     14  O   UNL     1       3.530  -2.501  -3.392  0.00  0.00    -0.126 OA
ATOM     15  O   UNL     1       1.770  -1.844  -4.316  0.00  0.00    -0.126 OA
ENDBRANCH   9  13
ENDBRANCH   3  12
ENDBRANCH   1   3
BRANCH   1  16
ATOM     16  C   UNL     1       1.143   2.101   1.916  0.00  0.00    +0.107 C 
ATOM     17  C   UNL     1       0.576   3.179   2.842  0.00  0.00    +0.031 C 
BRANCH  16  18
ATOM     18  C   UNL     1       2.555   2.461   1.532  0.00  0.00    +0.013 A 
ATOM     19  C   UNL     1       3.618   1.950   2.253  0.00  0.00    +0.012 A 
ATOM     20  C   UNL     1       4.914   2.278   1.903  0.00  0.00    +0.046 A 
ATOM     21  C   UNL     1       5.151   3.121   0.826  0.00  0.00    +0.124 A 
ATOM     22  C   UNL     1       4.086   3.635   0.102  0.00  0.00    +0.091 A 
ATOM     23  C   UNL     1       2.787   3.300   0.452  0.00  0.00    +0.128 A 
BRANCH  23  24
ATOM     24  O   UNL     1       1.742   3.797  -0.260  0.00  0.00    -0.495 OA
ATOM     25  C   UNL     1       2.055   4.654  -1.360  0.00  0.00    +0.277 C 
ENDBRANCH  23  24
BRANCH  21  26
ATOM     26  O   UNL     1       6.426   3.444   0.483  0.00  0.00    -0.495 OA
ATOM     27  C   UNL     1       7.473   2.879   1.274  0.00  0.00    +0.277 C 
ENDBRANCH  21  26
ENDBRANCH  16  18
ENDBRANCH   1  16
TORSDOF 7
