REMARK  Name = ZINC64920780
REMARK  6 active torsions:
REMARK  status: ('A' for Active; 'I' for Inactive)
REMARK    1  A    between atoms: C_1  and  C_2
REMARK    2  A    between atoms: C_2  and  C_3
REMARK    3  A    between atoms: C_10  and  C_12
REMARK    4  A    between atoms: N_17  and  S_18
REMARK    5  A    between atoms: S_18  and  C_21
REMARK    6  A    between atoms: C_26  and  C_27
REMARK                            x       y       z     vdW  Elec       q    Type
REMARK                         _______ _______ _______ _____ _____    ______ ____
ROOT
ATOM      1  S   UNL     1       0.076   1.440   4.712  0.00  0.00    +0.062 S 
ATOM      2  O   UNL     1       0.586   0.470   3.807  0.00  0.00    -0.153 OA
ATOM      3  O   UNL     1       0.765   2.648   5.002  0.00  0.00    -0.153 OA
ENDROOT
BRANCH   1   4
ATOM      4  C   UNL     1      -0.164   0.615   6.250  0.00  0.00    +0.112 A 
ATOM      5  C   UNL     1       0.179  -0.719   6.378  0.00  0.00    +0.076 A 
ATOM      6  C   UNL     1      -0.009  -1.367   7.586  0.00  0.00    +0.144 A 
ATOM      7  C   UNL     1      -0.544  -0.672   8.670  0.00  0.00    +0.076 A 
ATOM      8  C   UNL     1      -0.884   0.663   8.537  0.00  0.00    +0.032 A 
ATOM      9  C   UNL     1      -0.689   1.305   7.327  0.00  0.00    -0.022 A 
ATOM     10  C   UNL     1      -1.054   2.760   7.181  0.00  0.00    +0.046 C 
ATOM     11  N   UNL     1      -0.730  -1.341   9.888  0.00  0.00    -0.280 N 
ATOM     12  C   UNL     1      -0.111  -2.525  10.086  0.00  0.00    +0.255 C 
ATOM     13  O   UNL     1      -0.283  -3.137  11.120  0.00  0.00    -0.272 OA
ATOM     14  C   UNL     1       0.793  -3.084   9.017  0.00  0.00    +0.325 C 
ATOM     15  O   UNL     1       0.323  -2.677   7.729  0.00  0.00    -0.481 OA
ATOM     16  H   UNL     1      -1.295  -0.959  10.579  0.00  0.00    +0.155 HD
ENDBRANCH   1   4
BRANCH   1  21
ATOM     17  C   UNL     1      -2.351   0.992   3.427  0.00  0.00    +0.166 C 
ATOM     18  C   UNL     1      -3.624   1.812   3.130  0.00  0.00    +0.031 C 
ATOM     19  C   UNL     1      -3.568   2.939   4.195  0.00  0.00    +0.019 C 
ATOM     20  C   UNL     1      -2.045   3.204   4.288  0.00  0.00    +0.110 C 
ATOM     21  N   UNL     1      -1.420   1.872   4.149  0.00  0.00    -0.165 NA
BRANCH  17  28
ATOM     22  C   UNL     1      -1.491  -1.114   0.339  0.00  0.00    +0.076 C 
ATOM     23  C   UNL     1      -1.110  -2.578   0.579  0.00  0.00    +0.022 C 
ATOM     24  C   UNL     1      -2.357  -3.364   0.992  0.00  0.00    +0.003 C 
ATOM     25  C   UNL     1      -2.915  -2.790   2.296  0.00  0.00    +0.019 C 
ATOM     26  C   UNL     1      -3.316  -1.328   2.076  0.00  0.00    +0.108 C 
ATOM     27  N   UNL     1      -2.162  -0.594   1.538  0.00  0.00    -0.297 N 
ATOM     28  C   UNL     1      -1.724   0.532   2.136  0.00  0.00    +0.235 C 
ATOM     29  O   UNL     1      -0.827   1.175   1.635  0.00  0.00    -0.274 OA
BRANCH  22  31
ATOM     30  C   UNL     1       0.487  -0.860  -1.167  0.00  0.00    +0.006 C 
ATOM     31  C   UNL     1      -0.228  -0.295   0.062  0.00  0.00    +0.019 C 
ENDBRANCH  22  31
ENDBRANCH  17  28
ENDBRANCH   1  21
TORSDOF 4
