REMARK  Name = ZINC66253036
REMARK  4 active torsions:
REMARK  status: ('A' for Active; 'I' for Inactive)
REMARK    1  A    between atoms: C_1  and  C_2
REMARK    2  A    between atoms: C_2  and  C_3
REMARK    3  A    between atoms: N_12  and  S_13
REMARK    4  A    between atoms: S_13  and  C_16
REMARK                            x       y       z     vdW  Elec       q    Type
REMARK                         _______ _______ _______ _____ _____    ______ ____
ROOT
ATOM      1  C   UNL     1       0.718  -0.497  -1.257  0.00  0.00    -0.006 C 
ATOM      2  C   UNL     1       0.641  -2.026  -1.327  0.00  0.00    +0.010 C 
ATOM      3  C   UNL     1       1.142  -2.509  -2.688  0.00  0.00    +0.054 C 
ATOM      4  C   UNL     1       2.524  -1.912  -2.948  0.00  0.00    +0.028 A 
ATOM      5  C   UNL     1       2.937  -0.840  -2.262  0.00  0.00    +0.013 A 
ATOM      6  S   UNL     1       4.563  -0.521  -2.896  0.00  0.00    -0.053 S 
ATOM      7  C   UNL     1       4.620  -1.862  -4.075  0.00  0.00    +0.192 A 
ATOM      8  N   UNL     1       3.389  -2.441  -3.883  0.00  0.00    -0.336 N 
ATOM      9  N   UNL     1       5.579  -2.202  -4.902  0.00  0.00    -0.103 NA
ATOM     10  C   UNL     1       2.196  -0.082  -1.206  0.00  0.00    +0.047 C 
ATOM     11  H   UNL     1       3.130  -3.217  -4.403  0.00  0.00    +0.168 HD
ENDROOT
BRANCH   9  12
ATOM     12  S   UNL     1       5.383  -3.503  -5.907  0.00  0.00    +0.107 S 
ATOM     13  O   UNL     1       5.318  -4.653  -5.074  0.00  0.00    -0.146 OA
ATOM     14  O   UNL     1       4.346  -3.162  -6.816  0.00  0.00    -0.146 OA
BRANCH  12  15
ATOM     15  C   UNL     1       6.858  -3.653  -6.859  0.00  0.00    +0.150 A 
ATOM     16  C   UNL     1       7.981  -4.361  -6.586  0.00  0.00    +0.037 A 
ATOM     17  C   UNL     1       9.027  -4.332  -7.490  0.00  0.00    +0.010 A 
ATOM     18  C   UNL     1       8.898  -3.597  -8.621  0.00  0.00    +0.047 A 
ATOM     19  S   UNL     1       7.257  -2.919  -8.436  0.00  0.00    -0.076 S 
ENDBRANCH  12  15
ENDBRANCH   9  12
BRANCH   1  21
ATOM     20  C   UNL     1      -0.019   1.526   0.010  0.00  0.00    +0.004 C 
ATOM     21  C   UNL     1       0.002  -0.004   0.002  0.00  0.00    +0.000 C 
ENDBRANCH   1  21
TORSDOF 3
