REMARK  Name = ZINC48396994
REMARK  5 active torsions:
REMARK  status: ('A' for Active; 'I' for Inactive)
REMARK    1  A    between atoms: C_1  and  N_2
REMARK    2  A    between atoms: N_2  and  C_3
REMARK    3  A    between atoms: C_3  and  C_4
REMARK    4  A    between atoms: N_11  and  N_12
REMARK    5  A    between atoms: C_13  and  C_15
REMARK                            x       y       z     vdW  Elec       q    Type
REMARK                         _______ _______ _______ _____ _____    ______ ____
ROOT
ATOM      1  C   UNL     1      -0.030   1.461   0.011  0.00  0.00    +0.134 C 
ATOM      2  N   UNL     1      -0.001  -0.004   0.002  0.00  0.00    -0.283 N 
ATOM      3  C   UNL     1      -0.102  -0.673  -1.163  0.00  0.00    +0.319 C 
ATOM      4  O   UNL     1      -0.175  -1.887  -1.163  0.00  0.00    -0.251 OA
ATOM      5  N   UNL     1      -0.122   0.003  -2.329  0.00  0.00    -0.218 N 
ATOM      6  H   UNL     1       0.011   0.964  -2.335  0.00  0.00    +0.174 HD
ENDROOT
BRANCH   5   7
ATOM      7  N   UNL     1      -0.335  -0.682  -3.533  0.00  0.00    -0.228 N 
ATOM      8  C   UNL     1      -0.456   0.005  -4.686  0.00  0.00    +0.276 C 
ATOM      9  O   UNL     1      -0.380   1.219  -4.682  0.00  0.00    -0.267 OA
ATOM     10  H   UNL     1      -0.395  -1.650  -3.536  0.00  0.00    +0.173 HD
BRANCH   8  11
ATOM     11  C   UNL     1      -0.679  -0.712  -5.946  0.00  0.00    +0.104 A 
ATOM     12  C   UNL     1      -0.814  -0.143  -7.195  0.00  0.00    +0.047 A 
ATOM     13  C   UNL     1      -1.009  -1.188  -8.104  0.00  0.00    +0.036 A 
ATOM     14  C   UNL     1      -0.990  -2.352  -7.410  0.00  0.00    +0.098 A 
ATOM     15  N   UNL     1      -0.784  -2.076  -6.098  0.00  0.00    -0.356 N 
ATOM     16  H   UNL     1      -0.724  -2.731  -5.385  0.00  0.00    +0.166 HD
ATOM     17 BR   UNL     1      -1.257  -1.008  -9.970  0.00  0.00    -0.049 Br
ENDBRANCH   8  11
ENDBRANCH   5   7
BRANCH   2  18
ATOM     18  C   UNL     1       0.137  -0.741   1.260  0.00  0.00    +0.144 C 
BRANCH  18  19
ATOM     19  C   UNL     1      -1.229  -1.022   1.831  0.00  0.00    -0.023 A 
ATOM     20  C   UNL     1      -1.829  -0.122   2.691  0.00  0.00    +0.013 A 
ATOM     21  C   UNL     1      -3.059  -0.405   3.186  0.00  0.00    +0.045 A 
ATOM     22  S   UNL     1      -3.405  -1.986   2.432  0.00  0.00    -0.105 S 
ATOM     23  C   UNL     1      -1.890  -2.160   1.503  0.00  0.00    +0.050 A 
ENDBRANCH  18  19
ENDBRANCH   2  18
TORSDOF 4
