REMARK  Name = ZINC63373680
REMARK  6 active torsions:
REMARK  status: ('A' for Active; 'I' for Inactive)
REMARK    1  A    between atoms: C_1  and  C_2
REMARK    2  A    between atoms: C_6  and  N_9
REMARK    3  A    between atoms: C_7  and  C_8
REMARK    4  A    between atoms: C_12  and  C_19
REMARK    5  A    between atoms: C_26  and  O_31
REMARK    6  A    between atoms: O_31  and  C_32
REMARK                            x       y       z     vdW  Elec       q    Type
REMARK                         _______ _______ _______ _____ _____    ______ ____
ROOT
ATOM      1  N   UNL     1       1.284  -3.748   4.194  0.00  0.00    -0.228 N 
ATOM      2  C   UNL     1       0.144  -4.122   4.806  0.00  0.00    +0.270 A 
ATOM      3  O   UNL     1       0.183  -4.678   5.891  0.00  0.00    -0.267 OA
ATOM      4  C   UNL     1      -1.092  -3.868   4.186  0.00  0.00    +0.101 A 
ATOM      5  C   UNL     1      -1.109  -3.245   2.974  0.00  0.00    +0.263 A 
ATOM      6  N   UNL     1       0.075  -2.880   2.385  0.00  0.00    -0.274 N 
ATOM      7  H   UNL     1       0.069  -2.437   1.523  0.00  0.00    +0.173 HD
ATOM      8  C   UNL     1       1.247  -3.129   3.000  0.00  0.00    +0.337 A 
ATOM      9  O   UNL     1       2.286  -2.794   2.466  0.00  0.00    -0.246 OA
ATOM     10  O   UNL     1      -2.282  -2.990   2.357  0.00  0.00    -0.267 OA
ENDROOT
BRANCH   4  11
ATOM     11  C   UNL     1      -2.380  -4.279   4.853  0.00  0.00    +0.121 C 
ATOM     12  C   UNL     1      -3.184  -5.177   3.910  0.00  0.00    +0.128 C 
ATOM     13  C   UNL     1      -3.591  -4.301   2.730  0.00  0.00    -0.035 C 
ATOM     14  C   UNL     1      -3.176  -4.926   1.638  0.00  0.00    +0.003 A 
ATOM     15  C   UNL     1      -3.344  -4.626   0.208  0.00  0.00    +0.055 A 
ATOM     16  C   UNL     1      -2.763  -5.490  -0.670  0.00  0.00    +0.121 A 
ATOM     17  C   UNL     1      -2.031  -6.623  -0.287  0.00  0.00    +0.047 A 
ATOM     18  C   UNL     1      -1.820  -6.997   1.001  0.00  0.00    +0.029 A 
ATOM     19  C   UNL     1      -2.404  -6.142   2.044  0.00  0.00    +0.043 A 
ATOM     20  N   UNL     1      -2.386  -6.269   3.355  0.00  0.00    -0.376 N 
ATOM     21  C   UNL     1      -4.243  -2.955   2.932  0.00  0.00    +0.048 C 
ATOM     22  C   UNL     1      -3.397  -2.221   3.989  0.00  0.00    +0.086 C 
ATOM     23  N   UNL     1      -3.185  -3.084   5.154  0.00  0.00    -0.307 NA
ATOM     24  H   UNL     1      -4.063  -3.339   5.581  0.00  0.00    +0.123 HD
ATOM     25  H   UNL     1      -1.926  -6.953   3.867  0.00  0.00    +0.160 HD
BRANCH  16  26
ATOM     26  O   UNL     1      -2.902  -5.239  -1.999  0.00  0.00    -0.495 OA
ATOM     27  C   UNL     1      -2.284  -6.159  -2.901  0.00  0.00    +0.277 C 
ENDBRANCH  16  26
ENDBRANCH   4  11
BRANCH   1  33
ATOM     28  C   UNL     1       5.134  -6.726   4.899  0.00  0.00    +0.044 C 
ATOM     29  C   UNL     1       4.405  -5.434   5.168  0.00  0.00    -0.046 A 
ATOM     30  C   UNL     1       4.955  -4.495   6.022  0.00  0.00    +0.004 A 
ATOM     31  C   UNL     1       4.289  -3.310   6.271  0.00  0.00    +0.002 A 
ATOM     32  C   UNL     1       3.072  -3.059   5.667  0.00  0.00    +0.027 A 
ATOM     33  C   UNL     1       2.519  -3.999   4.808  0.00  0.00    +0.058 A 
ATOM     34  C   UNL     1       3.192  -5.187   4.556  0.00  0.00    -0.023 A 
ATOM     35  C   UNL     1       2.597  -6.207   3.620  0.00  0.00    +0.046 C 
ENDBRANCH   1  33
TORSDOF 3
