REMARK  Name = ZINC47361016
REMARK  9 active torsions:
REMARK  status: ('A' for Active; 'I' for Inactive)
REMARK    1  A    between atoms: C_1  and  C_2
REMARK    2  A    between atoms: C_3  and  C_12
REMARK    3  A    between atoms: C_14  and  C_15
REMARK    4  A    between atoms: C_14  and  C_17
REMARK    5  A    between atoms: C_17  and  C_19
REMARK    6  A    between atoms: C_19  and  C_20
REMARK    7  A    between atoms: C_20  and  C_21
REMARK    8  A    between atoms: C_21  and  N_22
REMARK    9  A    between atoms: C_23  and  C_25
REMARK                            x       y       z     vdW  Elec       q    Type
REMARK                         _______ _______ _______ _____ _____    ______ ____
ROOT
ATOM      1  C   UNL     1      -0.005  -0.336  -2.517  0.00  0.00    +0.209 C 
ATOM      2  O   UNL     1       1.091  -0.490  -3.288  0.00  0.00    -0.286 OA
ATOM      3  C   UNL     1      -1.156   0.261  -3.047  0.00  0.00    +0.141 C 
ENDROOT
BRANCH   1   6
ATOM      4  C   UNL     1      -0.018   1.503   0.010  0.00  0.00    +0.064 C 
ATOM      5  C   UNL     1       0.002  -0.004   0.002  0.00  0.00    +0.025 A 
ATOM      6  C   UNL     1       0.008  -0.793  -1.129  0.00  0.00    +0.051 A 
ATOM      7  C   UNL     1       0.029  -2.191  -0.656  0.00  0.00    +0.011 A 
ATOM      8  C   UNL     1       0.042  -3.427  -1.295  0.00  0.00    +0.011 A 
ATOM      9  C   UNL     1       0.061  -4.583  -0.544  0.00  0.00    +0.001 A 
ATOM     10  C   UNL     1       0.066  -4.516   0.842  0.00  0.00    +0.002 A 
ATOM     11  C   UNL     1       0.052  -3.299   1.486  0.00  0.00    +0.026 A 
ATOM     12  C   UNL     1       0.034  -2.121   0.746  0.00  0.00    +0.047 A 
ATOM     13  N   UNL     1       0.024  -0.787   1.099  0.00  0.00    -0.358 N 
ATOM     14  H   UNL     1       0.028  -0.458   2.011  0.00  0.00    +0.166 HD
ENDBRANCH   1   6
BRANCH   3  15
ATOM     15  C   UNL     1      -1.169   0.708  -4.408  0.00  0.00    +0.107 C 
ATOM     16  N   UNL     1      -1.179   1.063  -5.487  0.00  0.00    -0.191 NA
ENDBRANCH   3  15
BRANCH   3  17
ATOM     17  C   UNL     1      -2.301   0.422  -2.242  0.00  0.00    +0.177 C 
ATOM     18  O   UNL     1      -2.291   0.043  -1.087  0.00  0.00    -0.291 OA
BRANCH  17  19
ATOM     19  C   UNL     1      -3.539   1.065  -2.812  0.00  0.00    +0.082 C 
BRANCH  19  20
ATOM     20  C   UNL     1      -4.628   1.117  -1.738  0.00  0.00    +0.027 C 
BRANCH  20  21
ATOM     21  C   UNL     1      -5.885   1.770  -2.317  0.00  0.00    +0.105 C 
BRANCH  21  22
ATOM     22  N   UNL     1      -6.927   1.820  -1.288  0.00  0.00    -0.309 N 
ATOM     23  C   UNL     1      -8.130   2.357  -1.573  0.00  0.00    +0.279 C 
ATOM     24  O   UNL     1      -8.350   2.800  -2.685  0.00  0.00    -0.267 OA
ATOM     25  H   UNL     1      -6.751   1.467  -0.402  0.00  0.00    +0.149 HD
BRANCH  23  26
ATOM     26  C   UNL     1      -9.173   2.408  -0.544  0.00  0.00    +0.189 A 
ATOM     27  C   UNL     1     -10.430   2.917  -0.700  0.00  0.00    +0.054 A 
ATOM     28  C   UNL     1     -11.085   2.760   0.532  0.00  0.00    +0.042 A 
ATOM     29  C   UNL     1     -10.209   2.169   1.375  0.00  0.00    +0.196 A 
ATOM     30  O   UNL     1      -9.060   1.954   0.722  0.00  0.00    -0.458 OA
ENDBRANCH  23  26
ENDBRANCH  21  22
ENDBRANCH  20  21
ENDBRANCH  19  20
ENDBRANCH  17  19
ENDBRANCH   3  17
TORSDOF 8
