REMARK  Name = ZINC12497289
REMARK  8 active torsions:
REMARK  status: ('A' for Active; 'I' for Inactive)
REMARK    1  A    between atoms: C_1  and  C_2
REMARK    2  A    between atoms: C_5  and  N_8
REMARK    3  A    between atoms: C_13  and  C_25
REMARK    4  A    between atoms: C_15  and  C_20
REMARK    5  A    between atoms: C_15  and  C_21
REMARK    6  A    between atoms: C_21  and  O_23
REMARK    7  A    between atoms: O_23  and  C_24
REMARK    8  A    between atoms: C_30  and  C_31
REMARK                            x       y       z     vdW  Elec       q    Type
REMARK                         _______ _______ _______ _____ _____    ______ ____
ROOT
ATOM      1  N   UNL     1      -3.097   1.208  -3.512  0.00  0.00    -0.210 N 
ATOM      2  C   UNL     1      -3.332   1.880  -2.345  0.00  0.00    +0.229 C 
ATOM      3  O   UNL     1      -3.606   3.053  -2.213  0.00  0.00    -0.275 OA
ATOM      4  C   UNL     1      -3.184   0.886  -1.306  0.00  0.00    +0.077 C 
ATOM      5  C   UNL     1      -2.906   0.812   0.141  0.00  0.00    -0.026 C 
ATOM      6  C   UNL     1      -2.149  -1.187  -0.980  0.00  0.00    +0.041 C 
ATOM      7  C   UNL     1      -1.993   0.026  -1.895  0.00  0.00    +0.086 C 
ATOM      8  C   UNL     1      -2.512  -0.010  -3.306  0.00  0.00    +0.229 C 
ATOM      9  O   UNL     1      -2.429  -0.927  -4.095  0.00  0.00    -0.275 OA
ATOM     10  C   UNL     1      -0.813  -1.917  -0.834  0.00  0.00    +0.002 C 
ATOM     11  N   UNL     1      -2.602  -0.643   0.316  0.00  0.00    +0.395 N 
ATOM     12  H   UNL     1      -3.447  -1.139   0.623  0.00  0.00    -0.083 HD
ATOM     13  H   UNL     1      -1.862  -0.761   1.018  0.00  0.00    -0.083 HD
ENDROOT
BRANCH   1  18
ATOM     14  C   UNL     1      -4.355   3.264  -8.651  0.00  0.00    +0.044 C 
ATOM     15  C   UNL     1      -4.021   2.718  -7.287  0.00  0.00    -0.050 A 
ATOM     16  C   UNL     1      -4.307   3.462  -6.157  0.00  0.00    +0.005 A 
ATOM     17  C   UNL     1      -4.002   2.964  -4.905  0.00  0.00    +0.024 A 
ATOM     18  C   UNL     1      -3.408   1.716  -4.782  0.00  0.00    +0.044 A 
ATOM     19  C   UNL     1      -3.116   0.973  -5.918  0.00  0.00    +0.024 A 
ATOM     20  C   UNL     1      -3.429   1.474  -7.167  0.00  0.00    +0.005 A 
ENDBRANCH   1  18
BRANCH   5  21
ATOM     21  C   UNL     1      -1.713   1.659   0.504  0.00  0.00    -0.058 A 
ATOM     22  C   UNL     1      -0.459   1.083   0.596  0.00  0.00    +0.002 A 
ATOM     23  C   UNL     1       0.636   1.861   0.922  0.00  0.00    +0.000 A 
ATOM     24  C   UNL     1       0.477   3.213   1.163  0.00  0.00    +0.000 A 
ATOM     25  C   UNL     1      -0.778   3.787   1.076  0.00  0.00    +0.003 A 
ATOM     26  C   UNL     1      -1.873   3.010   0.749  0.00  0.00    -0.049 A 
ATOM     27  C   UNL     1      -3.240   3.635   0.654  0.00  0.00    +0.044 C 
ENDBRANCH   5  21
BRANCH   6  28
ATOM     28  C   UNL     1      -3.198  -2.121  -1.526  0.00  0.00    +0.296 C 
ATOM     29  O   UNL     1      -2.875  -3.038  -2.244  0.00  0.00    -0.252 OA
BRANCH  28  30
ATOM     30  O   UNL     1      -4.490  -1.935  -1.215  0.00  0.00    -0.469 OA
ATOM     31  C   UNL     1      -5.445  -2.874  -1.777  0.00  0.00    +0.280 C 
ENDBRANCH  28  30
ENDBRANCH   6  28
TORSDOF 4
