REMARK  Name = ZINC13063663
REMARK  10 active torsions:
REMARK  status: ('A' for Active; 'I' for Inactive)
REMARK    1  A    between atoms: C_1  and  C_2
REMARK    2  A    between atoms: C_2  and  C_3
REMARK    3  A    between atoms: C_10  and  C_15
REMARK    4  A    between atoms: C_15  and  N_75
REMARK    5  A    between atoms: C_16  and  N_75
REMARK    6  A    between atoms: C_22  and  C_24
REMARK    7  A    between atoms: C_22  and  C_26
REMARK    8  A    between atoms: C_22  and  N_75
REMARK    9  A    between atoms: C_24  and  C_25
REMARK   10  A    between atoms: N_30  and  C_31
REMARK                            x       y       z     vdW  Elec       q    Type
REMARK                         _______ _______ _______ _____ _____    ______ ____
ROOT
ATOM      1  N   UNL     1       0.930   3.493  -0.966  0.00  0.00    +0.391 N 
ATOM      2  H   UNL     1       0.007   3.284  -0.568  0.00  0.00    -0.080 HD
ENDROOT
BRANCH   1   3
ATOM      3  C   UNL     1       0.927   3.133  -2.399  0.00  0.00    -0.067 C 
ATOM      4  C   UNL     1       2.249   3.534  -3.056  0.00  0.00    -0.015 C 
ATOM      5  C   UNL     1       2.219   3.153  -4.537  0.00  0.00    -0.002 C 
ATOM      6  C   UNL     1       1.065   3.882  -5.228  0.00  0.00    -0.000 C 
ATOM      7  C   UNL     1      -0.257   3.481  -4.572  0.00  0.00    -0.002 C 
ATOM      8  C   UNL     1      -0.227   3.862  -3.090  0.00  0.00    -0.015 C 
ENDBRANCH   1   3
BRANCH   1   9
ATOM      9  C   UNL     1       1.206   4.936  -0.808  0.00  0.00    -0.036 C 
BRANCH   9  17
ATOM     10  C   UNL     1       1.595   6.363   5.200  0.00  0.00    -0.047 A 
ATOM     11  C   UNL     1       0.252   6.670   5.375  0.00  0.00    +0.005 A 
ATOM     12  C   UNL     1      -0.633   6.578   4.322  0.00  0.00    +0.026 A 
ATOM     13  C   UNL     1      -0.178   6.176   3.071  0.00  0.00    +0.049 A 
ATOM     14  C   UNL     1       1.185   5.866   2.898  0.00  0.00    -0.001 A 
ATOM     15  C   UNL     1       2.064   5.965   3.981  0.00  0.00    +0.013 A 
ATOM     16  C   UNL     1       1.653   5.439   1.578  0.00  0.00    +0.017 A 
ATOM     17  C   UNL     1       0.756   5.367   0.564  0.00  0.00    +0.001 A 
ATOM     18  C   UNL     1      -0.600   5.689   0.790  0.00  0.00    +0.251 A 
ATOM     19  O   UNL     1      -1.391   5.612  -0.134  0.00  0.00    -0.268 OA
ATOM     20  N   UNL     1      -1.040   6.077   2.000  0.00  0.00    -0.322 N 
ATOM     21  H   UNL     1      -1.979   6.291   2.121  0.00  0.00    +0.169 HD
BRANCH  10  23
ATOM     22  C   UNL     1       3.041   7.911   6.489  0.00  0.00    +0.009 C 
ATOM     23  C   UNL     1       2.543   6.470   6.367  0.00  0.00    +0.032 C 
ENDBRANCH  10  23
ENDBRANCH   9  17
ENDBRANCH   1   9
BRANCH   1  24
ATOM     24  C   UNL     1       1.952   2.702  -0.248  0.00  0.00    +0.003 C 
BRANCH  24  25
ATOM     25  C   UNL     1       3.305   3.354  -0.373  0.00  0.00    +0.138 A 
ATOM     26  N   UNL     1       3.710   4.137  -1.342  0.00  0.00    -0.115 NA
ATOM     27  N   UNL     1       4.923   4.492  -1.088  0.00  0.00    -0.023 NA
ATOM     28  N   UNL     1       5.301   3.954   0.019  0.00  0.00    -0.044 NA
ATOM     29  N   UNL     1       4.332   3.245   0.491  0.00  0.00    -0.228 N 
BRANCH  29  30
ATOM     30  C   UNL     1       4.346   2.468   1.732  0.00  0.00    +0.111 C 
ATOM     31  C   UNL     1       4.830   3.352   2.883  0.00  0.00    +0.027 C 
ATOM     32  C   UNL     1       4.846   2.540   4.179  0.00  0.00    +0.002 C 
ATOM     33  C   UNL     1       5.789   1.346   4.022  0.00  0.00    +0.000 C 
ATOM     34  C   UNL     1       5.305   0.461   2.872  0.00  0.00    +0.002 C 
ATOM     35  C   UNL     1       5.290   1.274   1.575  0.00  0.00    +0.027 C 
ENDBRANCH  29  30
ENDBRANCH  24  25
BRANCH  24  36
ATOM     36  C   UNL     1       2.009   1.292  -0.840  0.00  0.00    -0.011 C 
ATOM     37  C   UNL     1       0.684   0.574  -0.576  0.00  0.00    +0.002 C 
ENDBRANCH  24  36
ENDBRANCH   1  24
TORSDOF 8
