REMARK  Name = ZINC12323191
REMARK  6 active torsions:
REMARK  status: ('A' for Active; 'I' for Inactive)
REMARK    1  A    between atoms: C_9  and  S_14
REMARK    2  A    between atoms: C_11  and  O_13
REMARK    3  A    between atoms: S_14  and  C_15
REMARK    4  A    between atoms: C_15  and  C_16
REMARK    5  A    between atoms: C_16  and  C_17
REMARK    6  A    between atoms: N_19  and  C_20
REMARK                            x       y       z     vdW  Elec       q    Type
REMARK                         _______ _______ _______ _____ _____    ______ ____
ROOT
ATOM      1  C   UNL     1       5.974  -4.325   0.176  0.00  0.00    +0.079 C 
ENDROOT
BRANCH   1   2
ATOM      2  S   UNL     1       4.483  -4.267  -0.856  0.00  0.00    -0.147 S 
BRANCH   2  11
ATOM      3  C   UNL     1      -0.017   1.373   0.010  0.00  0.00    +0.000 A 
ATOM      4  C   UNL     1       1.178   2.071   0.002  0.00  0.00    +0.002 A 
ATOM      5  C   UNL     1       2.366   1.387  -0.018  0.00  0.00    +0.028 A 
ATOM      6  C   UNL     1       2.401  -0.025  -0.029  0.00  0.00    +0.071 A 
ATOM      7  C   UNL     1       1.200  -0.715  -0.012  0.00  0.00    -0.022 A 
ATOM      8  C   UNL     1       0.002  -0.004   0.002  0.00  0.00    +0.006 A 
ATOM      9  C   UNL     1       1.071  -2.206   0.008  0.00  0.00    +0.039 C 
ATOM     10  C   UNL     1       2.115  -2.952  -0.764  0.00  0.00    +0.028 C 
ATOM     11  C   UNL     1       3.449  -3.006  -0.061  0.00  0.00    +0.132 C 
ATOM     12  C   UNL     1       4.160  -1.701  -0.109  0.00  0.00    +0.201 C 
ATOM     13  N   UNL     1       3.635  -0.562  -0.062  0.00  0.00    -0.216 NA
BRANCH  12  14
ATOM     14  O   UNL     1       5.504  -1.746  -0.213  0.00  0.00    -0.495 OA
ATOM     15  H   UNL     1       5.925  -0.876  -0.240  0.00  0.00    +0.293 HD
ENDBRANCH  12  14
ENDBRANCH   2  11
ENDBRANCH   1   2
BRANCH   1  16
ATOM     16  C   UNL     1       6.945  -5.364  -0.390  0.00  0.00    +0.106 C 
BRANCH  16  17
ATOM     17  C   UNL     1       8.184  -5.412   0.467  0.00  0.00    +0.214 C 
ATOM     18  O   UNL     1       8.280  -4.688   1.435  0.00  0.00    -0.276 OA
ATOM     19  N   UNL     1       9.184  -6.261   0.158  0.00  0.00    -0.312 N 
ATOM     20  H   UNL     1       9.107  -6.840  -0.616  0.00  0.00    +0.149 HD
BRANCH  19  21
ATOM     21  C   UNL     1      10.388  -6.308   0.991  0.00  0.00    +0.082 C 
ATOM     22  C   UNL     1      11.467  -5.346   0.451  0.00  0.00    +0.058 C 
ATOM     23  C   UNL     1      12.786  -6.043   0.710  0.00  0.00    -0.042 A 
ATOM     24  C   UNL     1      14.077  -5.542   0.731  0.00  0.00    +0.004 A 
ATOM     25  C   UNL     1      15.143  -6.380   0.995  0.00  0.00    +0.000 A 
ATOM     26  C   UNL     1      14.921  -7.722   1.238  0.00  0.00    +0.000 A 
ATOM     27  C   UNL     1      13.635  -8.223   1.218  0.00  0.00    +0.004 A 
ATOM     28  C   UNL     1      12.564  -7.385   0.954  0.00  0.00    -0.042 A 
ATOM     29  C   UNL     1      11.082  -7.682   0.875  0.00  0.00    +0.058 C 
ENDBRANCH  19  21
ENDBRANCH  16  17
ENDBRANCH   1  16
TORSDOF 6
