REMARK  Name = ZINC39631639
REMARK  12 active torsions:
REMARK  status: ('A' for Active; 'I' for Inactive)
REMARK    1  A    between atoms: C_1  and  C_2
REMARK    2  A    between atoms: C_6  and  C_9
REMARK    3  A    between atoms: C_13  and  C_22
REMARK    4  A    between atoms: N_24  and  C_25
REMARK    5  A    between atoms: C_25  and  C_27
REMARK    6  A    between atoms: C_25  and  C_28
REMARK    7  A    between atoms: C_28  and  C_29
REMARK    8  A    between atoms: C_29  and  C_30
REMARK    9  A    between atoms: C_30  and  C_31
REMARK   10  A    between atoms: C_31  and  C_32
REMARK   11  A    between atoms: C_31  and  C_33
REMARK   12  A    between atoms: C_31  and  O_34
REMARK                            x       y       z     vdW  Elec       q    Type
REMARK                         _______ _______ _______ _____ _____    ______ ____
ROOT
ATOM      1  C   UNL     1       0.078  -2.885   2.568  0.00  0.00    +0.252 C 
ATOM      2  O   UNL     1       1.126  -3.224   3.083  0.00  0.00    -0.270 OA
ATOM      3  N   UNL     1      -1.094  -3.254   3.120  0.00  0.00    -0.296 N 
ATOM      4  C   UNL     1      -2.462  -2.945   2.639  0.00  0.00    +0.121 C 
ATOM      5  C   UNL     1      -3.264  -4.243   2.883  0.00  0.00    +0.100 C 
ATOM      6  C   UNL     1      -2.503  -4.969   4.005  0.00  0.00    -0.004 C 
ATOM      7  C   UNL     1      -1.308  -4.066   4.342  0.00  0.00    +0.115 C 
ATOM      8  C   UNL     1      -3.399  -5.140   5.228  0.00  0.00    -0.010 C 
ATOM      9  C   UNL     1      -2.640  -5.915   6.308  0.00  0.00    -0.082 C 
ATOM     10  N   UNL     1      -2.242  -7.227   5.782  0.00  0.00    +0.379 N 
ATOM     11  C   UNL     1      -1.306  -7.055   4.665  0.00  0.00    -0.082 C 
ATOM     12  C   UNL     1      -2.008  -6.327   3.515  0.00  0.00    -0.010 C 
ATOM     13  H   UNL     1      -1.795  -7.759   6.514  0.00  0.00    -0.086 HD
ATOM     14  H   UNL     1      -3.060  -7.722   5.461  0.00  0.00    -0.086 HD
ENDROOT
BRANCH   1  20
ATOM     15  C   UNL     1       0.109   1.590   0.352  0.00  0.00    +0.047 C 
ATOM     16  C   UNL     1       0.105   0.085   0.266  0.00  0.00    -0.014 A 
ATOM     17  C   UNL     1       0.113  -0.534  -0.971  0.00  0.00    +0.009 A 
ATOM     18  C   UNL     1       0.110  -1.914  -1.062  0.00  0.00    +0.039 A 
ATOM     19  C   UNL     1       0.099  -2.687   0.084  0.00  0.00    +0.138 A 
ATOM     20  C   UNL     1       0.091  -2.068   1.339  0.00  0.00    +0.107 A 
ATOM     21  C   UNL     1       0.100  -0.672   1.422  0.00  0.00    +0.141 A 
ATOM     22  F   UNL     1       0.099  -0.065   2.629  0.00  0.00    -0.204 F 
ATOM     23  F   UNL     1       0.094  -4.035  -0.007  0.00  0.00    -0.205 F 
ENDBRANCH   1  20
BRANCH   5  24
ATOM     24  C   UNL     1      -4.668  -3.917   3.324  0.00  0.00    +0.218 C 
ATOM     25  O   UNL     1      -4.882  -2.918   3.976  0.00  0.00    -0.275 OA
ATOM     26  N   UNL     1      -5.685  -4.738   2.993  0.00  0.00    -0.312 N 
ATOM     27  H   UNL     1      -5.513  -5.537   2.472  0.00  0.00    +0.149 HD
BRANCH  26  28
ATOM     28  C   UNL     1      -7.050  -4.421   3.421  0.00  0.00    +0.070 C 
ATOM     29  C   UNL     1      -7.690  -3.462   2.416  0.00  0.00    +0.028 C 
BRANCH  28  30
ATOM     30  C   UNL     1      -7.873  -5.709   3.493  0.00  0.00    +0.022 C 
BRANCH  30  31
ATOM     31  C   UNL     1      -7.306  -6.616   4.586  0.00  0.00    +0.005 C 
BRANCH  31  32
ATOM     32  C   UNL     1      -8.129  -7.904   4.658  0.00  0.00    +0.034 C 
BRANCH  32  33
ATOM     33  C   UNL     1      -7.562  -8.812   5.752  0.00  0.00    +0.061 C 
ATOM     34  C   UNL     1      -8.305 -10.149   5.740  0.00  0.00    +0.041 C 
ATOM     35  C   UNL     1      -6.074  -9.053   5.493  0.00  0.00    +0.041 C 
BRANCH  33  36
ATOM     36  O   UNL     1      -7.729  -8.185   7.025  0.00  0.00    -0.389 OA
ATOM     37  H   UNL     1      -8.650  -8.002   7.256  0.00  0.00    +0.210 HD
ENDBRANCH  33  36
ENDBRANCH  32  33
ENDBRANCH  31  32
ENDBRANCH  30  31
ENDBRANCH  28  30
ENDBRANCH  26  28
ENDBRANCH   5  24
TORSDOF 8
