REMARK  Name = ZINC09724410
REMARK  13 active torsions:
REMARK  status: ('A' for Active; 'I' for Inactive)
REMARK    1  A    between atoms: C_1  and  C_2
REMARK    2  A    between atoms: C_2  and  O_3
REMARK    3  A    between atoms: O_3  and  C_4
REMARK    4  A    between atoms: C_4  and  C_5
REMARK    5  A    between atoms: C_5  and  N_6
REMARK    6  A    between atoms: C_10  and  S_30
REMARK    7  A    between atoms: N_15  and  C_16
REMARK    8  A    between atoms: C_16  and  C_18
REMARK    9  A    between atoms: C_21  and  S_24
REMARK   10  A    between atoms: S_24  and  N_27
REMARK   11  A    between atoms: N_27  and  C_28
REMARK   12  A    between atoms: N_27  and  C_29
REMARK   13  A    between atoms: S_30  and  N_33
REMARK                            x       y       z     vdW  Elec       q    Type
REMARK                         _______ _______ _______ _____ _____    ______ ____
ROOT
ATOM      1  N   UNL     1      -0.235   1.244   4.841  0.00  0.00    -0.319 N 
ATOM      2  C   UNL     1      -0.620   0.056   5.435  0.00  0.00    +0.058 A 
ATOM      3  C   UNL     1      -1.578  -0.869   4.990  0.00  0.00    +0.029 A 
ATOM      4  C   UNL     1      -1.836  -2.013   5.707  0.00  0.00    +0.030 A 
ATOM      5  C   UNL     1      -1.159  -2.292   6.882  0.00  0.00    +0.106 A 
ATOM      6  C   UNL     1      -0.205  -1.400   7.341  0.00  0.00    +0.045 A 
ATOM      7  C   UNL     1       0.053  -0.255   6.625  0.00  0.00    +0.041 A 
ATOM      8  S   UNL     1       1.157   1.119   6.840  0.00  0.00    -0.052 S 
ATOM      9  C   UNL     1       0.724   2.016   5.420  0.00  0.00    +0.167 A 
ATOM     10  N   UNL     1       1.212   3.178   4.999  0.00  0.00    -0.152 NA
ENDROOT
BRANCH   5  11
ATOM     11  S   UNL     1      -1.506  -3.765   7.783  0.00  0.00    +0.056 S 
ATOM     12  O   UNL     1      -2.049  -4.692   6.852  0.00  0.00    -0.153 OA
ATOM     13  O   UNL     1      -0.349  -4.052   8.556  0.00  0.00    -0.153 OA
BRANCH  11  14
ATOM     14  N   UNL     1      -2.716  -3.409   8.857  0.00  0.00    -0.204 NA
ATOM     15  H   UNL     1      -3.086  -2.514   8.890  0.00  0.00    +0.144 HD
ATOM     16  H   UNL     1      -3.054  -4.096   9.452  0.00  0.00    +0.144 HD
ENDBRANCH  11  14
ENDBRANCH   5  11
BRANCH  10  17
ATOM     17  C   UNL     1       2.161   3.800   5.706  0.00  0.00    +0.269 C 
ATOM     18  O   UNL     1       2.579   3.300   6.736  0.00  0.00    -0.268 OA
BRANCH  17  19
ATOM     19  C   UNL     1       2.705   5.095   5.236  0.00  0.00    +0.039 A 
ATOM     20  C   UNL     1       2.233   5.666   4.054  0.00  0.00    +0.015 A 
ATOM     21  C   UNL     1       2.741   6.875   3.625  0.00  0.00    +0.029 A 
ATOM     22  C   UNL     1       3.723   7.516   4.359  0.00  0.00    +0.105 A 
ATOM     23  C   UNL     1       4.199   6.952   5.529  0.00  0.00    +0.029 A 
ATOM     24  C   UNL     1       3.696   5.746   5.971  0.00  0.00    +0.015 A 
BRANCH  22  25
ATOM     25  S   UNL     1       4.371   9.056   3.800  0.00  0.00    +0.060 S 
ATOM     26  O   UNL     1       3.375   9.638   2.969  0.00  0.00    -0.153 OA
ATOM     27  O   UNL     1       4.889   9.718   4.945  0.00  0.00    -0.153 OA
BRANCH  25  28
ATOM     28  N   UNL     1       5.664   8.718   2.822  0.00  0.00    -0.183 NA
ATOM     29  C   UNL     1       5.465   8.528   1.384  0.00  0.00    +0.131 C 
ATOM     30  C   UNL     1       7.008   8.609   3.397  0.00  0.00    +0.131 C 
ENDBRANCH  25  28
ENDBRANCH  22  25
ENDBRANCH  17  19
ENDBRANCH  10  17
BRANCH   1  31
ATOM     31  C   UNL     1      -0.864   1.675   3.590  0.00  0.00    +0.152 C 
BRANCH  31  32
ATOM     32  C   UNL     1      -0.068   1.127   2.404  0.00  0.00    +0.181 C 
BRANCH  32  33
ATOM     33  O   UNL     1      -0.682   1.547   1.184  0.00  0.00    -0.378 OA
BRANCH  33  35
ATOM     34  C   UNL     1      -0.753   1.593  -1.232  0.00  0.00    +0.034 C 
ATOM     35  C   UNL     1      -0.013   1.086   0.008  0.00  0.00    +0.156 C 
ENDBRANCH  33  35
ENDBRANCH  32  33
ENDBRANCH  31  32
ENDBRANCH   1  31
TORSDOF 10
