REMARK  Name = ZINC29477105
REMARK  6 active torsions:
REMARK  status: ('A' for Active; 'I' for Inactive)
REMARK    1  A    between atoms: C_4  and  C_7
REMARK    2  A    between atoms: C_7  and  C_9
REMARK    3  A    between atoms: C_7  and  O_25
REMARK    4  A    between atoms: N_12  and  C_15
REMARK    5  A    between atoms: C_15  and  C_16
REMARK    6  A    between atoms: N_21  and  C_22
REMARK                            x       y       z     vdW  Elec       q    Type
REMARK                         _______ _______ _______ _____ _____    ______ ____
ROOT
ATOM      1  C   UNL     1       3.010   0.901   1.416  0.00  0.00    +0.019 C 
ATOM      2  C   UNL     1       3.212   2.288   2.031  0.00  0.00    -0.012 C 
ATOM      3  C   UNL     1       3.791   2.137   3.440  0.00  0.00    -0.078 C 
ATOM      4  N   UNL     1       5.071   1.419   3.371  0.00  0.00    +0.385 N 
ATOM      5  C   UNL     1       4.892   0.067   2.828  0.00  0.00    -0.078 C 
ATOM      6  C   UNL     1       4.348   0.156   1.401  0.00  0.00    -0.012 C 
ATOM      7  H   UNL     1       5.729   1.972   2.685  0.00  0.00    -0.081 HD
ENDROOT
BRANCH   1   8
ATOM      8  C   UNL     1       2.490   1.048  -0.016  0.00  0.00    +0.147 C 
BRANCH   8  12
ATOM      9  C   UNL     1      -1.238   3.133   0.029  0.00  0.00    +0.000 A 
ATOM     10  C   UNL     1      -1.219   1.751   0.017  0.00  0.00    +0.000 A 
ATOM     11  C   UNL     1      -0.013   1.076   0.008  0.00  0.00    +0.006 A 
ATOM     12  C   UNL     1       1.175   1.783   0.000  0.00  0.00    -0.019 A 
ATOM     13  C   UNL     1       1.156   3.165   0.008  0.00  0.00    +0.006 A 
ATOM     14  C   UNL     1      -0.050   3.840   0.022  0.00  0.00    +0.000 A 
ENDBRANCH   8  12
BRANCH   8  15
ATOM     15  O   UNL     1       3.437   1.782  -0.794  0.00  0.00    -0.387 OA
ATOM     16  H   UNL     1       4.460   1.399  -0.920  0.00  0.00    +0.210 HD
ENDBRANCH   8  15
ENDBRANCH   1   8
BRANCH   4  17
ATOM     17  C   UNL     1       5.721   1.376   4.688  0.00  0.00    +0.019 C 
BRANCH  17  18
ATOM     18  C   UNL     1       6.109   2.772   5.102  0.00  0.00    +0.204 C 
ATOM     19  O   UNL     1       5.867   3.710   4.373  0.00  0.00    -0.277 OA
ATOM     20  N   UNL     1       6.724   2.978   6.284  0.00  0.00    -0.242 N 
ATOM     21  C   UNL     1       7.071   4.226   6.654  0.00  0.00    +0.306 C 
ATOM     22  O   UNL     1       6.829   5.167   5.924  0.00  0.00    -0.252 OA
ATOM     23  N   UNL     1       7.686   4.432   7.836  0.00  0.00    -0.296 N 
ATOM     24  H   UNL     1       6.944   2.127   6.945  0.00  0.00    +0.159 HD
ATOM     25  H   UNL     1       7.906   3.581   8.497  0.00  0.00    +0.151 HD
BRANCH  23  26
ATOM     26  C   UNL     1       8.063   5.789   8.239  0.00  0.00    +0.075 C 
ATOM     27  C   UNL     1       9.450   5.984   8.854  0.00  0.00    +0.024 C 
ATOM     28  C   UNL     1       8.203   6.068   9.737  0.00  0.00    +0.024 C 
ENDBRANCH  23  26
ENDBRANCH  17  18
ENDBRANCH   4  17
TORSDOF 6
