REMARK  Name = ZINC14704114
REMARK  5 active torsions:
REMARK  status: ('A' for Active; 'I' for Inactive)
REMARK    1  A    between atoms: C_1  and  C_2
REMARK    2  A    between atoms: C_5  and  S_25
REMARK    3  A    between atoms: C_7  and  C_8
REMARK    4  A    between atoms: C_18  and  C_20
REMARK    5  A    between atoms: S_25  and  N_28
REMARK                            x       y       z     vdW  Elec       q    Type
REMARK                         _______ _______ _______ _____ _____    ______ ____
ROOT
ATOM      1  C   UNL     1      -3.612   3.704   0.197  0.00  0.00    +0.044 C 
ATOM      2  C   UNL     1      -2.263   4.375   0.170  0.00  0.00    -0.038 A 
ATOM      3  C   UNL     1      -2.174   5.750   0.235  0.00  0.00    +0.006 A 
ATOM      4  C   UNL     1      -0.937   6.369   0.205  0.00  0.00    +0.029 A 
ATOM      5  C   UNL     1       0.219   5.613   0.117  0.00  0.00    +0.106 A 
ATOM      6  C   UNL     1       0.145   4.237   0.058  0.00  0.00    +0.041 A 
ATOM      7  C   UNL     1      -1.101   3.607   0.087  0.00  0.00    +0.042 A 
ENDROOT
BRANCH   7   8
ATOM      8  C   UNL     1      -1.188   2.132   0.024  0.00  0.00    +0.248 C 
ATOM      9  O   UNL     1      -1.795   1.522   0.882  0.00  0.00    -0.270 OA
ATOM     10  N   UNL     1      -0.596   1.465  -0.986  0.00  0.00    -0.286 N 
ATOM     11  C   UNL     1       0.030   2.196  -2.098  0.00  0.00    +0.114 C 
ATOM     12  C   UNL     1       1.540   1.913  -2.071  0.00  0.00    +0.062 C 
ATOM     13  C   UNL     1       1.750   0.456  -1.813  0.00  0.00    -0.003 A 
ATOM     14  C   UNL     1       0.852  -0.446  -1.333  0.00  0.00    -0.012 A 
ATOM     15  C   UNL     1       1.303  -1.755  -1.175  0.00  0.00    +0.013 A 
ATOM     16  C   UNL     1       2.577  -2.075  -1.498  0.00  0.00    +0.046 A 
ATOM     17  S   UNL     1       3.221  -0.504  -2.054  0.00  0.00    -0.101 S 
ATOM     18  C   UNL     1      -0.571  -0.004  -0.995  0.00  0.00    +0.144 C 
BRANCH  18  19
ATOM     19  C   UNL     1      -1.528  -0.524  -2.037  0.00  0.00    +0.015 A 
ATOM     20  C   UNL     1      -2.363  -1.590  -1.973  0.00  0.00    +0.013 A 
ATOM     21  C   UNL     1      -3.162  -1.881  -3.062  0.00  0.00    +0.008 A 
ATOM     22  C   UNL     1      -3.080  -1.099  -4.166  0.00  0.00    +0.045 A 
ATOM     23  S   UNL     1      -1.849   0.099  -3.679  0.00  0.00    -0.099 S 
ENDBRANCH  18  19
ENDBRANCH   7   8
BRANCH   5  24
ATOM     24  S   UNL     1       1.790   6.410   0.080  0.00  0.00    +0.061 S 
ATOM     25  O   UNL     1       1.617   7.678   0.698  0.00  0.00    -0.153 OA
ATOM     26  O   UNL     1       2.739   5.460   0.545  0.00  0.00    -0.153 OA
BRANCH  24  27
ATOM     27  N   UNL     1       2.154   6.704  -1.509  0.00  0.00    -0.177 NA
ATOM     28  C   UNL     1       2.893   5.713  -2.303  0.00  0.00    +0.109 C 
ATOM     29  C   UNL     1       2.089   5.409  -3.577  0.00  0.00    +0.017 C 
ATOM     30  C   UNL     1       1.802   6.718  -4.315  0.00  0.00    +0.003 C 
ATOM     31  C   UNL     1       0.962   7.636  -3.424  0.00  0.00    +0.017 C 
ATOM     32  C   UNL     1       1.748   7.962  -2.150  0.00  0.00    +0.109 C 
ENDBRANCH  24  27
ENDBRANCH   5  24
TORSDOF 4
