REMARK  Name = ZINC01253355
REMARK  3 active torsions:
REMARK  status: ('A' for Active; 'I' for Inactive)
REMARK    1  A    between atoms: C_1  and  N_2
REMARK    2  A    between atoms: C_4  and  C_11
REMARK    3  A    between atoms: N_13  and  N_14
REMARK                            x       y       z     vdW  Elec       q    Type
REMARK                         _______ _______ _______ _____ _____    ______ ____
ROOT
ATOM      1  C   UNL     1       1.117   2.084  -0.257  0.00  0.00    +0.265 C 
ATOM      2  O   UNL     1       2.175   1.533  -0.018  0.00  0.00    -0.268 OA
ATOM      3  N   UNL     1      -0.027   1.371  -0.264  0.00  0.00    -0.202 N 
ATOM      4  H   UNL     1      -0.871   1.810  -0.458  0.00  0.00    +0.178 HD
ENDROOT
BRANCH   3   5
ATOM      5  N   UNL     1       0.002  -0.004   0.002  0.00  0.00    -0.179 NA
ATOM      6  C   UNL     1      -1.117  -0.674   0.108  0.00  0.00    +0.097 C 
ATOM      7  C   UNL     1      -2.482  -0.106   0.145  0.00  0.00    +0.010 A 
ATOM      8  C   UNL     1      -2.955   1.202   0.085  0.00  0.00    +0.011 A 
ATOM      9  C   UNL     1      -4.312   1.446   0.143  0.00  0.00    +0.001 A 
ATOM     10  C   UNL     1      -5.208   0.396   0.262  0.00  0.00    +0.001 A 
ATOM     11  C   UNL     1      -4.756  -0.907   0.314  0.00  0.00    +0.009 A 
ATOM     12  C   UNL     1      -3.389  -1.173   0.262  0.00  0.00    -0.008 A 
ATOM     13  C   UNL     1      -2.626  -2.439   0.312  0.00  0.00    -0.008 A 
ATOM     14  C   UNL     1      -1.255  -2.142   0.219  0.00  0.00    +0.010 A 
ATOM     15  C   UNL     1      -0.319  -3.174   0.244  0.00  0.00    +0.011 A 
ATOM     16  C   UNL     1      -0.742  -4.483   0.359  0.00  0.00    +0.001 A 
ATOM     17  C   UNL     1      -2.092  -4.777   0.450  0.00  0.00    +0.001 A 
ATOM     18  C   UNL     1      -3.032  -3.768   0.427  0.00  0.00    +0.009 A 
ENDBRANCH   3   5
BRANCH   1  22
ATOM     19  C   UNL     1      -0.574   6.658  -1.342  0.00  0.00    +0.149 C 
ATOM     20  N   UNL     1       0.350   5.568  -1.018  0.00  0.00    -0.349 N 
ATOM     21  C   UNL     1      -0.016   4.279  -0.818  0.00  0.00    +0.099 A 
ATOM     22  C   UNL     1       1.086   3.525  -0.536  0.00  0.00    +0.064 A 
ATOM     23  C   UNL     1       2.238   4.444  -0.560  0.00  0.00    +0.012 A 
ATOM     24  C   UNL     1       1.714   5.709  -0.873  0.00  0.00    +0.050 A 
ATOM     25  C   UNL     1       2.574   6.797  -0.973  0.00  0.00    +0.026 A 
ATOM     26  C   UNL     1       3.927   6.626  -0.770  0.00  0.00    +0.002 A 
ATOM     27  C   UNL     1       4.443   5.375  -0.467  0.00  0.00    +0.001 A 
ATOM     28  C   UNL     1       3.607   4.284  -0.364  0.00  0.00    +0.011 A 
ENDBRANCH   1  22
TORSDOF 2
