REMARK  Name = ZINC33937338
REMARK  12 active torsions:
REMARK  status: ('A' for Active; 'I' for Inactive)
REMARK    1  A    between atoms: C_1  and  C_2
REMARK    2  A    between atoms: C_2  and  C_3
REMARK    3  A    between atoms: C_2  and  C_4
REMARK    4  A    between atoms: C_4  and  C_6
REMARK    5  A    between atoms: C_4  and  N_18
REMARK    6  A    between atoms: N_10  and  C_11
REMARK    7  A    between atoms: C_11  and  C_12
REMARK    8  A    between atoms: N_18  and  C_19
REMARK    9  A    between atoms: N_18  and  C_27
REMARK   10  A    between atoms: C_19  and  C_20
REMARK   11  A    between atoms: C_20  and  C_21
REMARK   12  A    between atoms: C_27  and  C_28
REMARK                            x       y       z     vdW  Elec       q    Type
REMARK                         _______ _______ _______ _____ _____    ______ ____
ROOT
ATOM      1  N   UNL     1      -2.114  -1.884   0.190  0.00  0.00    +0.390 N 
ATOM      2  H   UNL     1      -1.752  -2.456  -0.559  0.00  0.00    -0.080 HD
ENDROOT
BRANCH   1   3
ATOM      3  C   UNL     1      -1.663  -0.498   0.008  0.00  0.00    +0.006 C 
BRANCH   3   4
ATOM      4  C   UNL     1      -1.993  -0.041  -1.389  0.00  0.00    +0.138 A 
ATOM      5  N   UNL     1      -1.526  -0.541  -2.507  0.00  0.00    -0.115 NA
ATOM      6  N   UNL     1      -2.044   0.118  -3.485  0.00  0.00    -0.023 NA
ATOM      7  N   UNL     1      -2.830   1.026  -3.020  0.00  0.00    -0.044 NA
ATOM      8  N   UNL     1      -2.829   0.956  -1.732  0.00  0.00    -0.228 N 
BRANCH   8   9
ATOM      9  C   UNL     1      -3.593   1.806  -0.815  0.00  0.00    +0.178 C 
BRANCH   9  10
ATOM     10  C   UNL     1      -2.851   3.127  -0.606  0.00  0.00    +0.140 C 
ATOM     11  C   UNL     1      -3.656   4.052   0.341  0.00  0.00    +0.035 C 
ATOM     12  C   UNL     1      -2.523   4.950   0.909  0.00  0.00    +0.031 C 
ATOM     13  C   UNL     1      -1.331   3.971   0.974  0.00  0.00    +0.160 C 
ATOM     14  O   UNL     1      -1.601   2.897   0.063  0.00  0.00    -0.375 OA
ENDBRANCH   9  10
ENDBRANCH   8   9
ENDBRANCH   3   4
BRANCH   3  16
ATOM     15  C   UNL     1       0.553  -1.381  -0.735  0.00  0.00    +0.006 C 
ATOM     16  C   UNL     1      -0.150  -0.421   0.226  0.00  0.00    -0.024 C 
ATOM     17  C   UNL     1       0.331   1.007  -0.037  0.00  0.00    +0.006 C 
ENDBRANCH   3  16
ENDBRANCH   1   3
BRANCH   1  18
ATOM     18  C   UNL     1      -3.582  -1.928   0.175  0.00  0.00    -0.073 C 
BRANCH  18  19
ATOM     19  C   UNL     1      -4.082  -1.761  -1.261  0.00  0.00    +0.016 C 
BRANCH  19  20
ATOM     20  C   UNL     1      -5.575  -1.961  -1.299  0.00  0.00    -0.049 A 
ATOM     21  C   UNL     1      -6.098  -3.225  -1.504  0.00  0.00    +0.003 A 
ATOM     22  C   UNL     1      -7.468  -3.409  -1.539  0.00  0.00    +0.000 A 
ATOM     23  C   UNL     1      -8.315  -2.329  -1.369  0.00  0.00    +0.000 A 
ATOM     24  C   UNL     1      -7.792  -1.066  -1.163  0.00  0.00    +0.000 A 
ATOM     25  C   UNL     1      -6.423  -0.883  -1.124  0.00  0.00    +0.003 A 
ENDBRANCH  19  20
ENDBRANCH  18  19
ENDBRANCH   1  18
BRANCH   1  26
ATOM     26  C   UNL     1      -1.622  -2.395   1.476  0.00  0.00    -0.037 C 
BRANCH  26  27
ATOM     27  C   UNL     1      -2.050  -3.830   1.644  0.00  0.00    +0.001 A 
ATOM     28  C   UNL     1      -1.204  -4.833   1.296  0.00  0.00    +0.017 A 
ATOM     29  C   UNL     1      -1.649  -6.215   1.471  0.00  0.00    +0.002 A 
ATOM     30  C   UNL     1      -0.819  -7.290   1.128  0.00  0.00    +0.059 A 
ATOM     31  C   UNL     1      -1.266  -8.581   1.302  0.00  0.00    +0.167 A 
ATOM     32  C   UNL     1      -2.545  -8.821   1.822  0.00  0.00    +0.168 A 
ATOM     33  C   UNL     1      -3.371  -7.766   2.163  0.00  0.00    +0.075 A 
ATOM     34  C   UNL     1      -2.935  -6.458   1.993  0.00  0.00    +0.053 A 
ATOM     35  N   UNL     1      -3.746  -5.392   2.327  0.00  0.00    -0.322 N 
ATOM     36  H   UNL     1      -4.631  -5.560   2.687  0.00  0.00    +0.169 HD
ATOM     37  C   UNL     1      -3.325  -4.126   2.167  0.00  0.00    +0.251 A 
ATOM     38  O   UNL     1      -4.067  -3.209   2.477  0.00  0.00    -0.268 OA
ATOM     39  O   UNL     1      -2.736 -10.170   1.893  0.00  0.00    -0.453 OA
ATOM     40  C   UNL     1      -1.736 -10.748   1.034  0.00  0.00    +0.466 C 
ATOM     41  O   UNL     1      -0.667  -9.783   1.052  0.00  0.00    -0.453 OA
ENDBRANCH  26  27
ENDBRANCH   1  26
TORSDOF 10
