REMARK  Name = ZINC00532093
REMARK  6 active torsions:
REMARK  status: ('A' for Active; 'I' for Inactive)
REMARK    1  A    between atoms: C_1  and  C_2
REMARK    2  A    between atoms: C_2  and  C_3
REMARK    3  A    between atoms: C_2  and  O_4
REMARK    4  A    between atoms: O_4  and  C_5
REMARK    5  A    between atoms: C_8  and  C_11
REMARK    6  A    between atoms: C_22  and  O_24
REMARK                            x       y       z     vdW  Elec       q    Type
REMARK                         _______ _______ _______ _____ _____    ______ ____
ROOT
ATOM      1  C   UNL     1      -2.167  -5.641  -2.132  0.00  0.00    +0.224 C 
ATOM      2  N   UNL     1      -3.335  -6.253  -1.474  0.00  0.00    -0.313 N 
ATOM      3  C   UNL     1      -3.100  -6.868  -0.264  0.00  0.00    +0.080 A 
ATOM      4  C   UNL     1      -1.840  -7.362   0.080  0.00  0.00    +0.068 A 
ATOM      5  C   UNL     1      -1.737  -7.977   1.400  0.00  0.00    -0.023 A 
ATOM      6  C   UNL     1      -2.888  -7.987   2.101  0.00  0.00    -0.004 A 
ATOM      7  S   UNL     1      -4.072  -7.197   1.035  0.00  0.00    -0.078 S 
ATOM      8  C   UNL     1      -2.721  -8.636   3.447  0.00  0.00    +0.043 C 
ATOM      9  C   UNL     1      -1.399  -9.427   3.338  0.00  0.00    +0.010 C 
ATOM     10  C   UNL     1      -0.649  -8.637   2.246  0.00  0.00    +0.037 C 
ATOM     11  C   UNL     1      -0.748  -7.222  -0.917  0.00  0.00    +0.220 C 
ATOM     12  N   UNL     1      -0.962  -6.437  -1.937  0.00  0.00    -0.223 NA
ATOM     13  H   UNL     1      -4.220  -6.225  -1.872  0.00  0.00    +0.149 HD
ENDROOT
BRANCH   1  17
ATOM     14  C   UNL     1      -1.538  -1.739  -0.505  0.00  0.00    +0.121 A 
ATOM     15  C   UNL     1      -0.465  -2.468  -0.997  0.00  0.00    +0.046 A 
ATOM     16  C   UNL     1      -0.671  -3.729  -1.522  0.00  0.00    +0.011 A 
ATOM     17  C   UNL     1      -1.945  -4.265  -1.558  0.00  0.00    -0.005 A 
ATOM     18  C   UNL     1      -3.017  -3.540  -1.070  0.00  0.00    +0.011 A 
ATOM     19  C   UNL     1      -2.815  -2.281  -0.538  0.00  0.00    +0.046 A 
BRANCH  14  20
ATOM     20  O   UNL     1      -1.339  -0.499   0.012  0.00  0.00    -0.489 OA
BRANCH  20  22
ATOM     21  C   UNL     1      -1.982   1.168   1.640  0.00  0.00    +0.051 C 
ATOM     22  C   UNL     1      -2.466   0.143   0.612  0.00  0.00    +0.167 C 
ATOM     23  C   UNL     1      -3.283   0.853  -0.469  0.00  0.00    +0.051 C 
ENDBRANCH  20  22
ENDBRANCH  14  20
ENDBRANCH   1  17
BRANCH  11  24
ATOM     24  O   UNL     1       0.423  -7.883  -0.773  0.00  0.00    -0.492 OA
ATOM     25  H   UNL     1       1.059  -7.716  -1.482  0.00  0.00    +0.294 HD
ENDBRANCH  11  24
TORSDOF 4
