REMARK  Name = ZINC05794992
REMARK  9 active torsions:
REMARK  status: ('A' for Active; 'I' for Inactive)
REMARK    1  A    between atoms: C_1  and  C_2
REMARK    2  A    between atoms: C_2  and  N_3
REMARK    3  A    between atoms: N_3  and  C_4
REMARK    4  A    between atoms: N_3  and  C_6
REMARK    5  A    between atoms: C_4  and  C_5
REMARK    6  A    between atoms: C_9  and  C_12
REMARK    7  A    between atoms: C_14  and  C_32
REMARK    8  A    between atoms: C_15  and  N_31
REMARK    9  A    between atoms: C_22  and  C_25
REMARK                            x       y       z     vdW  Elec       q    Type
REMARK                         _______ _______ _______ _____ _____    ______ ____
ROOT
ATOM      1  C   UNL     1      -2.261  -1.436  -5.951  0.00  0.00    +0.101 C 
ATOM      2  C   UNL     1      -2.121  -2.880  -6.340  0.00  0.00    +0.098 C 
ATOM      3  C   UNL     1      -1.281  -3.246  -7.339  0.00  0.00    +0.198 C 
ATOM      4  O   UNL     1      -0.555  -2.331  -8.004  0.00  0.00    -0.445 OA
ATOM      5  C   UNL     1      -0.930  -1.037  -8.007  0.00  0.00    +0.115 C 
ATOM      6  C   UNL     1      -1.737  -0.547  -7.053  0.00  0.00    +0.046 C 
ATOM      7  C   UNL     1      -2.118   0.808  -7.050  0.00  0.00    +0.164 C 
ATOM      8  O   UNL     1      -2.861   1.217  -6.181  0.00  0.00    -0.292 OA
ATOM      9  C   UNL     1      -1.621   1.760  -8.105  0.00  0.00    +0.088 C 
ATOM     10  C   UNL     1      -0.259   1.273  -8.610  0.00  0.00    +0.034 C 
ATOM     11  C   UNL     1      -0.419  -0.152  -9.119  0.00  0.00    +0.083 C 
ENDROOT
BRANCH   1  15
ATOM     12  C   UNL     1      -0.038  -0.713  -2.373  0.00  0.00    +0.030 A 
ATOM     13  C   UNL     1      -1.410  -0.495  -2.396  0.00  0.00    +0.023 A 
ATOM     14  C   UNL     1      -2.125  -0.729  -3.554  0.00  0.00    +0.006 A 
ATOM     15  C   UNL     1      -1.477  -1.180  -4.690  0.00  0.00    -0.034 A 
ATOM     16  C   UNL     1      -0.112  -1.398  -4.670  0.00  0.00    +0.006 A 
ATOM     17  C   UNL     1       0.610  -1.161  -3.517  0.00  0.00    +0.023 A 
BRANCH  12  18
ATOM     18  N   UNL     1       0.688  -0.476  -1.203  0.00  0.00    -0.330 N 
BRANCH  18  20
ATOM     19  C   UNL     1      -0.019   1.526   0.010  0.00  0.00    +0.024 C 
ATOM     20  C   UNL     1       0.002  -0.004   0.002  0.00  0.00    +0.102 C 
ENDBRANCH  18  20
BRANCH  18  21
ATOM     21  C   UNL     1       2.135  -0.701  -1.182  0.00  0.00    +0.102 C 
ATOM     22  C   UNL     1       2.421  -2.145  -0.763  0.00  0.00    +0.024 C 
ENDBRANCH  18  21
ENDBRANCH  12  18
ENDBRANCH   1  15
BRANCH  10  23
ATOM     23  C   UNL     1       0.214   2.164  -9.730  0.00  0.00    -0.043 A 
ATOM     24  C   UNL     1      -0.544   2.293 -10.878  0.00  0.00    +0.004 A 
ATOM     25  C   UNL     1      -0.110   3.111 -11.905  0.00  0.00    +0.000 A 
ATOM     26  C   UNL     1       1.082   3.800 -11.783  0.00  0.00    +0.000 A 
ATOM     27  C   UNL     1       1.839   3.672 -10.633  0.00  0.00    +0.000 A 
ATOM     28  C   UNL     1       1.403   2.858  -9.605  0.00  0.00    +0.004 A 
ENDBRANCH  10  23
BRANCH   3  29
ATOM     29  N   UNL     1      -1.171  -4.571  -7.678  0.00  0.00    -0.328 N 
ATOM     30  H   UNL     1      -1.691  -5.238  -7.203  0.00  0.00    +0.145 HD
ATOM     31  H   UNL     1      -0.572  -4.841  -8.392  0.00  0.00    +0.145 HD
ENDBRANCH   3  29
BRANCH   2  32
ATOM     32  C   UNL     1      -2.880  -3.879  -5.649  0.00  0.00    +0.101 C 
ATOM     33  N   UNL     1      -3.483  -4.671  -5.102  0.00  0.00    -0.191 NA
ENDBRANCH   2  32
TORSDOF 7
