REMARK  Name = ZINC40707076
REMARK  4 active torsions:
REMARK  status: ('A' for Active; 'I' for Inactive)
REMARK    1  A    between atoms: C_1  and  N_2
REMARK    2  A    between atoms: C_4  and  N_21
REMARK    3  A    between atoms: C_5  and  O_9
REMARK    4  A    between atoms: O_9  and  C_10
REMARK                            x       y       z     vdW  Elec       q    Type
REMARK                         _______ _______ _______ _____ _____    ______ ____
ROOT
ATOM      1  C   UNL     1      -0.048   1.466  -0.286  0.00  0.00    +0.127 C 
ATOM      2  N   UNL     1      -0.020   0.004  -0.194  0.00  0.00    -0.330 N 
ATOM      3  C   UNL     1      -1.210  -0.714  -0.179  0.00  0.00    +0.146 A 
ATOM      4  C   UNL     1      -1.196  -2.108  -0.086  0.00  0.00    +0.128 A 
ATOM      5  C   UNL     1      -2.418  -2.779  -0.075  0.00  0.00    +0.246 A 
ATOM      6  N   UNL     1      -3.542  -2.073  -0.152  0.00  0.00    -0.199 NA
ATOM      7  C   UNL     1      -3.512  -0.758  -0.239  0.00  0.00    +0.227 A 
ATOM      8  N   UNL     1      -2.379  -0.084  -0.247  0.00  0.00    -0.219 NA
ATOM      9  H   UNL     1       0.829  -0.463  -0.143  0.00  0.00    +0.147 HD
ENDROOT
BRANCH   4  10
ATOM     10  N   UNL     1       0.014  -2.814  -0.006  0.00  0.00    -0.351 N 
ATOM     11  H   UNL     1       0.857  -2.334  -0.015  0.00  0.00    +0.143 HD
ATOM     12  H   UNL     1       0.008  -3.782   0.059  0.00  0.00    +0.143 HD
ENDBRANCH   4  10
BRANCH   5  13
ATOM     13  O   UNL     1      -2.460  -4.132   0.014  0.00  0.00    -0.434 OA
BRANCH  13  14
ATOM     14  C   UNL     1      -3.676  -4.726   0.126  0.00  0.00    +0.156 A 
ATOM     15  C   UNL     1      -4.184  -5.035   1.367  0.00  0.00    +0.049 A 
ATOM     16  C   UNL     1      -5.429  -5.644   1.498  0.00  0.00    +0.019 A 
ATOM     17  C   UNL     1      -6.177  -5.951   0.401  0.00  0.00    +0.027 A 
ATOM     18  C   UNL     1      -5.692  -5.651  -0.883  0.00  0.00    +0.018 A 
ATOM     19  C   UNL     1      -4.429  -5.026  -1.028  0.00  0.00    +0.114 A 
ATOM     20  N   UNL     1      -3.967  -4.735  -2.247  0.00  0.00    -0.251 NA
ATOM     21  C   UNL     1      -4.662  -5.012  -3.324  0.00  0.00    +0.111 A 
ATOM     22  C   UNL     1      -5.913  -5.620  -3.252  0.00  0.00    +0.020 A 
ATOM     23  C   UNL     1      -6.439  -5.955  -2.036  0.00  0.00    +0.013 A 
ATOM     24 BR   UNL     1      -7.865  -6.779   0.607  0.00  0.00    -0.050 Br
ENDBRANCH  13  14
ENDBRANCH   5  13
TORSDOF 3
