REMARK  Name = ZINC22973629
REMARK  7 active torsions:
REMARK  status: ('A' for Active; 'I' for Inactive)
REMARK    1  A    between atoms: C_1  and  C_2
REMARK    2  A    between atoms: C_2  and  N_3
REMARK    3  A    between atoms: C_9  and  C_15
REMARK    4  A    between atoms: N_17  and  C_18
REMARK    5  A    between atoms: C_19  and  C_25
REMARK    6  A    between atoms: N_21  and  C_24
REMARK    7  A    between atoms: C_22  and  C_23
REMARK                            x       y       z     vdW  Elec       q    Type
REMARK                         _______ _______ _______ _____ _____    ______ ____
ROOT
ATOM      1  N   UNL     1      -7.343  -4.815   0.770  0.00  0.00    -0.287 N 
ATOM      2  C   UNL     1      -6.045  -5.189   0.836  0.00  0.00    +0.262 A 
ATOM      3  O   UNL     1      -5.732  -6.349   1.030  0.00  0.00    -0.267 OA
ATOM      4  C   UNL     1      -5.025  -4.142   0.664  0.00  0.00    +0.065 A 
ATOM      5  C   UNL     1      -3.662  -4.433   0.716  0.00  0.00    +0.016 A 
ATOM      6  C   UNL     1      -2.747  -3.433   0.552  0.00  0.00    +0.014 A 
ATOM      7  C   UNL     1      -3.163  -2.114   0.332  0.00  0.00    +0.039 A 
ATOM      8  C   UNL     1      -4.516  -1.801   0.282  0.00  0.00    +0.041 A 
ATOM      9  C   UNL     1      -5.462  -2.817   0.443  0.00  0.00    +0.080 A 
ATOM     10  N   UNL     1      -6.790  -2.559   0.397  0.00  0.00    -0.222 NA
ATOM     11  C   UNL     1      -7.679  -3.509   0.553  0.00  0.00    +0.183 A 
ATOM     12  S   UNL     1      -9.387  -3.082   0.479  0.00  0.00    -0.011 S 
ENDROOT
BRANCH   7  13
ATOM     13  C   UNL     1      -2.155  -1.045   0.157  0.00  0.00    +0.248 C 
ATOM     14  O   UNL     1      -2.511   0.101  -0.035  0.00  0.00    -0.270 OA
ATOM     15  N   UNL     1      -0.841  -1.342   0.210  0.00  0.00    -0.279 N 
ATOM     16  H   UNL     1      -0.517  -2.390   0.290  0.00  0.00    +0.155 HD
BRANCH  15  17
ATOM     17  C   UNL     1       0.116  -0.312   0.163  0.00  0.00    +0.077 A 
ATOM     18  C   UNL     1       0.233   0.661  -0.840  0.00  0.00    +0.081 A 
ATOM     19  N   UNL     1       1.237   1.445  -0.537  0.00  0.00    -0.175 NA
ATOM     20  N   UNL     1       1.796   1.001   0.668  0.00  0.00    -0.270 N 
ATOM     21  C   UNL     1       1.089  -0.082   1.082  0.00  0.00    +0.057 A 
ATOM     22  C   UNL     1       1.339  -0.884   2.333  0.00  0.00    +0.067 C 
ATOM     23  C   UNL     1       2.939   1.600   1.360  0.00  0.00    +0.172 C 
ATOM     24  C   UNL     1      -0.642   0.781  -2.061  0.00  0.00    +0.069 C 
ENDBRANCH  15  17
ENDBRANCH   7  13
BRANCH   1  26
ATOM     25  C   UNL     1      -8.762  -6.404  -0.431  0.00  0.00    +0.027 C 
ATOM     26  C   UNL     1      -8.398  -5.818   0.935  0.00  0.00    +0.124 C 
ENDBRANCH   1  26
TORSDOF 3
