REMARK  Name = ZINC39453874
REMARK  4 active torsions:
REMARK  status: ('A' for Active; 'I' for Inactive)
REMARK    1  A    between atoms: C_1  and  S_2
REMARK    2  A    between atoms: S_2  and  N_3
REMARK    3  A    between atoms: C_12  and  C_18
REMARK    4  A    between atoms: C_23  and  O_24
REMARK                            x       y       z     vdW  Elec       q    Type
REMARK                         _______ _______ _______ _____ _____    ______ ____
ROOT
ATOM      1  N   UNL     1       0.797  -0.386  -1.399  0.00  0.00    -0.245 N 
ATOM      2  C   UNL     1       0.060  -0.547  -2.567  0.00  0.00    +0.122 A 
ATOM      3  C   UNL     1       0.678  -0.860  -3.762  0.00  0.00    +0.083 A 
ATOM      4  C   UNL     1       2.139  -1.035  -3.805  0.00  0.00    +0.100 A 
ATOM      5  C   UNL     1       2.868  -0.867  -2.597  0.00  0.00    +0.068 A 
ATOM      6  C   UNL     1       2.135  -0.525  -1.369  0.00  0.00    +0.271 A 
ATOM      7  O   UNL     1       2.739  -0.372  -0.324  0.00  0.00    -0.266 OA
ATOM      8  C   UNL     1       4.246  -1.022  -2.598  0.00  0.00    +0.026 A 
ATOM      9  C   UNL     1       4.869  -1.343  -3.812  0.00  0.00    +0.009 A 
ATOM     10  C   UNL     1       6.273  -1.514  -3.888  0.00  0.00    -0.005 A 
ATOM     11  C   UNL     1       6.850  -1.831  -5.105  0.00  0.00    +0.009 A 
ATOM     12  C   UNL     1       6.065  -1.983  -6.243  0.00  0.00    +0.003 A 
ATOM     13  C   UNL     1       4.714  -1.823  -6.196  0.00  0.00    +0.028 A 
ATOM     14  C   UNL     1       4.080  -1.499  -4.982  0.00  0.00    +0.072 A 
ATOM     15  N   UNL     1       2.756  -1.340  -4.931  0.00  0.00    -0.245 NA
ATOM     16  N   UNL     1      -0.074  -1.002  -4.911  0.00  0.00    -0.324 N 
ATOM     17  C   UNL     1      -1.351  -0.276  -5.003  0.00  0.00    +0.171 C 
ATOM     18  C   UNL     1      -2.181  -0.607  -3.757  0.00  0.00    +0.119 C 
ATOM     19  C   UNL     1      -1.344  -0.382  -2.525  0.00  0.00    +0.185 C 
ATOM     20  O   UNL     1      -1.880  -0.056  -1.485  0.00  0.00    -0.290 OA
ATOM     21 CL   UNL     1      -1.038   1.498  -5.073  0.00  0.00    -0.101 Cl
ATOM     22  H   UNL     1       0.231  -1.565  -5.639  0.00  0.00    +0.148 HD
ENDROOT
BRANCH  10  23
ATOM     23  C   UNL     1       7.113  -1.353  -2.680  0.00  0.00    +0.024 A 
ATOM     24  C   UNL     1       8.040  -0.314  -2.604  0.00  0.00    +0.012 A 
ATOM     25  C   UNL     1       8.820  -0.169  -1.476  0.00  0.00    +0.001 A 
ATOM     26  C   UNL     1       8.687  -1.052  -0.418  0.00  0.00    +0.004 A 
ATOM     27  C   UNL     1       7.772  -2.086  -0.482  0.00  0.00    +0.046 A 
ATOM     28  C   UNL     1       6.977  -2.241  -1.607  0.00  0.00    +0.125 A 
BRANCH  28  29
ATOM     29  O   UNL     1       6.074  -3.253  -1.669  0.00  0.00    -0.506 OA
ATOM     30  H   UNL     1       6.426  -4.072  -2.043  0.00  0.00    +0.292 HD
ENDBRANCH  28  29
ENDBRANCH  10  23
BRANCH   1  32
ATOM     31  C   UNL     1      -0.022   1.810   0.012  0.00  0.00    +0.110 C 
ATOM     32  S   UNL     1       0.002  -0.004   0.002  0.00  0.00    -0.044 S 
ENDBRANCH   1  32
TORSDOF 3
