REMARK  Name = ZINC45253659
REMARK  9 active torsions:
REMARK  status: ('A' for Active; 'I' for Inactive)
REMARK    1  A    between atoms: C_1  and  C_2
REMARK    2  A    between atoms: C_2  and  C_3
REMARK    3  A    between atoms: C_2  and  N_4
REMARK    4  A    between atoms: C_12  and  N_13
REMARK    5  A    between atoms: N_13  and  C_14
REMARK    6  A    between atoms: C_14  and  C_15
REMARK    7  A    between atoms: C_18  and  C_21
REMARK    8  A    between atoms: N_27  and  C_28
REMARK    9  A    between atoms: C_31  and  N_34
REMARK                            x       y       z     vdW  Elec       q    Type
REMARK                         _______ _______ _______ _____ _____    ______ ____
ROOT
ATOM      1  N   UNL     1      -1.372  -0.511   0.012  0.00  0.00    -0.312 N 
ATOM      2  C   UNL     1      -2.313  -0.275   0.972  0.00  0.00    +0.201 A 
ATOM      3  N   UNL     1      -3.423  -0.878   0.664  0.00  0.00    -0.231 NA
ATOM      4  C   UNL     1      -3.267  -1.538  -0.510  0.00  0.00    +0.148 A 
ATOM      5  C   UNL     1      -1.952  -1.306  -0.944  0.00  0.00    +0.167 A 
ATOM      6  N   UNL     1      -1.542  -1.845  -2.088  0.00  0.00    -0.195 NA
ATOM      7  C   UNL     1      -2.362  -2.589  -2.813  0.00  0.00    +0.219 A 
ATOM      8  N   UNL     1      -3.612  -2.832  -2.442  0.00  0.00    -0.197 NA
ATOM      9  C   UNL     1      -4.101  -2.339  -1.310  0.00  0.00    +0.152 A 
ATOM     10  N   UNL     1      -1.898  -3.134  -3.999  0.00  0.00    -0.311 N 
ATOM     11  H   UNL     1      -0.986  -2.966  -4.286  0.00  0.00    +0.149 HD
ENDROOT
BRANCH  10  12
ATOM     12  C   UNL     1      -2.784  -3.962  -4.821  0.00  0.00    +0.073 C 
ATOM     13  C   UNL     1      -2.748  -5.405  -4.315  0.00  0.00    +0.021 C 
ATOM     14  C   UNL     1      -1.318  -5.942  -4.407  0.00  0.00    -0.014 C 
ATOM     15  C   UNL     1      -0.850  -5.900  -5.863  0.00  0.00    -0.075 C 
ATOM     16  C   UNL     1      -0.886  -4.456  -6.369  0.00  0.00    -0.014 C 
ATOM     17  C   UNL     1      -2.316  -3.920  -6.277  0.00  0.00    +0.021 C 
BRANCH  15  18
ATOM     18  N   UNL     1       0.523  -6.415  -5.952  0.00  0.00    +0.380 N 
ATOM     19  H   UNL     1       0.547  -7.367  -5.618  0.00  0.00    -0.090 HD
ATOM     20  H   UNL     1       0.832  -6.387  -6.912  0.00  0.00    -0.090 HD
ATOM     21  H   UNL     1       1.133  -5.845  -5.386  0.00  0.00    -0.090 HD
ENDBRANCH  15  18
ENDBRANCH  10  12
BRANCH   1  23
ATOM     22  C   UNL     1      -0.019   1.526   0.010  0.00  0.00    +0.030 C 
ATOM     23  C   UNL     1       0.002  -0.004   0.002  0.00  0.00    +0.084 C 
ATOM     24  C   UNL     1       0.742  -0.511   1.242  0.00  0.00    +0.030 C 
ENDBRANCH   1  23
BRANCH   9  25
ATOM     25  N   UNL     1      -5.407  -2.596  -0.932  0.00  0.00    -0.322 N 
ATOM     26  H   UNL     1      -5.757  -2.222  -0.108  0.00  0.00    +0.148 HD
BRANCH  25  27
ATOM     27  C   UNL     1      -6.263  -3.433  -1.778  0.00  0.00    +0.158 C 
BRANCH  27  28
ATOM     28  C   UNL     1      -7.626  -3.556  -1.147  0.00  0.00    +0.058 A 
ATOM     29  C   UNL     1      -8.639  -2.701  -1.542  0.00  0.00    +0.025 A 
ATOM     30  C   UNL     1      -9.889  -2.818  -0.960  0.00  0.00    +0.012 A 
ATOM     31  C   UNL     1     -10.078  -3.805   0.012  0.00  0.00    +0.000 A 
ATOM     32  C   UNL     1      -9.007  -4.626   0.355  0.00  0.00    +0.119 A 
ATOM     33  N   UNL     1      -7.835  -4.481  -0.231  0.00  0.00    -0.258 NA
BRANCH  31  34
ATOM     34  C   UNL     1     -11.398  -3.973   0.668  0.00  0.00    -0.016 A 
ATOM     35  C   UNL     1     -12.465  -3.150   0.315  0.00  0.00    +0.008 A 
ATOM     36  C   UNL     1     -13.691  -3.311   0.929  0.00  0.00    +0.001 A 
ATOM     37  C   UNL     1     -13.861  -4.287   1.893  0.00  0.00    +0.000 A 
ATOM     38  C   UNL     1     -12.805  -5.107   2.249  0.00  0.00    +0.001 A 
ATOM     39  C   UNL     1     -11.577  -4.959   1.637  0.00  0.00    +0.008 A 
ENDBRANCH  31  34
ENDBRANCH  27  28
ENDBRANCH  25  27
ENDBRANCH   9  25
TORSDOF 7
