REMARK  Name = ZINC66730886
REMARK  7 active torsions:
REMARK  status: ('A' for Active; 'I' for Inactive)
REMARK    1  A    between atoms: C_1  and  C_2
REMARK    2  A    between atoms: C_4  and  N_9
REMARK    3  A    between atoms: C_6  and  C_8
REMARK    4  A    between atoms: C_13  and  O_16
REMARK    5  A    between atoms: O_16  and  C_17
REMARK    6  A    between atoms: C_17  and  C_19
REMARK    7  A    between atoms: C_20  and  C_30
REMARK                            x       y       z     vdW  Elec       q    Type
REMARK                         _______ _______ _______ _____ _____    ______ ____
ROOT
ATOM      1  N   UNL     1       0.030  -2.832  -2.322  0.00  0.00    -0.312 N 
ATOM      2  C   UNL     1       0.044  -4.300  -2.279  0.00  0.00    +0.107 C 
ATOM      3  C   UNL     1       1.214  -4.807  -3.129  0.00  0.00    +0.023 C 
ATOM      4  C   UNL     1       1.108  -4.220  -4.538  0.00  0.00    +0.048 C 
ATOM      5  C   UNL     1       1.190  -2.693  -4.464  0.00  0.00    +0.194 C 
ATOM      6  C   UNL     1       0.014  -2.163  -3.630  0.00  0.00    +0.151 C 
ENDROOT
BRANCH   1  10
ATOM      7  C   UNL     1      -0.452   1.464   0.034  0.00  0.00    +0.063 C 
ATOM      8  C   UNL     1      -0.204  -0.023   0.013  0.00  0.00    +0.017 A 
ATOM      9  C   UNL     1      -0.210  -0.716  -1.181  0.00  0.00    +0.064 A 
ATOM     10  C   UNL     1       0.026  -2.092  -1.150  0.00  0.00    +0.125 A 
ATOM     11  N   UNL     1       0.245  -2.681   0.022  0.00  0.00    -0.220 NA
ATOM     12  C   UNL     1       0.241  -1.980   1.137  0.00  0.00    +0.106 A 
ATOM     13  N   UNL     1       0.028  -0.680   1.141  0.00  0.00    -0.347 N 
ATOM     14  C   UNL     1       0.495  -2.684   2.445  0.00  0.00    +0.086 C 
ATOM     15  H   UNL     1       0.036  -0.197   1.982  0.00  0.00    +0.167 HD
ENDBRANCH   1  10
BRANCH   5  16
ATOM     16  O   UNL     1       1.122  -2.147  -5.783  0.00  0.00    -0.455 OA
BRANCH  16  17
ATOM     17  C   UNL     1       2.290  -1.974  -6.434  0.00  0.00    +0.356 C 
ATOM     18  O   UNL     1       3.337  -2.277  -5.897  0.00  0.00    -0.243 OA
BRANCH  17  19
ATOM     19  C   UNL     1       2.297  -1.418  -7.792  0.00  0.00    +0.128 A 
ATOM     20  C   UNL     1       3.407  -1.198  -8.560  0.00  0.00    -0.008 A 
ATOM     21  C   UNL     1       2.956  -0.663  -9.772  0.00  0.00    +0.042 A 
ATOM     22  C   UNL     1       1.565  -0.571  -9.703  0.00  0.00    +0.027 A 
ATOM     23  N   UNL     1       1.182  -1.034  -8.514  0.00  0.00    -0.352 N 
ATOM     24  H   UNL     1       0.265  -1.090  -8.202  0.00  0.00    +0.166 HD
ATOM     25  C   UNL     1       0.724  -0.030 -10.832  0.00  0.00    +0.054 C 
ATOM     26  C   UNL     1       1.602   0.822 -11.753  0.00  0.00    +0.014 C 
ATOM     27  C   UNL     1       2.841   0.038 -12.196  0.00  0.00    +0.080 C 
ATOM     28  C   UNL     1       3.698  -0.241 -10.970  0.00  0.00    +0.165 C 
ATOM     29  O   UNL     1       4.906  -0.123 -10.979  0.00  0.00    -0.292 OA
ATOM     30  C   UNL     1       4.838  -1.476  -8.176  0.00  0.00    +0.047 C 
ENDBRANCH  17  19
ENDBRANCH  16  17
ENDBRANCH   5  16
TORSDOF 4
