REMARK  Name = ZINC15953517
REMARK  7 active torsions:
REMARK  status: ('A' for Active; 'I' for Inactive)
REMARK    1  A    between atoms: C_1  and  O_2
REMARK    2  A    between atoms: O_2  and  C_3
REMARK    3  A    between atoms: C_6  and  C_9
REMARK    4  A    between atoms: C_17  and  O_29
REMARK    5  A    between atoms: C_20  and  C_21
REMARK    6  A    between atoms: C_20  and  N_59
REMARK    7  A    between atoms: C_22  and  C_23
REMARK                            x       y       z     vdW  Elec       q    Type
REMARK                         _______ _______ _______ _____ _____    ______ ____
ROOT
ATOM      1  C   UNL     1      -0.748   1.597  -1.235  0.00  0.00    -0.031 C 
ATOM      2  C   UNL     1      -0.013   1.086   0.008  0.00  0.00    +0.011 C 
ATOM      3  C   UNL     1       1.422   1.619  -0.003  0.00  0.00    +0.005 C 
ATOM      4  C   UNL     1       2.157   1.138   1.249  0.00  0.00    +0.000 C 
ATOM      5  C   UNL     1       1.435   1.658   2.494  0.00  0.00    +0.003 C 
ATOM      6  C   UNL     1       0.002   1.122   2.510  0.00  0.00    +0.035 C 
ATOM      7  C   UNL     1      -0.733   1.583   1.264  0.00  0.00    +0.066 C 
ATOM      8  C   UNL     1      -0.788   3.112   1.240  0.00  0.00    +0.016 C 
ATOM      9  C   UNL     1      -1.503   3.570  -0.033  0.00  0.00    -0.075 C 
ATOM     10  N   UNL     1      -0.754   3.077  -1.211  0.00  0.00    +0.387 N 
ATOM     11  H   UNL     1       0.215   3.412  -1.152  0.00  0.00    -0.080 HD
ENDROOT
BRANCH   1  15
ATOM     12  C   UNL     1       1.285   0.253  -4.746  0.00  0.00    +0.120 A 
ATOM     13  C   UNL     1       0.150  -0.410  -4.304  0.00  0.00    +0.046 A 
ATOM     14  C   UNL     1      -0.505   0.026  -3.168  0.00  0.00    +0.005 A 
ATOM     15  C   UNL     1      -0.031   1.123  -2.473  0.00  0.00    -0.060 A 
ATOM     16  C   UNL     1       1.097   1.789  -2.915  0.00  0.00    +0.005 A 
ATOM     17  C   UNL     1       1.760   1.353  -4.046  0.00  0.00    +0.046 A 
BRANCH  12  19
ATOM     18  C   UNL     1       3.094   0.556  -6.258  0.00  0.00    +0.277 C 
ATOM     19  O   UNL     1       1.932  -0.174  -5.862  0.00  0.00    -0.495 OA
ENDBRANCH  12  19
ENDBRANCH   1  15
BRANCH   7  20
ATOM     20  O   UNL     1      -2.064   1.063   1.286  0.00  0.00    -0.388 OA
ATOM     21  H   UNL     1      -2.581   1.338   2.055  0.00  0.00    +0.210 HD
ENDBRANCH   7  20
BRANCH  10  22
ATOM     22  C   UNL     1      -1.366   3.597  -2.450  0.00  0.00    -0.050 C 
BRANCH  22  23
ATOM     23  C   UNL     1      -2.762   3.057  -2.623  0.00  0.00    -0.045 C 
ATOM     24  C   UNL     1      -3.780   3.890  -2.786  0.00  0.00    +0.002 C 
BRANCH  24  25
ATOM     25  C   UNL     1      -5.149   3.360  -2.955  0.00  0.00    -0.025 A 
ATOM     26  C   UNL     1      -5.373   1.983  -2.950  0.00  0.00    +0.008 A 
ATOM     27  C   UNL     1      -6.655   1.495  -3.102  0.00  0.00    +0.001 A 
ATOM     28  C   UNL     1      -7.715   2.368  -3.273  0.00  0.00    +0.000 A 
ATOM     29  C   UNL     1      -7.498   3.734  -3.285  0.00  0.00    +0.001 A 
ATOM     30  C   UNL     1      -6.223   4.235  -3.127  0.00  0.00    +0.008 A 
ENDBRANCH  24  25
ENDBRANCH  22  23
ENDBRANCH  10  22
TORSDOF 6
