REMARK  Name = ZINC37034356
REMARK  3 active torsions:
REMARK  status: ('A' for Active; 'I' for Inactive)
REMARK    1  A    between atoms: C_2  and  C_9
REMARK    2  A    between atoms: C_9  and  C_11
REMARK    3  A    between atoms: C_9  and  N_22
REMARK                            x       y       z     vdW  Elec       q    Type
REMARK                         _______ _______ _______ _____ _____    ______ ____
ROOT
ATOM      1  C   UNL     1       1.150   3.594   0.010  0.00  0.00    -0.012 C 
ENDROOT
BRANCH   1   2
ATOM      2  C   UNL     1       1.403   4.093   1.409  0.00  0.00    -0.040 A 
ATOM      3  C   UNL     1       2.662   4.540   1.766  0.00  0.00    +0.052 A 
ATOM      4  C   UNL     1       2.897   5.000   3.052  0.00  0.00    +0.162 A 
ATOM      5  C   UNL     1       1.864   5.013   3.982  0.00  0.00    +0.163 A 
ATOM      6  C   UNL     1       0.604   4.562   3.620  0.00  0.00    +0.065 A 
ATOM      7  C   UNL     1       0.374   4.108   2.333  0.00  0.00    +0.023 A 
ATOM      8 BR   UNL     1      -1.347   3.501   1.839  0.00  0.00    -0.050 Br
ATOM      9  O   UNL     1       2.071   5.468   5.248  0.00  0.00    -0.485 OA
ATOM     10  C   UNL     1       3.432   5.563   5.683  0.00  0.00    +0.270 C 
ATOM     11  C   UNL     1       4.247   6.237   4.570  0.00  0.00    +0.270 C 
ATOM     12  O   UNL     1       4.143   5.434   3.389  0.00  0.00    -0.485 OA
ENDBRANCH   1   2
BRANCH   1  14
ATOM     13  C   UNL     1      -0.017   1.380   0.010  0.00  0.00    +0.040 A 
ATOM     14  C   UNL     1       1.171   2.087   0.002  0.00  0.00    -0.054 A 
ATOM     15  C   UNL     1       2.377   1.413  -0.013  0.00  0.00    +0.017 A 
ATOM     16  C   UNL     1       2.398   0.030  -0.021  0.00  0.00    +0.021 A 
ATOM     17  C   UNL     1       1.211  -0.679  -0.014  0.00  0.00    +0.053 A 
ATOM     18  C   UNL     1       0.002  -0.004   0.002  0.00  0.00    +0.125 A 
ATOM     19  F   UNL     1      -1.158  -0.696   0.009  0.00  0.00    -0.205 F 
ATOM     20 BR   UNL     1       4.049  -0.891  -0.043  0.00  0.00    -0.050 Br
ENDBRANCH   1  14
BRANCH   1  21
ATOM     21  N   UNL     1       2.196   4.103  -0.888  0.00  0.00    +0.385 N 
ATOM     22  H   UNL     1       2.027   3.769  -1.825  0.00  0.00    -0.089 HD
ATOM     23  H   UNL     1       2.182   5.112  -0.882  0.00  0.00    -0.089 HD
ATOM     24  H   UNL     1       3.097   3.777  -0.572  0.00  0.00    -0.089 HD
ENDBRANCH   1  21
TORSDOF 3
