REMARK  Name = ZINC39949610
REMARK  11 active torsions:
REMARK  status: ('A' for Active; 'I' for Inactive)
REMARK    1  A    between atoms: C_1  and  O_2
REMARK    2  A    between atoms: O_2  and  C_3
REMARK    3  A    between atoms: C_6  and  C_9
REMARK    4  A    between atoms: C_10  and  C_11
REMARK    5  A    between atoms: N_13  and  C_14
REMARK    6  A    between atoms: C_14  and  C_25
REMARK    7  A    between atoms: C_15  and  C_16
REMARK    8  A    between atoms: C_20  and  N_22
REMARK    9  A    between atoms: N_27  and  C_28
REMARK   10  A    between atoms: C_28  and  C_29
REMARK   11  A    between atoms: C_29  and  C_30
REMARK                            x       y       z     vdW  Elec       q    Type
REMARK                         _______ _______ _______ _____ _____    ______ ____
ROOT
ATOM      1  C   UNL     1      -7.739  -6.501  -0.420  0.00  0.00    +0.097 C 
ATOM      2  C   UNL     1      -8.802  -5.751  -0.050  0.00  0.00    +0.036 C 
ENDROOT
BRANCH   2   3
ATOM      3  C   UNL     1      -8.743  -4.285  -0.163  0.00  0.00    -0.021 A 
ATOM      4  C   UNL     1      -7.772  -3.680  -0.967  0.00  0.00    +0.008 A 
ATOM      5  C   UNL     1      -7.723  -2.306  -1.068  0.00  0.00    +0.003 A 
ATOM      6  C   UNL     1      -8.633  -1.526  -0.376  0.00  0.00    +0.033 A 
ATOM      7  C   UNL     1      -9.597  -2.116   0.422  0.00  0.00    +0.127 A 
ATOM      8  C   UNL     1      -9.662  -3.490   0.529  0.00  0.00    +0.040 A 
BRANCH   7   9
ATOM      9  N   UNL     1     -10.565  -1.272   1.159  0.00  0.00    +0.056 N 
ATOM     10  O   UNL     1     -10.512  -0.068   1.062  0.00  0.00    -0.126 OA
ATOM     11  O   UNL     1     -11.407  -1.786   1.856  0.00  0.00    -0.126 OA
ENDBRANCH   7   9
ENDBRANCH   2   3
BRANCH   1  14
ATOM     12  C   UNL     1      -5.956  -6.137  -1.951  0.00  0.00    +0.241 C 
ATOM     13  O   UNL     1      -6.529  -6.836  -2.767  0.00  0.00    -0.270 OA
ATOM     14  N   UNL     1      -6.532  -5.883  -0.759  0.00  0.00    -0.278 N 
ATOM     15  H   UNL     1      -6.109  -5.272  -0.136  0.00  0.00    +0.155 HD
BRANCH  12  17
ATOM     16  C   UNL     1      -4.082  -5.800  -3.470  0.00  0.00    +0.013 C 
ATOM     17  C   UNL     1      -4.644  -5.572  -2.264  0.00  0.00    +0.068 C 
BRANCH  16  21
ATOM     18  C   UNL     1      -0.139  -4.452  -4.259  0.00  0.00    +0.120 A 
ATOM     19  C   UNL     1      -0.850  -5.128  -5.244  0.00  0.00    +0.046 A 
ATOM     20  C   UNL     1      -2.130  -5.567  -4.993  0.00  0.00    +0.011 A 
ATOM     21  C   UNL     1      -2.715  -5.333  -3.744  0.00  0.00    -0.025 A 
ATOM     22  C   UNL     1      -1.995  -4.652  -2.755  0.00  0.00    +0.011 A 
ATOM     23  C   UNL     1      -0.713  -4.222  -3.015  0.00  0.00    +0.046 A 
BRANCH  18  25
ATOM     24  C   UNL     1       1.653  -4.291  -5.811  0.00  0.00    +0.277 C 
ATOM     25  O   UNL     1       1.124  -4.021  -4.512  0.00  0.00    -0.495 OA
ENDBRANCH  18  25
ENDBRANCH  16  21
ENDBRANCH  12  17
ENDBRANCH   1  14
BRANCH   1  26
ATOM     26  C   UNL     1      -7.854  -7.966  -0.467  0.00  0.00    +0.258 C 
ATOM     27  O   UNL     1      -6.898  -8.641  -0.800  0.00  0.00    -0.269 OA
ATOM     28  N   UNL     1      -9.018  -8.562  -0.141  0.00  0.00    -0.310 N 
ATOM     29  H   UNL     1      -9.780  -8.024   0.125  0.00  0.00    +0.149 HD
BRANCH  28  30
ATOM     30  C   UNL     1      -9.132 -10.022  -0.187  0.00  0.00    +0.112 C 
BRANCH  30  31
ATOM     31  C   UNL     1     -10.545 -10.436   0.227  0.00  0.00    +0.094 C 
BRANCH  31  32
ATOM     32  C   UNL     1     -10.663 -11.938   0.179  0.00  0.00    +0.127 C 
ATOM     33  N   UNL     1      -9.680 -12.723  -0.164  0.00  0.00    -0.256 NA
ATOM     34  C   UNL     1     -10.179 -14.087  -0.016  0.00  0.00    +0.178 C 
ATOM     35  C   UNL     1     -10.082 -14.928  -1.256  0.00  0.00    +0.006 C 
ATOM     36  C   UNL     1     -11.077 -15.774  -1.545  0.00  0.00    -0.002 C 
ATOM     37  C   UNL     1     -12.255 -15.890  -0.770  0.00  0.00    +0.002 C 
ATOM     38  C   UNL     1     -12.591 -14.919   0.136  0.00  0.00    +0.026 C 
ATOM     39  C   UNL     1     -11.654 -13.877   0.286  0.00  0.00    +0.072 C 
ATOM     40  N   UNL     1     -11.786 -12.599   0.489  0.00  0.00    -0.235 NA
ENDBRANCH  31  32
ENDBRANCH  30  31
ENDBRANCH  28  30
ENDBRANCH   1  26
TORSDOF 10
