REMARK  Name = ZINC64741747
REMARK  8 active torsions:
REMARK  status: ('A' for Active; 'I' for Inactive)
REMARK    1  A    between atoms: C_1  and  C_2
REMARK    2  A    between atoms: C_2  and  C_4
REMARK    3  A    between atoms: C_2  and  N_16
REMARK    4  A    between atoms: N_6  and  C_7
REMARK    5  A    between atoms: N_16  and  C_17
REMARK    6  A    between atoms: C_17  and  C_18
REMARK    7  A    between atoms: C_18  and  C_20
REMARK    8  A    between atoms: C_18  and  C_26
REMARK                            x       y       z     vdW  Elec       q    Type
REMARK                         _______ _______ _______ _____ _____    ______ ____
ROOT
ATOM      1  N   UNL     1       1.022  -0.056   1.222  0.00  0.00    +0.387 N 
ATOM      2  H   UNL     1       0.663   0.253   2.112  0.00  0.00    -0.085 HD
ATOM      3  H   UNL     1       0.919  -1.056   1.145  0.00  0.00    -0.085 HD
ENDROOT
BRANCH   1   5
ATOM      4  C   UNL     1       0.327   2.115   0.326  0.00  0.00    -0.004 C 
ATOM      5  C   UNL     1       0.274   0.598   0.139  0.00  0.00    +0.013 C 
BRANCH   5   6
ATOM      6  C   UNL     1      -1.160   0.137   0.171  0.00  0.00    +0.203 C 
ATOM      7  O   UNL     1      -1.524  -0.657   1.012  0.00  0.00    -0.277 OA
ATOM      8  N   UNL     1      -2.039   0.608  -0.736  0.00  0.00    -0.287 N 
ATOM      9  H   UNL     1      -1.767   1.296  -1.363  0.00  0.00    +0.155 HD
BRANCH   8  10
ATOM     10  C   UNL     1      -3.346   0.104  -0.772  0.00  0.00    +0.037 A 
ATOM     11  C   UNL     1      -4.001  -0.041  -1.988  0.00  0.00    +0.027 A 
ATOM     12  C   UNL     1      -5.289  -0.538  -2.025  0.00  0.00    +0.051 A 
ATOM     13  C   UNL     1      -5.932  -0.894  -0.850  0.00  0.00    +0.166 A 
ATOM     14  C   UNL     1      -5.277  -0.750   0.371  0.00  0.00    +0.168 A 
ATOM     15  C   UNL     1      -3.984  -0.257   0.407  0.00  0.00    +0.072 A 
ATOM     16  O   UNL     1      -6.115  -1.165   1.366  0.00  0.00    -0.453 OA
ATOM     17  C   UNL     1      -7.430  -1.178   0.781  0.00  0.00    +0.466 C 
ATOM     18  O   UNL     1      -7.180  -1.399  -0.619  0.00  0.00    -0.453 OA
ENDBRANCH   8  10
ENDBRANCH   5   6
ENDBRANCH   1   5
BRANCH   1  19
ATOM     19  C   UNL     1       2.444   0.300   1.118  0.00  0.00    -0.073 C 
BRANCH  19  20
ATOM     20  C   UNL     1       3.242  -0.480   2.165  0.00  0.00    +0.014 C 
BRANCH  20  21
ATOM     21  C   UNL     1       3.122  -1.957   1.890  0.00  0.00    -0.039 C 
ATOM     22  C   UNL     1       2.609  -2.899   2.715  0.00  0.00    -0.001 A 
ATOM     23  C   UNL     1       2.031  -2.832   4.062  0.00  0.00    +0.010 A 
ATOM     24  C   UNL     1       1.592  -3.971   4.645  0.00  0.00    +0.001 A 
ATOM     25  C   UNL     1       1.675  -5.210   3.995  0.00  0.00    +0.002 A 
ATOM     26  C   UNL     1       2.193  -5.351   2.757  0.00  0.00    +0.026 A 
ATOM     27  C   UNL     1       2.684  -4.219   2.050  0.00  0.00    +0.043 A 
ATOM     28  N   UNL     1       3.224  -4.099   0.861  0.00  0.00    -0.380 N 
ATOM     29  C   UNL     1       3.546  -2.686   0.634  0.00  0.00    +0.145 C 
ATOM     30  H   UNL     1       3.380  -4.823   0.234  0.00  0.00    +0.160 HD
ENDBRANCH  20  21
BRANCH  20  31
ATOM     31  C   UNL     1       4.713  -0.067   2.097  0.00  0.00    +0.060 C 
ATOM     32  C   UNL     1       5.532  -0.683   3.262  0.00  0.00    +0.042 C 
ATOM     33  C   UNL     1       6.538   0.295   3.777  0.00  0.00    -0.019 C 
ATOM     34  C   UNL     1       6.404   1.579   3.506  0.00  0.00    +0.036 C 
ATOM     35  S   UNL     1       4.933   1.717   2.505  0.00  0.00    -0.129 S 
ENDBRANCH  20  31
ENDBRANCH  19  20
ENDBRANCH   1  19
TORSDOF 7
