REMARK  Name = ZINC13064409
REMARK  9 active torsions:
REMARK  status: ('A' for Active; 'I' for Inactive)
REMARK    1  A    between atoms: C_1  and  C_2
REMARK    2  A    between atoms: C_2  and  C_3
REMARK    3  A    between atoms: C_3  and  C_5
REMARK    4  A    between atoms: C_3  and  N_72
REMARK    5  A    between atoms: N_9  and  C_10
REMARK    6  A    between atoms: C_16  and  C_17
REMARK    7  A    between atoms: C_16  and  N_72
REMARK    8  A    between atoms: C_24  and  C_25
REMARK    9  A    between atoms: C_24  and  N_72
REMARK                            x       y       z     vdW  Elec       q    Type
REMARK                         _______ _______ _______ _____ _____    ______ ____
ROOT
ATOM      1  N   UNL     1       0.133  -1.101   1.752  0.00  0.00    +0.392 N 
ATOM      2  H   UNL     1      -0.519  -1.009   2.540  0.00  0.00    -0.080 HD
ENDROOT
BRANCH   1   3
ATOM      3  C   UNL     1       0.030  -2.469   1.201  0.00  0.00    +0.003 C 
BRANCH   3   4
ATOM      4  C   UNL     1      -1.408  -2.914   1.282  0.00  0.00    +0.138 A 
ATOM      5  N   UNL     1      -2.460  -2.230   0.904  0.00  0.00    -0.115 NA
ATOM      6  N   UNL     1      -3.505  -2.949   1.134  0.00  0.00    -0.023 NA
ATOM      7  N   UNL     1      -3.146  -4.074   1.647  0.00  0.00    -0.044 NA
ATOM      8  N   UNL     1      -1.859  -4.092   1.749  0.00  0.00    -0.228 N 
BRANCH   8   9
ATOM      9  C   UNL     1      -1.044  -5.189   2.278  0.00  0.00    +0.111 C 
ATOM     10  C   UNL     1      -1.175  -6.409   1.364  0.00  0.00    +0.027 C 
ATOM     11  C   UNL     1      -0.324  -7.553   1.917  0.00  0.00    +0.002 C 
ATOM     12  C   UNL     1      -0.807  -7.915   3.323  0.00  0.00    +0.000 C 
ATOM     13  C   UNL     1      -0.676  -6.696   4.237  0.00  0.00    +0.002 C 
ATOM     14  C   UNL     1      -1.527  -5.551   3.684  0.00  0.00    +0.027 C 
ENDBRANCH   8   9
ENDBRANCH   3   4
BRANCH   3  16
ATOM     15  C   UNL     1       1.989  -2.191  -0.325  0.00  0.00    +0.002 C 
ATOM     16  C   UNL     1       0.490  -2.494  -0.258  0.00  0.00    -0.011 C 
ENDBRANCH   3  16
ENDBRANCH   1   3
BRANCH   1  17
ATOM     17  C   UNL     1       1.508  -0.853   2.235  0.00  0.00    -0.042 C 
BRANCH  17  18
ATOM     18  C   UNL     1       1.707  -1.599   3.529  0.00  0.00    -0.064 A 
ATOM     19  C   UNL     1       1.290  -1.037   4.721  0.00  0.00    +0.004 A 
ATOM     20  C   UNL     1       1.469  -1.722   5.908  0.00  0.00    +0.038 A 
ATOM     21  C   UNL     1       2.075  -2.967   5.904  0.00  0.00    +0.123 A 
ATOM     22  C   UNL     1       2.498  -3.526   4.710  0.00  0.00    +0.038 A 
ATOM     23  C   UNL     1       2.313  -2.842   3.524  0.00  0.00    +0.004 A 
ATOM     24  F   UNL     1       2.255  -3.635   7.064  0.00  0.00    -0.205 F 
ENDBRANCH  17  18
ENDBRANCH   1  17
BRANCH   1  25
ATOM     25  C   UNL     1      -0.225  -0.111   0.714  0.00  0.00    -0.036 C 
BRANCH  25  26
ATOM     26  C   UNL     1      -0.473   1.218   1.379  0.00  0.00    +0.001 A 
ATOM     27  C   UNL     1       0.522   2.138   1.445  0.00  0.00    +0.017 A 
ATOM     28  C   UNL     1       0.250   3.418   2.097  0.00  0.00    +0.002 A 
ATOM     29  C   UNL     1       1.238   4.405   2.195  0.00  0.00    +0.059 A 
ATOM     30  C   UNL     1       0.953   5.601   2.818  0.00  0.00    +0.163 A 
ATOM     31  C   UNL     1      -0.319   5.833   3.349  0.00  0.00    +0.164 A 
ATOM     32  C   UNL     1      -1.304   4.864   3.255  0.00  0.00    +0.075 A 
ATOM     33  C   UNL     1      -1.032   3.653   2.632  0.00  0.00    +0.053 A 
ATOM     34  N   UNL     1      -2.001   2.675   2.532  0.00  0.00    -0.322 N 
ATOM     35  H   UNL     1      -2.883   2.837   2.900  0.00  0.00    +0.169 HD
ATOM     36  C   UNL     1      -1.741   1.503   1.926  0.00  0.00    +0.251 A 
ATOM     37  O   UNL     1      -2.623   0.664   1.852  0.00  0.00    -0.268 OA
ATOM     38  O   UNL     1      -0.610   7.012   3.962  0.00  0.00    -0.485 OA
ATOM     39  C   UNL     1       0.501   7.816   4.372  0.00  0.00    +0.270 C 
ATOM     40  C   UNL     1       1.502   7.882   3.211  0.00  0.00    +0.270 C 
ATOM     41  O   UNL     1       1.927   6.549   2.910  0.00  0.00    -0.485 OA
ENDBRANCH  25  26
ENDBRANCH   1  25
TORSDOF 8
