REMARK  Name = ZINC54751847
REMARK  3 active torsions:
REMARK  status: ('A' for Active; 'I' for Inactive)
REMARK    1  A    between atoms: C_1  and  C_2
REMARK    2  A    between atoms: C_5  and  C_7
REMARK    3  A    between atoms: C_16  and  C_18
REMARK                            x       y       z     vdW  Elec       q    Type
REMARK                         _______ _______ _______ _____ _____    ______ ____
ROOT
ATOM      1  C   UNL     1       1.040  -4.033  -0.024  0.00  0.00    +0.010 A 
ATOM      2  C   UNL     1       0.586  -4.954   0.864  0.00  0.00    +0.057 A 
ATOM      3  S   UNL     1       1.511  -6.420   0.449  0.00  0.00    -0.076 S 
ATOM      4  C   UNL     1       2.476  -5.772  -0.892  0.00  0.00    +0.116 A 
ATOM      5  C   UNL     1       2.054  -4.434  -0.992  0.00  0.00    +0.080 A 
ATOM      6  C   UNL     1       2.680  -3.658  -2.019  0.00  0.00    +0.261 A 
ATOM      7  O   UNL     1       2.381  -2.487  -2.177  0.00  0.00    -0.267 OA
ATOM      8  N   UNL     1       3.603  -4.238  -2.808  0.00  0.00    -0.305 N 
ATOM      9  H   UNL     1       4.030  -3.717  -3.505  0.00  0.00    +0.170 HD
ATOM     10  C   UNL     1       3.950  -5.551  -2.643  0.00  0.00    +0.162 A 
ATOM     11  N   UNL     1       3.397  -6.282  -1.700  0.00  0.00    -0.220 NA
ENDROOT
BRANCH   1  16
ATOM     12  C   UNL     1      -0.018   1.503   0.010  0.00  0.00    +0.051 C 
ATOM     13  C   UNL     1       0.002  -0.004   0.002  0.00  0.00    -0.013 A 
ATOM     14  C   UNL     1      -1.042  -0.871   0.002  0.00  0.00    +0.011 A 
ATOM     15  C   UNL     1      -0.789  -2.227  -0.007  0.00  0.00    +0.016 A 
ATOM     16  C   UNL     1       0.512  -2.653  -0.015  0.00  0.00    +0.021 A 
ATOM     17  S   UNL     1       1.406  -1.107  -0.018  0.00  0.00    -0.093 S 
ENDBRANCH   1  16
BRANCH  10  18
ATOM     18  C   UNL     1       4.969  -6.153  -3.530  0.00  0.00    +0.124 A 
ATOM     19  C   UNL     1       5.328  -7.494  -3.375  0.00  0.00    +0.142 A 
ATOM     20  N   UNL     1       6.237  -8.026  -4.170  0.00  0.00    -0.260 NA
ATOM     21  C   UNL     1       6.808  -7.291  -5.110  0.00  0.00    +0.130 A 
ATOM     22  C   UNL     1       6.455  -5.960  -5.266  0.00  0.00    +0.131 A 
ATOM     23  N   UNL     1       5.543  -5.420  -4.481  0.00  0.00    -0.249 NA
ENDBRANCH  10  18
TORSDOF 2
