REMARK  Name = ZINC12886288
REMARK  6 active torsions:
REMARK  status: ('A' for Active; 'I' for Inactive)
REMARK    1  A    between atoms: C_1  and  C_2
REMARK    2  A    between atoms: C_18  and  C_20
REMARK    3  A    between atoms: C_20  and  N_69
REMARK    4  A    between atoms: C_23  and  C_26
REMARK    5  A    between atoms: C_23  and  O_33
REMARK    6  A    between atoms: C_26  and  C_27
REMARK                            x       y       z     vdW  Elec       q    Type
REMARK                         _______ _______ _______ _____ _____    ______ ____
ROOT
ATOM      1  C   UNL     1       2.055  -6.116  -6.657  0.00  0.00    +0.011 C 
ATOM      2  C   UNL     1       1.353  -6.531  -5.362  0.00  0.00    -0.023 C 
ATOM      3  C   UNL     1       1.129  -8.041  -5.370  0.00  0.00    +0.007 C 
ATOM      4  C   UNL     1       0.356  -8.439  -6.630  0.00  0.00    +0.003 C 
ATOM      5  C   UNL     1      -1.022  -7.771  -6.621  0.00  0.00    +0.037 C 
ATOM      6  C   UNL     1      -0.849  -6.259  -6.472  0.00  0.00    +0.096 C 
ATOM      7  C   UNL     1      -0.004  -5.819  -5.270  0.00  0.00    +0.030 C 
ATOM      8  C   UNL     1      -0.697  -6.288  -3.989  0.00  0.00    +0.014 C 
ATOM      9  C   UNL     1       0.127  -5.994  -2.762  0.00  0.00    +0.042 C 
ATOM     10  C   UNL     1       1.580  -6.510  -2.846  0.00  0.00    +0.181 C 
ATOM     11  C   UNL     1       2.230  -6.130  -4.177  0.00  0.00    +0.052 C 
ATOM     12  O   UNL     1       2.236  -5.672  -1.819  0.00  0.00    -0.461 OA
ATOM     13  C   UNL     1       1.758  -4.417  -1.963  0.00  0.00    +0.309 C 
ATOM     14  O   UNL     1       2.354  -3.402  -1.687  0.00  0.00    -0.251 OA
ATOM     15  C   UNL     1       0.350  -4.489  -2.531  0.00  0.00    +0.088 C 
ATOM     16  C   UNL     1      -2.001  -5.356  -6.905  0.00  0.00    +0.196 C 
ATOM     17  O   UNL     1      -0.789  -5.468  -7.656  0.00  0.00    -0.368 OA
ENDROOT
BRANCH  15  18
ATOM     18  C   UNL     1      -0.664  -3.942  -1.524  0.00  0.00    -0.064 C 
BRANCH  18  24
ATOM     19  C   UNL     1      -2.993  -3.353  -1.218  0.00  0.00    -0.076 C 
ATOM     20  C   UNL     1      -4.393  -3.506  -1.815  0.00  0.00    +0.016 C 
ATOM     21  C   UNL     1      -4.441  -2.807  -3.176  0.00  0.00    +0.067 C 
ATOM     22  C   UNL     1      -3.369  -3.408  -4.090  0.00  0.00    +0.016 C 
ATOM     23  C   UNL     1      -1.998  -3.260  -3.425  0.00  0.00    -0.076 C 
ATOM     24  N   UNL     1      -2.011  -3.975  -2.132  0.00  0.00    +0.380 N 
ATOM     25  H   UNL     1      -2.280  -4.953  -2.294  0.00  0.00    -0.082 HD
BRANCH  21  26
ATOM     26  O   UNL     1      -4.193  -1.410  -3.005  0.00  0.00    -0.388 OA
ATOM     27  H   UNL     1      -4.206  -0.904  -3.829  0.00  0.00    +0.210 HD
ENDBRANCH  21  26
BRANCH  21  28
ATOM     28  C   UNL     1      -5.821  -3.007  -3.806  0.00  0.00    +0.069 C 
BRANCH  28  29
ATOM     29  C   UNL     1      -5.827  -2.428  -5.197  0.00  0.00    -0.045 A 
ATOM     30  C   UNL     1      -6.190  -1.109  -5.395  0.00  0.00    +0.004 A 
ATOM     31  C   UNL     1      -6.191  -0.576  -6.671  0.00  0.00    +0.000 A 
ATOM     32  C   UNL     1      -5.839  -1.365  -7.750  0.00  0.00    +0.000 A 
ATOM     33  C   UNL     1      -5.481  -2.685  -7.553  0.00  0.00    +0.000 A 
ATOM     34  C   UNL     1      -5.475  -3.217  -6.276  0.00  0.00    +0.004 A 
ENDBRANCH  28  29
ENDBRANCH  21  28
ENDBRANCH  18  24
ENDBRANCH  15  18
TORSDOF 5
