REMARK  Name = ZINC36490632
REMARK  7 active torsions:
REMARK  status: ('A' for Active; 'I' for Inactive)
REMARK    1  A    between atoms: C_3  and  O_34
REMARK    2  A    between atoms: C_6  and  C_7
REMARK    3  A    between atoms: C_7  and  C_9
REMARK    4  A    between atoms: C_7  and  N_18
REMARK    5  A    between atoms: N_11  and  C_12
REMARK    6  A    between atoms: N_18  and  C_19
REMARK    7  A    between atoms: C_25  and  C_27
REMARK                            x       y       z     vdW  Elec       q    Type
REMARK                         _______ _______ _______ _____ _____    ______ ____
ROOT
ATOM      1  C   UNL     1      -1.214  -0.749   0.058  0.00  0.00    +0.192 C 
ENDROOT
BRANCH   1   7
ATOM      2  C   UNL     1       1.105  -0.410   0.937  0.00  0.00    +0.009 A 
ATOM      3  C   UNL     1       2.322   0.242   0.930  0.00  0.00    +0.046 A 
ATOM      4  C   UNL     1       2.551   1.272   0.030  0.00  0.00    +0.117 A 
ATOM      5  C   UNL     1       1.556   1.645  -0.861  0.00  0.00    +0.046 A 
ATOM      6  C   UNL     1       0.340   0.990  -0.850  0.00  0.00    +0.009 A 
ATOM      7  C   UNL     1       0.114  -0.036   0.048  0.00  0.00    -0.018 A 
BRANCH   4   8
ATOM      8  O   UNL     1       3.749   1.915   0.021  0.00  0.00    -0.507 OA
ATOM      9  H   UNL     1       4.404   1.519  -0.569  0.00  0.00    +0.292 HD
ENDBRANCH   4   8
ENDBRANCH   1   7
BRANCH   1  10
ATOM     10  C   UNL     1      -1.462  -1.331   1.426  0.00  0.00    +0.238 C 
ATOM     11  O   UNL     1      -1.610  -2.527   1.558  0.00  0.00    -0.273 OA
ATOM     12  N   UNL     1      -1.519  -0.521   2.502  0.00  0.00    -0.311 N 
ATOM     13  H   UNL     1      -1.401   0.436   2.395  0.00  0.00    +0.149 HD
BRANCH  12  14
ATOM     14  C   UNL     1      -1.760  -1.086   3.832  0.00  0.00    +0.073 C 
ATOM     15  C   UNL     1      -3.266  -1.244   4.053  0.00  0.00    +0.022 C 
ATOM     16  C   UNL     1      -3.518  -1.835   5.442  0.00  0.00    +0.002 C 
ATOM     17  C   UNL     1      -2.941  -0.899   6.506  0.00  0.00    +0.000 C 
ATOM     18  C   UNL     1      -1.436  -0.741   6.285  0.00  0.00    +0.002 C 
ATOM     19  C   UNL     1      -1.184  -0.150   4.896  0.00  0.00    +0.022 C 
ENDBRANCH  12  14
ENDBRANCH   1  10
BRANCH   1  20
ATOM     20  N   UNL     1      -1.196  -1.827  -0.935  0.00  0.00    -0.281 N 
ATOM     21  C   UNL     1      -2.034  -1.784  -1.990  0.00  0.00    +0.237 C 
ATOM     22  O   UNL     1      -1.949  -2.619  -2.866  0.00  0.00    -0.274 OA
BRANCH  21  23
ATOM     23  C   UNL     1      -3.074  -0.698  -2.083  0.00  0.00    +0.159 C 
ATOM     24  C   UNL     1      -4.258  -1.010  -1.140  0.00  0.00    +0.041 C 
ATOM     25  C   UNL     1      -5.230  -1.748  -2.089  0.00  0.00    +0.098 C 
ATOM     26  C   UNL     1      -4.857  -1.247  -3.466  0.00  0.00    +0.214 C 
ATOM     27  O   UNL     1      -5.548  -1.359  -4.457  0.00  0.00    -0.276 OA
ATOM     28  N   UNL     1      -3.647  -0.657  -3.434  0.00  0.00    -0.304 N 
ATOM     29  H   UNL     1      -3.211  -0.258  -4.202  0.00  0.00    +0.149 HD
ENDBRANCH  21  23
BRANCH  20  30
ATOM     30  C   UNL     1      -0.269  -2.950  -0.781  0.00  0.00    +0.077 C 
ATOM     31  C   UNL     1      -1.054  -4.264  -0.791  0.00  0.00    +0.022 C 
ATOM     32  C   UNL     1      -0.086  -5.437  -0.630  0.00  0.00    +0.002 C 
ATOM     33  C   UNL     1       0.918  -5.433  -1.785  0.00  0.00    +0.000 C 
ATOM     34  C   UNL     1       1.702  -4.120  -1.774  0.00  0.00    +0.002 C 
ATOM     35  C   UNL     1       0.734  -2.946  -1.936  0.00  0.00    +0.022 C 
ENDBRANCH  20  30
ENDBRANCH   1  20
TORSDOF 7
