REMARK  Name = ZINC50659626
REMARK  3 active torsions:
REMARK  status: ('A' for Active; 'I' for Inactive)
REMARK    1  A    between atoms: C_1  and  N_2
REMARK    2  A    between atoms: C_5  and  S_9
REMARK    3  A    between atoms: S_9  and  N_12
REMARK                            x       y       z     vdW  Elec       q    Type
REMARK                         _______ _______ _______ _____ _____    ______ ____
ROOT
ATOM      1  S   UNL     1       2.603   0.154   4.437  0.00  0.00    +0.061 S 
ATOM      2  O   UNL     1       3.597  -0.698   4.989  0.00  0.00    -0.153 OA
ATOM      3  O   UNL     1       2.903   1.447   3.931  0.00  0.00    -0.153 OA
ENDROOT
BRANCH   1   4
ATOM      4  N   UNL     1       1.452   0.361   5.611  0.00  0.00    -0.173 NA
ATOM      5  C   UNL     1       0.673   1.606   5.694  0.00  0.00    +0.110 C 
ATOM      6  C   UNL     1       0.784   2.173   7.112  0.00  0.00    +0.017 C 
ATOM      7  C   UNL     1       0.380   1.101   8.129  0.00  0.00    +0.006 C 
ATOM      8  C   UNL     1       1.321  -0.095   7.999  0.00  0.00    +0.008 C 
ATOM      9  C   UNL     1       1.178  -0.695   6.591  0.00  0.00    +0.083 C 
ATOM     10  C   UNL     1       2.171  -1.846   6.433  0.00  0.00    +0.021 C 
ATOM     11  C   UNL     1       1.849  -2.928   7.467  0.00  0.00    +0.002 C 
ATOM     12  C   UNL     1       1.949  -2.346   8.878  0.00  0.00    +0.000 C 
ATOM     13  C   UNL     1       0.974  -1.170   9.028  0.00  0.00    +0.005 C 
ENDBRANCH   1   4
BRANCH   1  18
ATOM     14  C   UNL     1      -0.063   1.304  -0.006  0.00  0.00    +0.127 C 
ATOM     15  N   UNL     1      -0.010  -0.160   0.018  0.00  0.00    -0.332 N 
ATOM     16  C   UNL     1       0.630  -0.815   1.063  0.00  0.00    +0.120 A 
ATOM     17  C   UNL     1       1.214  -0.075   2.086  0.00  0.00    +0.072 A 
ATOM     18  C   UNL     1       1.848  -0.740   3.120  0.00  0.00    +0.110 A 
ATOM     19  C   UNL     1       1.877  -2.128   3.096  0.00  0.00    +0.048 A 
ATOM     20  C   UNL     1       1.277  -2.799   2.049  0.00  0.00    +0.115 A 
ATOM     21  N   UNL     1       0.674  -2.139   1.079  0.00  0.00    -0.240 NA
ATOM     22  H   UNL     1      -0.422  -0.672  -0.696  0.00  0.00    +0.147 HD
ENDBRANCH   1  18
TORSDOF 2
