REMARK  Name = ZINC67116495
REMARK  8 active torsions:
REMARK  status: ('A' for Active; 'I' for Inactive)
REMARK    1  A    between atoms: C_1  and  C_2
REMARK    2  A    between atoms: C_3  and  C_20
REMARK    3  A    between atoms: C_4  and  C_10
REMARK    4  A    between atoms: C_12  and  O_18
REMARK    5  A    between atoms: C_13  and  O_17
REMARK    6  A    between atoms: O_18  and  C_19
REMARK    7  A    between atoms: C_20  and  O_22
REMARK    8  A    between atoms: O_22  and  C_23
REMARK                            x       y       z     vdW  Elec       q    Type
REMARK                         _______ _______ _______ _____ _____    ______ ____
ROOT
ATOM      1  C   UNL     1      -0.484   1.596  -0.247  0.00  0.00    +0.061 C 
ATOM      2  C   UNL     1      -0.276   0.108  -0.129  0.00  0.00    +0.019 C 
ATOM      3  C   UNL     1      -1.348  -0.714  -0.107  0.00  0.00    +0.078 C 
ATOM      4  C   UNL     1      -1.094  -2.203   0.012  0.00  0.00    +0.142 C 
ATOM      5  N   UNL     1       0.311  -2.635   0.096  0.00  0.00    -0.315 N 
ATOM      6  C   UNL     1       1.275  -1.693   0.061  0.00  0.00    +0.135 C 
ATOM      7  S   UNL     1       2.913  -2.180   0.158  0.00  0.00    -0.019 S 
ATOM      8  N   UNL     1       0.993  -0.389  -0.051  0.00  0.00    -0.300 N 
ATOM      9  H   UNL     1       0.538  -3.574   0.174  0.00  0.00    +0.149 HD
ATOM     10  H   UNL     1       1.732   0.239  -0.074  0.00  0.00    +0.154 HD
ENDROOT
BRANCH   4  11
ATOM     11  C   UNL     1      -1.806  -2.698   1.245  0.00  0.00    -0.005 A 
ATOM     12  C   UNL     1      -2.192  -1.802   2.225  0.00  0.00    +0.056 A 
ATOM     13  C   UNL     1      -2.847  -2.256   3.358  0.00  0.00    +0.162 A 
ATOM     14  C   UNL     1      -3.114  -3.614   3.508  0.00  0.00    +0.160 A 
ATOM     15  C   UNL     1      -2.724  -4.506   2.523  0.00  0.00    +0.064 A 
ATOM     16  C   UNL     1      -2.075  -4.046   1.391  0.00  0.00    +0.027 A 
ATOM     17 BR   UNL     1      -1.550  -5.265   0.043  0.00  0.00    -0.050 Br
BRANCH  14  18
ATOM     18  O   UNL     1      -3.756  -4.064   4.619  0.00  0.00    -0.503 OA
ATOM     19  H   UNL     1      -4.719  -4.085   4.535  0.00  0.00    +0.292 HD
ENDBRANCH  14  18
BRANCH  13  20
ATOM     20  O   UNL     1      -3.228  -1.376   4.323  0.00  0.00    -0.491 OA
ATOM     21  C   UNL     1      -2.920   0.002   4.103  0.00  0.00    +0.277 C 
ENDBRANCH  13  20
ENDBRANCH   4  11
BRANCH   3  22
ATOM     22  C   UNL     1      -2.663  -0.201  -0.193  0.00  0.00    +0.338 C 
ATOM     23  O   UNL     1      -2.850   1.002  -0.184  0.00  0.00    -0.245 OA
BRANCH  22  24
ATOM     24  O   UNL     1      -3.712  -1.046  -0.285  0.00  0.00    -0.465 OA
ATOM     25  C   UNL     1      -5.012  -0.459  -0.369  0.00  0.00    +0.280 C 
ENDBRANCH  22  24
ENDBRANCH   3  22
TORSDOF 5
