REMARK  Name = ZINC39422265
REMARK  9 active torsions:
REMARK  status: ('A' for Active; 'I' for Inactive)
REMARK    1  A    between atoms: C_1  and  C_2
REMARK    2  A    between atoms: C_6  and  C_7
REMARK    3  A    between atoms: C_7  and  C_9
REMARK    4  A    between atoms: C_7  and  C_25
REMARK    5  A    between atoms: C_12  and  O_15
REMARK    6  A    between atoms: O_15  and  C_16
REMARK    7  A    between atoms: C_16  and  C_17
REMARK    8  A    between atoms: C_26  and  C_32
REMARK    9  A    between atoms: C_29  and  O_31
REMARK                            x       y       z     vdW  Elec       q    Type
REMARK                         _______ _______ _______ _____ _____    ______ ____
ROOT
ATOM      1  C   UNL     1       0.032  -0.370   2.566  0.00  0.00    +0.088 C 
ENDROOT
BRANCH   1   7
ATOM      2  C   UNL     1       2.497  -1.073   0.703  0.00  0.00    +0.068 C 
ATOM      3  C   UNL     1       1.042  -1.232   0.342  0.00  0.00    +0.068 A 
ATOM      4  N   UNL     1       0.579  -1.691  -0.792  0.00  0.00    -0.176 NA
ATOM      5  N   UNL     1      -0.820  -1.682  -0.733  0.00  0.00    -0.243 N 
ATOM      6  C   UNL     1      -1.183  -1.202   0.477  0.00  0.00    +0.271 A 
ATOM      7  C   UNL     1      -0.045  -0.921   1.165  0.00  0.00    +0.052 A 
ATOM      8  O   UNL     1      -2.453  -1.036   0.926  0.00  0.00    -0.266 OA
ATOM      9  H   UNL     1      -1.423  -1.969  -1.437  0.00  0.00    +0.192 HD
ENDBRANCH   1   7
BRANCH   1  10
ATOM     10  C   UNL     1       1.211  -0.977   3.281  0.00  0.00    -0.035 A 
ATOM     11  C   UNL     1       1.390  -2.348   3.276  0.00  0.00    +0.008 A 
ATOM     12  C   UNL     1       2.470  -2.908   3.931  0.00  0.00    +0.046 A 
ATOM     13  C   UNL     1       3.375  -2.093   4.595  0.00  0.00    +0.121 A 
ATOM     14  C   UNL     1       3.194  -0.718   4.598  0.00  0.00    +0.046 A 
ATOM     15  C   UNL     1       2.115  -0.163   3.937  0.00  0.00    +0.008 A 
BRANCH  13  16
ATOM     16  O   UNL     1       4.438  -2.641   5.240  0.00  0.00    -0.487 OA
BRANCH  16  17
ATOM     17  C   UNL     1       5.329  -1.741   5.902  0.00  0.00    +0.268 C 
BRANCH  17  18
ATOM     18  C   UNL     1       6.438  -2.524   6.557  0.00  0.00    +0.043 A 
ATOM     19  C   UNL     1       6.292  -2.977   7.857  0.00  0.00    +0.131 A 
ATOM     20  C   UNL     1       7.311  -3.696   8.458  0.00  0.00    +0.039 A 
ATOM     21  C   UNL     1       8.474  -3.961   7.760  0.00  0.00    +0.004 A 
ATOM     22  C   UNL     1       8.620  -3.509   6.462  0.00  0.00    +0.020 A 
ATOM     23  C   UNL     1       7.600  -2.795   5.858  0.00  0.00    +0.050 A 
ATOM     24 CL   UNL     1       7.782  -2.233   4.226  0.00  0.00    -0.083 Cl
ATOM     25  F   UNL     1       5.155  -2.717   8.540  0.00  0.00    -0.205 F 
ENDBRANCH  17  18
ENDBRANCH  16  17
ENDBRANCH  13  16
ENDBRANCH   1  10
BRANCH   1  26
ATOM     26  C   UNL     1      -1.235  -0.707   3.309  0.00  0.00    +0.017 C 
ATOM     27  C   UNL     1      -2.120   0.133   3.850  0.00  0.00    +0.065 C 
ATOM     28  N   UNL     1      -3.131  -0.546   4.435  0.00  0.00    -0.156 NA
ATOM     29  N   UNL     1      -3.038  -1.774   4.354  0.00  0.00    -0.151 NA
ATOM     30  C   UNL     1      -1.804  -2.082   3.611  0.00  0.00    +0.284 C 
ATOM     31  C   UNL     1      -2.006   1.635   3.813  0.00  0.00    +0.067 C 
BRANCH  30  32
ATOM     32  O   UNL     1      -0.902  -2.836   4.423  0.00  0.00    -0.366 OA
ATOM     33  H   UNL     1      -1.219  -3.722   4.644  0.00  0.00    +0.212 HD
ENDBRANCH  30  32
ENDBRANCH   1  26
TORSDOF 7
