REMARK  Name = ZINC09579922
REMARK  6 active torsions:
REMARK  status: ('A' for Active; 'I' for Inactive)
REMARK    1  A    between atoms: C_1  and  C_2
REMARK    2  A    between atoms: C_2  and  C_25
REMARK    3  A    between atoms: N_5  and  C_9
REMARK    4  A    between atoms: C_9  and  C_10
REMARK    5  A    between atoms: N_12  and  C_13
REMARK    6  A    between atoms: N_12  and  C_14
REMARK                            x       y       z     vdW  Elec       q    Type
REMARK                         _______ _______ _______ _____ _____    ______ ____
ROOT
ATOM      1  C   UNL     1      -1.676  -5.320  -1.122  0.00  0.00    +0.050 C 
ATOM      2  C   UNL     1      -0.582  -4.361  -0.650  0.00  0.00    +0.168 C 
ATOM      3  C   UNL     1      -0.873  -2.949  -1.120  0.00  0.00    +0.254 C 
ATOM      4  O   UNL     1      -0.965  -2.564  -2.266  0.00  0.00    -0.272 OA
ATOM      5  N   UNL     1      -1.005  -2.212  -0.000  0.00  0.00    -0.215 N 
ATOM      6  C   UNL     1      -0.848  -2.955   1.101  0.00  0.00    +0.310 C 
ATOM      7  O   UNL     1      -0.926  -2.513   2.231  0.00  0.00    -0.252 OA
ATOM      8  N   UNL     1      -0.593  -4.245   0.819  0.00  0.00    -0.279 N 
ATOM      9  H   UNL     1      -0.445  -4.960   1.457  0.00  0.00    +0.152 HD
ENDROOT
BRANCH   2  10
ATOM     10  C   UNL     1       0.769  -4.818  -1.136  0.00  0.00    +0.138 A 
ATOM     11  C   UNL     1       1.597  -5.622  -0.455  0.00  0.00    +0.056 A 
ATOM     12  C   UNL     1       2.782  -5.801  -1.303  0.00  0.00    +0.020 A 
ATOM     13  C   UNL     1       3.976  -6.508  -1.172  0.00  0.00    +0.011 A 
ATOM     14  C   UNL     1       4.905  -6.462  -2.175  0.00  0.00    +0.001 A 
ATOM     15  C   UNL     1       4.665  -5.715  -3.320  0.00  0.00    +0.004 A 
ATOM     16  C   UNL     1       3.491  -5.009  -3.466  0.00  0.00    +0.047 A 
ATOM     17  C   UNL     1       2.534  -5.043  -2.459  0.00  0.00    +0.135 A 
ATOM     18  O   UNL     1       1.320  -4.475  -2.313  0.00  0.00    -0.457 OA
ENDBRANCH   2  10
BRANCH   5  19
ATOM     19  C   UNL     1      -1.293  -0.775   0.010  0.00  0.00    +0.213 C 
BRANCH  19  20
ATOM     20  C   UNL     1       0.002  -0.004   0.002  0.00  0.00    +0.234 C 
ATOM     21  O   UNL     1       1.060  -0.596  -0.011  0.00  0.00    -0.274 OA
ATOM     22  N   UNL     1      -0.016   1.344   0.009  0.00  0.00    -0.296 N 
ATOM     23  C   UNL     1      -1.295   2.059   0.019  0.00  0.00    +0.132 C 
BRANCH  22  24
ATOM     24  C   UNL     1       1.242   2.093   0.001  0.00  0.00    +0.106 C 
ATOM     25  C   UNL     1       1.294   2.977  -1.243  0.00  0.00    +0.027 C 
ATOM     26  C   UNL     1       2.507   3.908  -1.125  0.00  0.00    +0.007 C 
ATOM     27  C   UNL     1       2.227   4.926  -0.021  0.00  0.00    +0.035 C 
ATOM     28  C   UNL     1       1.785   4.231   1.240  0.00  0.00    -0.042 A 
ATOM     29  C   UNL     1       1.329   2.931   1.250  0.00  0.00    -0.024 A 
ATOM     30  C   UNL     1       0.931   2.351   2.447  0.00  0.00    +0.006 A 
ATOM     31  C   UNL     1       0.991   3.065   3.626  0.00  0.00    +0.000 A 
ATOM     32  C   UNL     1       1.451   4.368   3.617  0.00  0.00    +0.000 A 
ATOM     33  C   UNL     1       1.846   4.947   2.429  0.00  0.00    +0.004 A 
ENDBRANCH  22  24
ENDBRANCH  19  20
ENDBRANCH   5  19
TORSDOF 4
