REMARK  Name = ZINC12539956
REMARK  6 active torsions:
REMARK  status: ('A' for Active; 'I' for Inactive)
REMARK    1  A    between atoms: C_1  and  C_2
REMARK    2  A    between atoms: C_8  and  N_10
REMARK    3  A    between atoms: C_11  and  C_13
REMARK    4  A    between atoms: C_13  and  N_14
REMARK    5  A    between atoms: C_17  and  C_21
REMARK    6  A    between atoms: C_17  and  C_22
REMARK                            x       y       z     vdW  Elec       q    Type
REMARK                         _______ _______ _______ _____ _____    ______ ____
ROOT
ATOM      1  N   UNL     1       1.963  -3.426   1.751  0.00  0.00    -0.215 N 
ATOM      2  C   UNL     1       2.445  -2.706   0.719  0.00  0.00    +0.251 C 
ATOM      3  O   UNL     1       3.609  -2.514   0.441  0.00  0.00    -0.272 OA
ATOM      4  C   UNL     1       1.229  -2.185  -0.021  0.00  0.00    +0.135 C 
ATOM      5  N   UNL     1       0.094  -2.723   0.749  0.00  0.00    -0.281 N 
ATOM      6  C   UNL     1       0.625  -3.433   1.766  0.00  0.00    +0.310 C 
ATOM      7  O   UNL     1      -0.039  -4.015   2.601  0.00  0.00    -0.252 OA
ATOM      8  C   UNL     1       1.205  -2.715  -1.456  0.00  0.00    +0.047 C 
ATOM      9  H   UNL     1      -0.848  -2.591   0.561  0.00  0.00    +0.152 HD
ENDROOT
BRANCH   4  10
ATOM     10  C   UNL     1       1.208  -0.678  -0.013  0.00  0.00    -0.014 A 
ATOM     11  C   UNL     1       2.396   0.029  -0.021  0.00  0.00    +0.006 A 
ATOM     12  C   UNL     1       2.378   1.411  -0.013  0.00  0.00    +0.001 A 
ATOM     13  C   UNL     1       1.172   2.087   0.002  0.00  0.00    +0.015 A 
ATOM     14  C   UNL     1      -0.017   1.379   0.010  0.00  0.00    +0.018 A 
ATOM     15  C   UNL     1       0.002  -0.004   0.002  0.00  0.00    +0.021 A 
ATOM     16 BR   UNL     1      -1.667   2.303   0.022  0.00  0.00    -0.050 Br
ENDBRANCH   4  10
BRANCH   1  17
ATOM     17  C   UNL     1       2.800  -4.117   2.735  0.00  0.00    +0.213 C 
BRANCH  17  19
ATOM     18  N   UNL     1       3.849  -3.613   4.918  0.00  0.00    -0.311 N 
ATOM     19  C   UNL     1       3.091  -3.190   3.887  0.00  0.00    +0.231 C 
ATOM     20  O   UNL     1       2.643  -2.062   3.886  0.00  0.00    -0.274 OA
ATOM     21  H   UNL     1       4.207  -4.514   4.919  0.00  0.00    +0.149 HD
BRANCH  18  28
ATOM     22  C   UNL     1       3.223  -4.407   7.632  0.00  0.00    +0.009 C 
ATOM     23  C   UNL     1       4.433  -3.534   7.292  0.00  0.00    +0.006 C 
ATOM     24  C   UNL     1       5.649  -4.427   7.036  0.00  0.00    +0.005 C 
ATOM     25  C   UNL     1       6.859  -3.555   6.695  0.00  0.00    +0.000 C 
ATOM     26  C   UNL     1       6.558  -2.732   5.441  0.00  0.00    +0.002 C 
ATOM     27  C   UNL     1       5.341  -1.839   5.697  0.00  0.00    +0.022 C 
ATOM     28  C   UNL     1       4.131  -2.711   6.037  0.00  0.00    +0.076 C 
ENDBRANCH  18  28
ENDBRANCH  17  19
ENDBRANCH   1  17
TORSDOF 4
