REMARK  Name = ZINC08715968
REMARK  8 active torsions:
REMARK  status: ('A' for Active; 'I' for Inactive)
REMARK    1  A    between atoms: C_1  and  C_2
REMARK    2  A    between atoms: C_9  and  C_14
REMARK    3  A    between atoms: C_14  and  O_16
REMARK    4  A    between atoms: O_16  and  C_17
REMARK    5  A    between atoms: C_17  and  C_18
REMARK    6  A    between atoms: N_20  and  C_21
REMARK    7  A    between atoms: C_21  and  C_23
REMARK    8  A    between atoms: C_21  and  C_24
REMARK                            x       y       z     vdW  Elec       q    Type
REMARK                         _______ _______ _______ _____ _____    ______ ____
ROOT
ATOM      1  C   UNL     1       5.476   7.516  -1.431  0.00  0.00    +0.328 C 
ENDROOT
BRANCH   1   2
ATOM      2  C   UNL     1       5.506   9.022  -1.368  0.00  0.00    +0.251 C 
ATOM      3  O   UNL     1       4.543   9.631  -0.954  0.00  0.00    -0.272 OA
ATOM      4  N   UNL     1       6.605   9.691  -1.770  0.00  0.00    -0.309 N 
ATOM      5  H   UNL     1       7.376   9.203  -2.101  0.00  0.00    +0.149 HD
BRANCH   4   6
ATOM      6  C   UNL     1       6.635  11.154  -1.708  0.00  0.00    +0.076 C 
ATOM      7  C   UNL     1       5.999  11.731  -2.974  0.00  0.00    +0.028 C 
BRANCH   6   8
ATOM      8  C   UNL     1       8.085  11.630  -1.603  0.00  0.00    -0.010 C 
ATOM      9  C   UNL     1       8.722  11.053  -0.337  0.00  0.00    +0.012 C 
ATOM     10  C   UNL     1      10.172  11.529  -0.232  0.00  0.00    -0.010 C 
ATOM     11  C   UNL     1      10.203  13.057  -0.167  0.00  0.00    +0.007 C 
ATOM     12  C   UNL     1       9.567  13.635  -1.433  0.00  0.00    -0.010 C 
ATOM     13  C   UNL     1       8.117  13.159  -1.538  0.00  0.00    +0.012 C 
ATOM     14  C   UNL     1      10.350  13.160  -2.659  0.00  0.00    +0.007 C 
ATOM     15  C   UNL     1      10.319  11.632  -2.724  0.00  0.00    -0.010 C 
ATOM     16  C   UNL     1      10.954  11.055  -1.458  0.00  0.00    +0.007 C 
ATOM     17  C   UNL     1       8.868  11.156  -2.829  0.00  0.00    +0.012 C 
ENDBRANCH   6   8
ENDBRANCH   4   6
ENDBRANCH   1   2
BRANCH   1  18
ATOM     18  O   UNL     1       4.193   7.038  -0.947  0.00  0.00    -0.452 OA
BRANCH  18  19
ATOM     19  C   UNL     1       4.002   5.704  -0.938  0.00  0.00    +0.340 C 
ATOM     20  O   UNL     1       4.882   4.961  -1.325  0.00  0.00    -0.245 OA
BRANCH  19  28
ATOM     21  C   UNL     1      -1.760   2.246  -1.414  0.00  0.00    +0.029 C 
ATOM     22  C   UNL     1      -1.350   1.901   0.019  0.00  0.00    +0.134 C 
ATOM     23  C   UNL     1      -0.014   1.209   0.009  0.00  0.00    +0.230 C 
ATOM     24  O   UNL     1       0.002  -0.004   0.002  0.00  0.00    -0.274 OA
ATOM     25  N   UNL     1       1.149   1.853   0.001  0.00  0.00    -0.284 N 
ATOM     26  C   UNL     1       1.328   3.234  -0.003  0.00  0.00    +0.048 A 
ATOM     27  C   UNL     1       2.527   3.763  -0.452  0.00  0.00    +0.039 A 
ATOM     28  C   UNL     1       2.725   5.146  -0.460  0.00  0.00    +0.061 A 
ATOM     29  C   UNL     1       1.712   6.002  -0.014  0.00  0.00    +0.016 A 
ATOM     30  C   UNL     1       0.519   5.477   0.431  0.00  0.00    +0.017 A 
ATOM     31  C   UNL     1       0.323   4.103   0.437  0.00  0.00    +0.030 A 
ATOM     32  S   UNL     1      -1.207   3.427   1.003  0.00  0.00    -0.111 S 
ATOM     33  H   UNL     1       1.952   1.307  -0.002  0.00  0.00    +0.155 HD
ENDBRANCH  19  28
ENDBRANCH  18  19
ENDBRANCH   1  18
TORSDOF 6
