REMARK  Name = ZINC00809850
REMARK  9 active torsions:
REMARK  status: ('A' for Active; 'I' for Inactive)
REMARK    1  A    between atoms: C_1  and  C_2
REMARK    2  A    between atoms: C_2  and  O_3
REMARK    3  A    between atoms: O_3  and  C_4
REMARK    4  A    between atoms: C_14  and  C_18
REMARK    5  A    between atoms: C_20  and  N_24
REMARK    6  A    between atoms: C_21  and  C_22
REMARK    7  A    between atoms: C_28  and  C_32
REMARK    8  A    between atoms: C_28  and  C_33
REMARK    9  A    between atoms: C_30  and  C_31
REMARK                            x       y       z     vdW  Elec       q    Type
REMARK                         _______ _______ _______ _____ _____    ______ ____
ROOT
ATOM      1  C   UNL     1       3.650  -5.301  -0.872  0.00  0.00    +0.121 A 
ATOM      2  C   UNL     1       3.363  -5.985  -2.048  0.00  0.00    +0.055 A 
ATOM      3  C   UNL     1       2.060  -6.064  -2.509  0.00  0.00    +0.003 A 
ATOM      4  C   UNL     1       1.072  -5.426  -1.735  0.00  0.00    +0.050 A 
ATOM      5  C   UNL     1       1.363  -4.746  -0.565  0.00  0.00    +0.003 A 
ATOM      6  C   UNL     1       2.662  -4.670  -0.108  0.00  0.00    +0.052 A 
ATOM      7  C   UNL     1       0.046  -4.234  -0.077  0.00  0.00    +0.148 C 
ATOM      8  C   UNL     1       0.033  -2.734  -0.026  0.00  0.00    +0.104 A 
ATOM      9  C   UNL     1       0.040  -2.073   1.186  0.00  0.00    +0.145 A 
ATOM     10  C   UNL     1       0.022  -0.659   1.177  0.00  0.00    +0.088 A 
ATOM     11  C   UNL     1       0.002  -0.004   0.002  0.00  0.00    +0.110 A 
ATOM     12  O   UNL     1      -0.006  -0.643  -1.172  0.00  0.00    -0.427 OA
ATOM     13  C   UNL     1       0.013  -1.982  -1.206  0.00  0.00    +0.345 A 
ATOM     14  O   UNL     1       0.008  -2.556  -2.283  0.00  0.00    -0.245 OA
ATOM     15  C   UNL     1      -0.018   1.503   0.010  0.00  0.00    +0.086 C 
ATOM     16  O   UNL     1       0.065  -2.748   2.351  0.00  0.00    -0.441 OA
ATOM     17  C   UNL     1      -0.269  -4.050   2.385  0.00  0.00    +0.199 C 
ATOM     18  C   UNL     1      -0.296  -4.813   1.266  0.00  0.00    +0.110 C 
ATOM     19  C   UNL     1      -0.960  -4.717  -1.111  0.00  0.00    +0.241 C 
ATOM     20  O   UNL     1      -2.156  -4.517  -1.095  0.00  0.00    -0.273 OA
ATOM     21  N   UNL     1      -0.282  -5.405  -2.048  0.00  0.00    -0.260 N 
ATOM     22  C   UNL     1      -0.799  -6.069  -3.251  0.00  0.00    +0.055 C 
ATOM     23  C   UNL     1       0.298  -6.728  -4.031  0.00  0.00    +0.002 C 
ATOM     24  C   UNL     1       1.585  -6.742  -3.723  0.00  0.00    -0.043 C 
ATOM     25  C   UNL     1       2.564  -7.454  -4.619  0.00  0.00    +0.044 C 
ATOM     26  C   UNL     1      -1.823  -7.128  -2.837  0.00  0.00    +0.036 C 
ATOM     27  C   UNL     1      -1.487  -5.030  -4.139  0.00  0.00    +0.036 C 
ENDROOT
BRANCH  17  28
ATOM     28  N   UNL     1      -0.592  -4.623   3.589  0.00  0.00    -0.328 N 
ATOM     29  H   UNL     1      -0.578  -4.090   4.400  0.00  0.00    +0.145 HD
ATOM     30  H   UNL     1      -0.835  -5.562   3.630  0.00  0.00    +0.145 HD
ENDBRANCH  17  28
BRANCH  18  31
ATOM     31  C   UNL     1      -0.658  -6.195   1.365  0.00  0.00    +0.102 C 
ATOM     32  N   UNL     1      -0.945  -7.291   1.443  0.00  0.00    -0.191 NA
ENDBRANCH  18  31
BRANCH   1  33
ATOM     33  O   UNL     1       4.940  -5.244  -0.447  0.00  0.00    -0.492 OA
BRANCH  33  35
ATOM     34  C   UNL     1       7.301  -5.730  -0.623  0.00  0.00    +0.048 C 
ATOM     35  C   UNL     1       5.919  -5.901  -1.255  0.00  0.00    +0.225 C 
ENDBRANCH  33  35
ENDBRANCH   1  33
TORSDOF 4
