REMARK  Name = ZINC59856204
REMARK  6 active torsions:
REMARK  status: ('A' for Active; 'I' for Inactive)
REMARK    1  A    between atoms: C_1  and  N_2
REMARK    2  A    between atoms: C_3  and  C_17
REMARK    3  A    between atoms: C_6  and  S_7
REMARK    4  A    between atoms: S_7  and  C_8
REMARK    5  A    between atoms: C_8  and  C_9
REMARK    6  A    between atoms: C_20  and  N_23
REMARK                            x       y       z     vdW  Elec       q    Type
REMARK                         _______ _______ _______ _____ _____    ______ ____
ROOT
ATOM      1  C   UNL     1      -0.004   1.461   0.009  0.00  0.00    +0.153 C 
ATOM      2  N   UNL     1       0.008  -0.004   0.001  0.00  0.00    -0.305 N 
ATOM      3  C   UNL     1      -0.087  -0.831  -1.094  0.00  0.00    +0.165 A 
ATOM      4  N   UNL     1      -0.035  -2.065  -0.651  0.00  0.00    -0.128 NA
ATOM      5  N   UNL     1       0.085  -2.067   0.629  0.00  0.00    -0.122 NA
ATOM      6  C   UNL     1       0.122  -0.834   1.081  0.00  0.00    +0.192 A 
ENDROOT
BRANCH   3   7
ATOM      7  C   UNL     1      -0.223  -0.409  -2.504  0.00  0.00    +0.019 A 
ATOM      8  C   UNL     1       0.143   0.883  -2.886  0.00  0.00    +0.013 A 
ATOM      9  C   UNL     1       0.015   1.274  -4.201  0.00  0.00    +0.023 A 
ATOM     10  C   UNL     1      -0.479   0.383  -5.148  0.00  0.00    +0.025 A 
ATOM     11  C   UNL     1      -0.845  -0.905  -4.770  0.00  0.00    +0.023 A 
ATOM     12  C   UNL     1      -0.714  -1.303  -3.458  0.00  0.00    +0.013 A 
BRANCH  10  13
ATOM     13  N   UNL     1      -0.609   0.781  -6.479  0.00  0.00    -0.358 N 
ATOM     14  H   UNL     1      -0.354   1.679  -6.743  0.00  0.00    +0.142 HD
ATOM     15  H   UNL     1      -0.954   0.161  -7.140  0.00  0.00    +0.142 HD
ENDBRANCH  10  13
ENDBRANCH   3   7
BRANCH   6  16
ATOM     16  S   UNL     1       0.286  -0.343   2.765  0.00  0.00    -0.081 S 
BRANCH  16  17
ATOM     17  C   UNL     1       0.389  -1.911   3.671  0.00  0.00    +0.114 C 
BRANCH  17  18
ATOM     18  C   UNL     1       0.533  -1.630   5.145  0.00  0.00    -0.017 A 
ATOM     19  C   UNL     1       1.790  -1.486   5.701  0.00  0.00    +0.026 A 
ATOM     20  C   UNL     1       1.923  -1.229   7.054  0.00  0.00    +0.041 A 
ATOM     21  C   UNL     1       0.797  -1.115   7.850  0.00  0.00    +0.021 A 
ATOM     22  C   UNL     1      -0.460  -1.259   7.294  0.00  0.00    +0.022 A 
ATOM     23  C   UNL     1      -0.593  -1.511   5.940  0.00  0.00    +0.045 A 
ATOM     24 CL   UNL     1      -2.172  -1.685   5.240  0.00  0.00    -0.083 Cl
ATOM     25 CL   UNL     1       3.502  -1.048   7.753  0.00  0.00    -0.084 Cl
ENDBRANCH  17  18
ENDBRANCH  16  17
ENDBRANCH   6  16
TORSDOF 5
