REMARK  Name = ZINC21584508
REMARK  5 active torsions:
REMARK  status: ('A' for Active; 'I' for Inactive)
REMARK    1  A    between atoms: C_1  and  C_2
REMARK    2  A    between atoms: C_8  and  N_10
REMARK    3  A    between atoms: C_14  and  C_16
REMARK    4  A    between atoms: C_16  and  N_17
REMARK    5  A    between atoms: C_20  and  C_23
REMARK                            x       y       z     vdW  Elec       q    Type
REMARK                         _______ _______ _______ _____ _____    ______ ____
ROOT
ATOM      1  C   UNL     1      -6.321   1.654  -3.999  0.00  0.00    +0.019 C 
ENDROOT
BRANCH   1   6
ATOM      2  N   UNL     1      -2.103   2.062  -1.729  0.00  0.00    -0.296 N 
ATOM      3  C   UNL     1      -3.448   2.008  -1.668  0.00  0.00    +0.306 C 
ATOM      4  O   UNL     1      -4.011   2.086  -0.593  0.00  0.00    -0.252 OA
ATOM      5  N   UNL     1      -4.169   1.867  -2.797  0.00  0.00    -0.242 N 
ATOM      6  C   UNL     1      -5.514   1.812  -2.736  0.00  0.00    +0.204 C 
ATOM      7  O   UNL     1      -6.076   1.890  -1.664  0.00  0.00    -0.277 OA
ATOM      8  H   UNL     1      -1.593   1.992  -2.702  0.00  0.00    +0.151 HD
ATOM      9  H   UNL     1      -3.660   1.796  -3.770  0.00  0.00    +0.159 HD
BRANCH   2  16
ATOM     10  C   UNL     1      -0.201   4.231  -1.467  0.00  0.00    +0.009 C 
ATOM     11  C   UNL     1       0.030   2.857  -0.834  0.00  0.00    +0.006 C 
ATOM     12  C   UNL     1       0.849   3.018   0.448  0.00  0.00    +0.005 C 
ATOM     13  C   UNL     1       1.080   1.644   1.081  0.00  0.00    +0.000 C 
ATOM     14  C   UNL     1      -0.269   1.003   1.414  0.00  0.00    +0.002 C 
ATOM     15  C   UNL     1      -1.088   0.842   0.131  0.00  0.00    +0.022 C 
ATOM     16  C   UNL     1      -1.319   2.216  -0.501  0.00  0.00    +0.077 C 
ENDBRANCH   2  16
ENDBRANCH   1   6
BRANCH   1  17
ATOM     17  N   UNL     1      -7.751   1.622  -3.666  0.00  0.00    +0.385 N 
ATOM     18  C   UNL     1      -8.082   0.426  -2.882  0.00  0.00    -0.077 C 
ATOM     19  C   UNL     1      -9.543   0.498  -2.430  0.00  0.00    -0.006 C 
ATOM     20  C   UNL     1     -10.448   0.591  -3.662  0.00  0.00    +0.072 C 
ATOM     21  C   UNL     1     -10.051   1.818  -4.486  0.00  0.00    -0.006 C 
ATOM     22  C   UNL     1      -8.576   1.708  -4.878  0.00  0.00    -0.077 C 
ATOM     23  H   UNL     1      -7.975   2.502  -3.045  0.00  0.00    -0.081 HD
BRANCH  20  24
ATOM     24  C   UNL     1     -11.884   0.722  -3.223  0.00  0.00    +0.219 C 
ATOM     25  O   UNL     1     -12.356   1.819  -3.010  0.00  0.00    -0.275 OA
ATOM     26  N   UNL     1     -12.645  -0.380  -3.069  0.00  0.00    -0.301 N 
ATOM     27  C   UNL     1     -14.046  -0.216  -2.753  0.00  0.00    +0.108 C 
ATOM     28  C   UNL     1     -14.237  -0.155  -1.223  0.00  0.00    +0.019 C 
ATOM     29  C   UNL     1     -14.006  -1.480  -0.627  0.00  0.00    +0.002 C 
ATOM     30  C   UNL     1     -12.589  -2.014  -0.812  0.00  0.00    +0.002 C 
ATOM     31  C   UNL     1     -12.485  -2.702  -2.151  0.00  0.00    +0.019 C 
ATOM     32  C   UNL     1     -12.012  -1.704  -3.223  0.00  0.00    +0.108 C 
ENDBRANCH  20  24
ENDBRANCH   1  17
TORSDOF 4
