REMARK  Name = ZINC06320731
REMARK  15 active torsions:
REMARK  status: ('A' for Active; 'I' for Inactive)
REMARK    1  A    between atoms: C_1  and  C_2
REMARK    2  A    between atoms: C_6  and  C_15
REMARK    3  A    between atoms: C_13  and  C_14
REMARK    4  A    between atoms: C_15  and  N_75
REMARK    5  A    between atoms: C_16  and  C_17
REMARK    6  A    between atoms: C_16  and  N_75
REMARK    7  A    between atoms: C_17  and  C_18
REMARK    8  A    between atoms: C_21  and  O_26
REMARK    9  A    between atoms: C_22  and  O_24
REMARK   10  A    between atoms: O_24  and  C_25
REMARK   11  A    between atoms: O_26  and  C_27
REMARK   12  A    between atoms: C_28  and  C_29
REMARK   13  A    between atoms: C_28  and  N_75
REMARK   14  A    between atoms: N_33  and  C_34
REMARK   15  A    between atoms: C_34  and  C_35
REMARK                            x       y       z     vdW  Elec       q    Type
REMARK                         _______ _______ _______ _____ _____    ______ ____
ROOT
ATOM      1  N   UNL     1      -2.743  -3.329  -1.201  0.00  0.00    +0.387 N 
ATOM      2  H   UNL     1      -2.000  -3.859  -1.672  0.00  0.00    -0.081 HD
ENDROOT
BRANCH   1   3
ATOM      3  C   UNL     1      -2.372  -3.141   0.217  0.00  0.00    -0.037 C 
BRANCH   3   9
ATOM      4  C   UNL     1       2.074   2.804   0.935  0.00  0.00    +0.044 C 
ATOM      5  C   UNL     1       1.882   1.321   0.745  0.00  0.00    -0.047 A 
ATOM      6  C   UNL     1       0.619   0.803   0.692  0.00  0.00    +0.013 A 
ATOM      7  C   UNL     1       0.441  -0.573   0.515  0.00  0.00    -0.001 A 
ATOM      8  C   UNL     1      -0.898  -1.162   0.454  0.00  0.00    +0.017 A 
ATOM      9  C   UNL     1      -1.008  -2.503   0.284  0.00  0.00    +0.001 A 
ATOM     10  C   UNL     1       0.149  -3.302   0.167  0.00  0.00    +0.251 A 
ATOM     11  O   UNL     1       0.026  -4.505   0.014  0.00  0.00    -0.268 OA
ATOM     12  N   UNL     1       1.382  -2.771   0.221  0.00  0.00    -0.322 N 
ATOM     13  H   UNL     1       2.156  -3.349   0.138  0.00  0.00    +0.169 HD
ATOM     14  C   UNL     1       1.563  -1.415   0.394  0.00  0.00    +0.049 A 
ATOM     15  C   UNL     1       2.839  -0.865   0.451  0.00  0.00    +0.030 A 
ATOM     16  C   UNL     1       2.991   0.494   0.625  0.00  0.00    -0.046 A 
ATOM     17  C   UNL     1       4.374   1.089   0.686  0.00  0.00    +0.044 C 
ENDBRANCH   3   9
ENDBRANCH   1   3
BRANCH   1  18
ATOM     18  C   UNL     1      -4.008  -4.088  -1.296  0.00  0.00    -0.073 C 
BRANCH  18  19
ATOM     19  C   UNL     1      -4.170  -4.596  -2.730  0.00  0.00    +0.017 C 
BRANCH  19  20
ATOM     20  C   UNL     1      -5.500  -5.291  -2.869  0.00  0.00    -0.045 A 
ATOM     21  C   UNL     1      -5.597  -6.649  -2.628  0.00  0.00    +0.007 A 
ATOM     22  C   UNL     1      -6.816  -7.290  -2.749  0.00  0.00    +0.049 A 
ATOM     23  C   UNL     1      -7.941  -6.573  -3.124  0.00  0.00    +0.161 A 
ATOM     24  C   UNL     1      -7.842  -5.208  -3.372  0.00  0.00    +0.162 A 
ATOM     25  C   UNL     1      -6.619  -4.570  -3.244  0.00  0.00    +0.053 A 
BRANCH  24  26
ATOM     26  O   UNL     1      -8.944  -4.500  -3.740  0.00  0.00    -0.491 OA
ATOM     27  C   UNL     1      -8.767  -3.102  -3.978  0.00  0.00    +0.277 C 
ENDBRANCH  24  26
BRANCH  23  28
ATOM     28  O   UNL     1      -9.140  -7.204  -3.250  0.00  0.00    -0.491 OA
ATOM     29  C   UNL     1      -9.166  -8.606  -2.979  0.00  0.00    +0.277 C 
ENDBRANCH  23  28
ENDBRANCH  19  20
ENDBRANCH  18  19
ENDBRANCH   1  18
BRANCH   1  30
ATOM     30  C   UNL     1      -2.890  -2.016  -1.863  0.00  0.00    +0.001 C 
BRANCH  30  31
ATOM     31  C   UNL     1      -3.994  -1.219  -1.218  0.00  0.00    +0.135 A 
ATOM     32  N   UNL     1      -4.675  -1.549  -0.147  0.00  0.00    -0.115 NA
ATOM     33  N   UNL     1      -5.527  -0.612   0.088  0.00  0.00    -0.023 NA
ATOM     34  N   UNL     1      -5.408   0.307  -0.806  0.00  0.00    -0.044 NA
ATOM     35  N   UNL     1      -4.470  -0.028  -1.625  0.00  0.00    -0.229 N 
BRANCH  35  36
ATOM     36  C   UNL     1      -4.011   0.742  -2.784  0.00  0.00    +0.178 C 
BRANCH  36  37
ATOM     37  C   UNL     1      -4.914   0.445  -3.984  0.00  0.00    +0.140 C 
ATOM     38  C   UNL     1      -4.443   1.248  -5.223  0.00  0.00    +0.035 C 
ATOM     39  C   UNL     1      -5.000   0.365  -6.374  0.00  0.00    +0.031 C 
ATOM     40  C   UNL     1      -4.870  -1.058  -5.789  0.00  0.00    +0.160 C 
ATOM     41  O   UNL     1      -4.800  -0.936  -4.364  0.00  0.00    -0.375 OA
ENDBRANCH  36  37
ENDBRANCH  35  36
ENDBRANCH  30  31
ENDBRANCH   1  30
TORSDOF 11
