REMARK  Name = ZINC02917785
REMARK  5 active torsions:
REMARK  status: ('A' for Active; 'I' for Inactive)
REMARK    1  A    between atoms: C_1  and  C_2
REMARK    2  A    between atoms: C_7  and  C_8
REMARK    3  A    between atoms: C_11  and  C_22
REMARK    4  A    between atoms: C_25  and  O_28
REMARK    5  A    between atoms: O_28  and  C_29
REMARK                            x       y       z     vdW  Elec       q    Type
REMARK                         _______ _______ _______ _____ _____    ______ ____
ROOT
ATOM      1  C   UNL     1      -4.825   1.476  -0.044  0.00  0.00    +0.146 C 
ATOM      2  C   UNL     1      -3.653   2.409  -0.167  0.00  0.00    +0.026 C 
ATOM      3  C   UNL     1      -2.393   1.999  -0.208  0.00  0.00    +0.039 C 
ATOM      4  N   UNL     1      -2.049   0.644  -0.137  0.00  0.00    -0.285 N 
ATOM      5  C   UNL     1      -3.037  -0.241   0.266  0.00  0.00    +0.202 A 
ATOM      6  N   UNL     1      -4.361   0.138   0.320  0.00  0.00    -0.301 N 
ATOM      7  C   UNL     1      -5.071  -0.945   0.755  0.00  0.00    +0.071 A 
ATOM      8  C   UNL     1      -6.423  -1.150   1.001  0.00  0.00    +0.028 A 
ATOM      9  C   UNL     1      -6.800  -2.408   1.446  0.00  0.00    +0.002 A 
ATOM     10  C   UNL     1      -5.880  -3.424   1.640  0.00  0.00    +0.002 A 
ATOM     11  C   UNL     1      -4.529  -3.244   1.402  0.00  0.00    +0.030 A 
ATOM     12  C   UNL     1      -4.126  -1.982   0.953  0.00  0.00    +0.091 A 
ATOM     13  N   UNL     1      -2.913  -1.487   0.636  0.00  0.00    -0.214 NA
ATOM     14  H   UNL     1      -1.155   0.338  -0.356  0.00  0.00    +0.155 HD
ENDROOT
BRANCH   1  21
ATOM     15  C   UNL     1      -7.615   2.213  -0.188  0.00  0.00    +0.044 C 
ATOM     16  C   UNL     1      -6.889   1.765  -1.431  0.00  0.00    -0.045 A 
ATOM     17  C   UNL     1      -7.558   1.706  -2.639  0.00  0.00    +0.004 A 
ATOM     18  C   UNL     1      -6.892   1.294  -3.778  0.00  0.00    +0.000 A 
ATOM     19  C   UNL     1      -5.557   0.943  -3.709  0.00  0.00    +0.000 A 
ATOM     20  C   UNL     1      -4.887   1.006  -2.502  0.00  0.00    +0.006 A 
ATOM     21  C   UNL     1      -5.555   1.412  -1.361  0.00  0.00    -0.018 A 
ENDBRANCH   1  21
BRANCH   3  22
ATOM     22  C   UNL     1      -1.316   3.007  -0.339  0.00  0.00    -0.004 A 
ATOM     23  C   UNL     1       0.018   2.601  -0.384  0.00  0.00    +0.013 A 
ATOM     24  C   UNL     1       1.019   3.542  -0.511  0.00  0.00    +0.046 A 
ATOM     25  C   UNL     1       0.700   4.891  -0.590  0.00  0.00    +0.120 A 
ATOM     26  C   UNL     1      -0.627   5.298  -0.540  0.00  0.00    +0.046 A 
ATOM     27  C   UNL     1      -1.632   4.363  -0.413  0.00  0.00    +0.013 A 
BRANCH  25  28
ATOM     28  O   UNL     1       1.688   5.815  -0.715  0.00  0.00    -0.495 OA
ATOM     29  C   UNL     1       1.289   7.185  -0.790  0.00  0.00    +0.277 C 
ENDBRANCH  25  28
ENDBRANCH   3  22
TORSDOF 3
