REMARK  Name = ZINC45726182
REMARK  3 active torsions:
REMARK  status: ('A' for Active; 'I' for Inactive)
REMARK    1  A    between atoms: N_12  and  C_16
REMARK    2  A    between atoms: C_16  and  C_17
REMARK    3  A    between atoms: C_30  and  C_32
REMARK                            x       y       z     vdW  Elec       q    Type
REMARK                         _______ _______ _______ _____ _____    ______ ____
ROOT
ATOM      1  C   UNL     1       7.224  -1.963   2.223  0.00  0.00    +0.238 C 
ATOM      2  O   UNL     1       6.885  -2.874   1.498  0.00  0.00    -0.273 OA
ATOM      3  N   UNL     1       8.213  -2.148   3.119  0.00  0.00    -0.256 N 
ATOM      4  C   UNL     1       8.611  -1.106   3.968  0.00  0.00    +0.058 A 
ATOM      5  C   UNL     1       9.319  -0.023   3.473  0.00  0.00    +0.025 A 
ATOM      6  C   UNL     1       9.723   0.985   4.330  0.00  0.00    +0.002 A 
ATOM      7  C   UNL     1       9.425   0.914   5.679  0.00  0.00    +0.002 A 
ATOM      8  C   UNL     1       8.711  -0.159   6.179  0.00  0.00    +0.025 A 
ATOM      9  C   UNL     1       8.293  -1.167   5.325  0.00  0.00    +0.055 A 
ATOM     10  N   UNL     1       7.521  -2.234   5.798  0.00  0.00    -0.284 N 
ATOM     11  C   UNL     1       7.844  -3.507   5.479  0.00  0.00    +0.219 C 
ATOM     12  O   UNL     1       7.120  -4.416   5.826  0.00  0.00    -0.275 OA
ATOM     13  C   UNL     1       9.095  -3.803   4.696  0.00  0.00    +0.128 C 
ATOM     14  C   UNL     1       8.888  -3.443   3.228  0.00  0.00    +0.194 C 
ATOM     15  H   UNL     1       6.750  -2.059   6.360  0.00  0.00    +0.155 HD
ENDROOT
BRANCH  14  16
ATOM     16  C   UNL     1      10.249  -3.367   2.532  0.00  0.00    +0.409 C 
ATOM     17  F   UNL     1      11.030  -2.380   3.142  0.00  0.00    -0.169 F 
ATOM     18  F   UNL     1      10.895  -4.604   2.635  0.00  0.00    -0.169 F 
ATOM     19  F   UNL     1      10.064  -3.049   1.182  0.00  0.00    -0.169 F 
ENDBRANCH  14  16
BRANCH   1  20
ATOM     20  C   UNL     1       6.538  -0.625   2.123  0.00  0.00    +0.214 C 
BRANCH  20  32
ATOM     21  C   UNL     1      -0.017   1.377   0.010  0.00  0.00    +0.000 A 
ATOM     22  C   UNL     1       1.173   2.082   0.002  0.00  0.00    +0.000 A 
ATOM     23  C   UNL     1       2.376   1.405  -0.014  0.00  0.00    +0.006 A 
ATOM     24  C   UNL     1       2.398   0.019  -0.021  0.00  0.00    -0.012 A 
ATOM     25  C   UNL     1       1.207  -0.686  -0.012  0.00  0.00    -0.042 A 
ATOM     26  C   UNL     1       0.002  -0.004   0.002  0.00  0.00    +0.004 A 
ATOM     27  C   UNL     1       1.492  -2.174  -0.016  0.00  0.00    +0.038 C 
ATOM     28  C   UNL     1       2.966  -2.303  -0.460  0.00  0.00    +0.045 C 
ATOM     29  C   UNL     1       3.550  -0.948  -0.040  0.00  0.00    +0.138 C 
ATOM     30  C   UNL     1       4.224  -1.037   1.304  0.00  0.00    +0.251 C 
ATOM     31  O   UNL     1       3.721  -1.359   2.359  0.00  0.00    -0.272 OA
ATOM     32  N   UNL     1       5.508  -0.681   1.083  0.00  0.00    -0.215 N 
ATOM     33  C   UNL     1       5.722  -0.386  -0.206  0.00  0.00    +0.310 C 
ATOM     34  O   UNL     1       6.799  -0.038  -0.651  0.00  0.00    -0.252 OA
ATOM     35  N   UNL     1       4.608  -0.517  -0.955  0.00  0.00    -0.281 N 
ATOM     36  H   UNL     1       4.525  -0.357  -1.908  0.00  0.00    +0.152 HD
ENDBRANCH  20  32
ENDBRANCH   1  20
TORSDOF 3
