REMARK  Name = ZINC32719017
REMARK  3 active torsions:
REMARK  status: ('A' for Active; 'I' for Inactive)
REMARK    1  A    between atoms: C_6  and  C_7
REMARK    2  A    between atoms: C_13  and  C_15
REMARK    3  A    between atoms: C_15  and  N_16
REMARK                            x       y       z     vdW  Elec       q    Type
REMARK                         _______ _______ _______ _____ _____    ______ ____
ROOT
ATOM      1  C   UNL     1       1.368   1.960  -0.001  0.00  0.00    +0.106 C 
ATOM      2  C   UNL     1       2.291   0.724  -0.043  0.00  0.00    +0.029 C 
ATOM      3  C   UNL     1       1.368  -0.379  -0.625  0.00  0.00    +0.021 C 
ATOM      4  C   UNL     1       0.002  -0.004   0.002  0.00  0.00    +0.108 C 
ATOM      5  N   UNL     1      -0.018   1.470   0.010  0.00  0.00    -0.293 N 
ATOM      6  C   UNL     1      -1.124   2.240   0.020  0.00  0.00    +0.234 C 
ATOM      7  O   UNL     1      -1.021   3.449   0.025  0.00  0.00    -0.274 OA
ENDROOT
BRANCH   1  13
ATOM      8  C   UNL     1       1.131   2.334   2.462  0.00  0.00    +0.009 A 
ATOM      9  C   UNL     1       1.375   3.062   3.613  0.00  0.00    +0.050 A 
ATOM     10  C   UNL     1       2.131   4.220   3.545  0.00  0.00    +0.162 A 
ATOM     11  C   UNL     1       2.640   4.647   2.326  0.00  0.00    +0.162 A 
ATOM     12  C   UNL     1       2.399   3.913   1.178  0.00  0.00    +0.055 A 
ATOM     13  C   UNL     1       1.639   2.759   1.248  0.00  0.00    -0.023 A 
ATOM     14  O   UNL     1       3.383   5.791   2.269  0.00  0.00    -0.488 OA
ATOM     15  C   UNL     1       4.662   5.737   2.905  0.00  0.00    +0.232 C 
ATOM     16  C   UNL     1       4.538   6.024   4.393  0.00  0.00    +0.082 C 
ATOM     17  C   UNL     1       3.734   4.959   5.123  0.00  0.00    +0.232 C 
ATOM     18  O   UNL     1       2.378   4.949   4.672  0.00  0.00    -0.488 OA
ENDBRANCH   1  13
BRANCH   6  19
ATOM     19  C   UNL     1      -2.488   1.601   0.024  0.00  0.00    +0.213 C 
BRANCH  19  20
ATOM     20  N   UNL     1      -3.517   2.644   0.034  0.00  0.00    -0.215 N 
ATOM     21  C   UNL     1      -4.047   3.174   1.156  0.00  0.00    +0.247 C 
ATOM     22  O   UNL     1      -3.775   2.890   2.302  0.00  0.00    -0.273 OA
ATOM     23  C   UNL     1      -5.050   4.199   0.680  0.00  0.00    +0.113 C 
ATOM     24  C   UNL     1      -6.431   3.903   1.191  0.00  0.00    +0.035 C 
ATOM     25  C   UNL     1      -7.526   4.257   0.162  0.00  0.00    +0.003 C 
ATOM     26  C   UNL     1      -7.256   5.592  -0.559  0.00  0.00    +0.000 C 
ATOM     27  C   UNL     1      -6.747   6.657   0.373  0.00  0.00    +0.000 C 
ATOM     28  C   UNL     1      -5.206   6.653   0.322  0.00  0.00    +0.003 C 
ATOM     29  C   UNL     1      -4.623   5.605   1.149  0.00  0.00    +0.035 C 
ATOM     30  N   UNL     1      -4.976   4.122  -0.783  0.00  0.00    -0.285 N 
ATOM     31  C   UNL     1      -4.051   3.185  -1.068  0.00  0.00    +0.310 C 
ATOM     32  O   UNL     1      -3.737   2.866  -2.198  0.00  0.00    -0.252 OA
ATOM     33  H   UNL     1      -5.616   4.769  -1.401  0.00  0.00    +0.151 HD
ENDBRANCH  19  20
ENDBRANCH   6  19
TORSDOF 3
