REMARK  Name = ZINC48892418
REMARK  7 active torsions:
REMARK  status: ('A' for Active; 'I' for Inactive)
REMARK    1  A    between atoms: C_1  and  C_2
REMARK    2  A    between atoms: C_5  and  S_8
REMARK    3  A    between atoms: S_8  and  C_9
REMARK    4  A    between atoms: C_9  and  C_10
REMARK    5  A    between atoms: C_10  and  N_11
REMARK    6  A    between atoms: C_12  and  C_14
REMARK    7  A    between atoms: C_16  and  C_20
REMARK                            x       y       z     vdW  Elec       q    Type
REMARK                         _______ _______ _______ _____ _____    ______ ____
ROOT
ATOM      1  N   UNL     1       0.109  -6.867   3.292  0.00  0.00    -0.309 N 
ATOM      2  C   UNL     1       0.128  -8.164   3.656  0.00  0.00    +0.263 C 
ATOM      3  O   UNL     1       0.135  -9.035   2.806  0.00  0.00    -0.269 OA
ATOM      4  H   UNL     1       0.103  -6.173   3.969  0.00  0.00    +0.149 HD
ENDROOT
BRANCH   2   5
ATOM      5  C   UNL     1       0.140  -8.528   5.081  0.00  0.00    +0.134 A 
ATOM      6  C   UNL     1       0.164  -9.807   5.613  0.00  0.00    +0.070 A 
ATOM      7  C   UNL     1       0.167  -9.630   7.000  0.00  0.00    +0.074 A 
ATOM      8  N   UNL     1       0.145  -8.344   7.241  0.00  0.00    -0.177 NA
ATOM      9  N   UNL     1       0.134  -7.671   6.147  0.00  0.00    -0.271 N 
ATOM     10  H   UNL     1       0.122  -6.704   6.086  0.00  0.00    +0.189 HD
ATOM     11  C   UNL     1       0.190 -10.726   8.033  0.00  0.00    +0.068 C 
ATOM     12 BR   UNL     1       0.190 -11.443   4.665  0.00  0.00    -0.046 Br
ENDBRANCH   2   5
BRANCH   1  13
ATOM     13  C   UNL     1       0.097  -6.505   1.872  0.00  0.00    +0.115 C 
BRANCH  13  14
ATOM     14  C   UNL     1       0.077  -4.981   1.735  0.00  0.00    +0.093 C 
BRANCH  14  15
ATOM     15  S   UNL     1       0.062  -4.533  -0.023  0.00  0.00    -0.124 S 
BRANCH  15  20
ATOM     16  C   UNL     1      -0.018   1.503   0.010  0.00  0.00    +0.044 C 
ATOM     17  C   UNL     1       0.002  -0.004   0.002  0.00  0.00    -0.050 A 
ATOM     18  C   UNL     1       0.006  -0.687  -1.200  0.00  0.00    +0.004 A 
ATOM     19  C   UNL     1       0.024  -2.068  -1.212  0.00  0.00    +0.015 A 
ATOM     20  C   UNL     1       0.039  -2.771  -0.013  0.00  0.00    +0.008 A 
ATOM     21  C   UNL     1       0.036  -2.081   1.193  0.00  0.00    +0.015 A 
ATOM     22  C   UNL     1       0.023  -0.700   1.197  0.00  0.00    +0.004 A 
ENDBRANCH  15  20
ENDBRANCH  14  15
ENDBRANCH  13  14
ENDBRANCH   1  13
TORSDOF 5
