REMARK  Name = ZINC64181701
REMARK  10 active torsions:
REMARK  status: ('A' for Active; 'I' for Inactive)
REMARK    1  A    between atoms: C_1  and  C_2
REMARK    2  A    between atoms: C_3  and  C_30
REMARK    3  A    between atoms: C_4  and  C_29
REMARK    4  A    between atoms: C_7  and  C_8
REMARK    5  A    between atoms: C_8  and  C_10
REMARK    6  A    between atoms: C_10  and  C_12
REMARK    7  A    between atoms: C_10  and  S_13
REMARK    8  A    between atoms: S_13  and  C_14
REMARK    9  A    between atoms: N_19  and  C_20
REMARK   10  A    between atoms: C_30  and  C_32
REMARK                            x       y       z     vdW  Elec       q    Type
REMARK                         _______ _______ _______ _____ _____    ______ ____
ROOT
ATOM      1  S   UNL     1       0.357  -0.831   4.455  0.00  0.00    -0.107 S 
ENDROOT
BRANCH   1   2
ATOM      2  C   UNL     1       0.405  -1.571   6.110  0.00  0.00    +0.236 C 
ATOM      3  N   UNL     1       1.367  -2.687   6.149  0.00  0.00    -0.259 N 
ATOM      4  N   UNL     1       0.624  -3.830   6.470  0.00  0.00    -0.283 N 
ATOM      5  C   UNL     1      -0.626  -3.553   6.624  0.00  0.00    +0.178 C 
ATOM      6  N   UNL     1      -0.886  -2.202   6.431  0.00  0.00    -0.272 N 
ATOM      7  N   UNL     1      -1.596  -4.492   6.945  0.00  0.00    -0.304 N 
ATOM      8  C   UNL     1      -1.517  -5.861   6.416  0.00  0.00    +0.107 C 
ATOM      9  C   UNL     1      -1.594  -6.847   7.585  0.00  0.00    +0.019 C 
ATOM     10  C   UNL     1      -2.854  -6.562   8.406  0.00  0.00    +0.003 C 
ATOM     11  C   UNL     1      -2.785  -5.143   8.974  0.00  0.00    +0.019 C 
ATOM     12  C   UNL     1      -2.718  -4.139   7.825  0.00  0.00    +0.107 C 
ATOM     13  H   UNL     1       2.322  -2.639   5.986  0.00  0.00    +0.169 HD
ATOM     14  H   UNL     1       1.002  -4.718   6.564  0.00  0.00    +0.187 HD
BRANCH   6  15
ATOM     15  C   UNL     1      -2.187  -1.534   6.528  0.00  0.00    +0.079 C 
ATOM     16  C   UNL     1      -2.242  -0.043   6.193  0.00  0.00    +0.024 C 
ATOM     17  C   UNL     1      -2.372  -0.506   7.646  0.00  0.00    +0.024 C 
ENDBRANCH   6  15
ENDBRANCH   1   2
BRANCH   1  18
ATOM     18  C   UNL     1       0.160  -2.251   3.344  0.00  0.00    +0.119 C 
ATOM     19  C   UNL     1      -1.251  -2.825   3.495  0.00  0.00    +0.027 C 
BRANCH  18  20
ATOM     20  C   UNL     1       0.371  -1.808   1.919  0.00  0.00    +0.192 C 
ATOM     21  O   UNL     1       0.180  -0.650   1.609  0.00  0.00    -0.289 OA
BRANCH  20  28
ATOM     22  C   UNL     1       0.874  -1.138  -1.073  0.00  0.00    +0.047 C 
ATOM     23  C   UNL     1       1.023  -2.472  -0.388  0.00  0.00    -0.012 A 
ATOM     24  C   UNL     1       1.432  -3.686  -0.987  0.00  0.00    +0.041 A 
ATOM     25  C   UNL     1       1.429  -4.652   0.008  0.00  0.00    +0.024 A 
ATOM     26  N   UNL     1       1.043  -4.083   1.158  0.00  0.00    -0.355 N 
ATOM     27  H   UNL     1       0.956  -4.540   2.009  0.00  0.00    +0.166 HD
ATOM     28  C   UNL     1       0.793  -2.742   0.942  0.00  0.00    +0.087 A 
ATOM     29  C   UNL     1       1.798  -6.102  -0.174  0.00  0.00    +0.064 C 
BRANCH  24  30
ATOM     30  C   UNL     1       1.791  -3.885  -2.395  0.00  0.00    +0.162 C 
ATOM     31  O   UNL     1       0.950  -4.250  -3.189  0.00  0.00    -0.292 OA
ATOM     32  C   UNL     1       3.205  -3.637  -2.854  0.00  0.00    +0.091 C 
ENDBRANCH  24  30
ENDBRANCH  20  28
ENDBRANCH  18  20
ENDBRANCH   1  18
TORSDOF 6
