REMARK  Name = ZINC24790912
REMARK  12 active torsions:
REMARK  status: ('A' for Active; 'I' for Inactive)
REMARK    1  A    between atoms: C_1  and  C_2
REMARK    2  A    between atoms: C_2  and  C_3
REMARK    3  A    between atoms: C_3  and  C_27
REMARK    4  A    between atoms: N_6  and  N_10
REMARK    5  A    between atoms: C_11  and  C_13
REMARK    6  A    between atoms: C_13  and  N_14
REMARK    7  A    between atoms: N_14  and  C_15
REMARK    8  A    between atoms: N_14  and  C_17
REMARK    9  A    between atoms: C_15  and  C_16
REMARK   10  A    between atoms: C_17  and  C_18
REMARK   11  A    between atoms: N_20  and  C_21
REMARK   12  A    between atoms: C_21  and  C_22
REMARK                            x       y       z     vdW  Elec       q    Type
REMARK                         _______ _______ _______ _____ _____    ______ ____
ROOT
ATOM      1  N   UNL     1       8.694  -1.750  -4.719  0.00  0.00    -0.225 N 
ATOM      2  C   UNL     1       7.985  -1.178  -3.725  0.00  0.00    +0.213 C 
ATOM      3  O   UNL     1       8.440  -1.137  -2.602  0.00  0.00    -0.276 OA
ATOM      4  H   UNL     1       8.282  -1.787  -5.738  0.00  0.00    +0.173 HD
ENDROOT
BRANCH   1   8
ATOM      5  C   UNL     1      12.209  -2.655  -4.323  0.00  0.00    +0.139 C 
ATOM      6  C   UNL     1      11.121  -1.720  -4.813  0.00  0.00    +0.268 C 
ATOM      7  O   UNL     1      11.268  -0.671  -5.403  0.00  0.00    -0.271 OA
ATOM      8  N   UNL     1       9.957  -2.296  -4.454  0.00  0.00    -0.137 N 
ATOM      9  C   UNL     1      10.155  -3.457  -3.819  0.00  0.00    +0.327 C 
ATOM     10  O   UNL     1       9.257  -4.161  -3.403  0.00  0.00    -0.251 OA
ATOM     11  N   UNL     1      11.461  -3.756  -3.692  0.00  0.00    -0.280 N 
ATOM     12  H   UNL     1      12.002  -4.601  -3.241  0.00  0.00    +0.152 HD
BRANCH   5  13
ATOM     13  C   UNL     1      13.026  -3.165  -5.482  0.00  0.00    -0.015 A 
ATOM     14  C   UNL     1      14.202  -2.528  -5.832  0.00  0.00    +0.006 A 
ATOM     15  C   UNL     1      14.954  -2.999  -6.892  0.00  0.00    +0.000 A 
ATOM     16  C   UNL     1      14.524  -4.100  -7.609  0.00  0.00    +0.000 A 
ATOM     17  C   UNL     1      13.346  -4.734  -7.263  0.00  0.00    +0.000 A 
ATOM     18  C   UNL     1      12.596  -4.266  -6.199  0.00  0.00    +0.006 A 
ENDBRANCH   5  13
BRANCH   5  20
ATOM     19  C   UNL     1      12.265  -1.515  -2.100  0.00  0.00    +0.007 C 
ATOM     20  C   UNL     1      13.107  -1.959  -3.299  0.00  0.00    +0.037 C 
ENDBRANCH   5  20
ENDBRANCH   1   8
BRANCH   2  21
ATOM     21  C   UNL     1       6.627  -0.591  -4.010  0.00  0.00    +0.021 C 
BRANCH  21  22
ATOM     22  N   UNL     1       6.008  -0.154  -2.751  0.00  0.00    +0.391 N 
ATOM     23  H   UNL     1       6.784   0.340  -2.147  0.00  0.00    -0.080 HD
BRANCH  22  24
ATOM     24  C   UNL     1       4.940   0.822  -3.000  0.00  0.00    -0.081 C 
ATOM     25  C   UNL     1       5.556   2.155  -3.428  0.00  0.00    -0.017 C 
ENDBRANCH  22  24
BRANCH  22  26
ATOM     26  C   UNL     1       5.504  -1.303  -1.987  0.00  0.00    +0.019 C 
BRANCH  26  27
ATOM     27  C   UNL     1       5.103  -0.851  -0.606  0.00  0.00    +0.197 C 
ATOM     28  O   UNL     1       5.225   0.314  -0.290  0.00  0.00    -0.278 OA
ATOM     29  N   UNL     1       4.609  -1.741   0.277  0.00  0.00    -0.312 N 
ATOM     30  H   UNL     1       4.498  -2.797  -0.009  0.00  0.00    +0.149 HD
BRANCH  29  31
ATOM     31  C   UNL     1       4.218  -1.301   1.619  0.00  0.00    +0.146 C 
BRANCH  31  32
ATOM     32  C   UNL     1       3.701  -2.480   2.403  0.00  0.00    +0.007 A 
ATOM     33  C   UNL     1       4.383  -3.343   3.195  0.00  0.00    +0.013 A 
ATOM     34  C   UNL     1       3.694  -4.366   3.819  0.00  0.00    +0.008 A 
ATOM     35  C   UNL     1       2.355  -4.468   3.631  0.00  0.00    +0.045 A 
ATOM     36  S   UNL     1       2.032  -3.100   2.531  0.00  0.00    -0.100 S 
ENDBRANCH  31  32
ENDBRANCH  29  31
ENDBRANCH  26  27
ENDBRANCH  22  26
ENDBRANCH  21  22
ENDBRANCH   2  21
TORSDOF 10
