REMARK  Name = ZINC32107085
REMARK  11 active torsions:
REMARK  status: ('A' for Active; 'I' for Inactive)
REMARK    1  A    between atoms: C_1  and  C_2
REMARK    2  A    between atoms: C_5  and  S_8
REMARK    3  A    between atoms: S_8  and  O_11
REMARK    4  A    between atoms: O_11  and  C_12
REMARK    5  A    between atoms: C_12  and  C_14
REMARK    6  A    between atoms: C_12  and  C_24
REMARK    7  A    between atoms: C_14  and  N_15
REMARK    8  A    between atoms: C_16  and  C_18
REMARK    9  A    between atoms: C_26  and  O_38
REMARK   10  A    between atoms: C_34  and  C_36
REMARK   11  A    between atoms: C_34  and  C_37
REMARK                            x       y       z     vdW  Elec       q    Type
REMARK                         _______ _______ _______ _____ _____    ______ ____
ROOT
ATOM      1  C   UNL     1       3.411   3.475  -2.158  0.00  0.00    +0.198 C 
ENDROOT
BRANCH   1   2
ATOM      2  C   UNL     1       4.091   4.845  -2.217  0.00  0.00    +0.185 C 
ATOM      3  C   UNL     1       5.450   4.724  -2.936  0.00  0.00    +0.180 C 
ATOM      4  C   UNL     1       6.351   5.687  -2.125  0.00  0.00    +0.208 C 
ATOM      5  C   UNL     1       5.751   5.532  -0.692  0.00  0.00    +0.285 C 
ATOM      6  O   UNL     1       4.346   5.318  -0.890  0.00  0.00    -0.340 OA
ATOM      7  O   UNL     1       5.937   6.844  -0.125  0.00  0.00    -0.318 OA
ATOM      8  C   UNL     1       6.133   7.764  -1.195  0.00  0.00    +0.168 C 
ATOM      9  O   UNL     1       6.017   7.055  -2.439  0.00  0.00    -0.338 OA
ATOM     10  C   UNL     1       7.517   8.410  -1.099  0.00  0.00    +0.074 C 
ATOM     11  C   UNL     1       5.057   8.849  -1.119  0.00  0.00    +0.074 C 
BRANCH   3  12
ATOM     12  O   UNL     1       5.945   3.385  -2.863  0.00  0.00    -0.386 OA
ATOM     13  H   UNL     1       6.908   3.129  -3.329  0.00  0.00    +0.210 HD
ENDBRANCH   3  12
ENDBRANCH   1   2
BRANCH   1  14
ATOM     14  O   UNL     1       4.268   2.546  -1.491  0.00  0.00    -0.227 OA
BRANCH  14  15
ATOM     15  S   UNL     1       3.917   2.321  -0.028  0.00  0.00    +0.112 S 
ATOM     16  O   UNL     1       3.535   3.585   0.498  0.00  0.00    -0.142 OA
ATOM     17  O   UNL     1       4.974   1.552   0.529  0.00  0.00    -0.142 OA
BRANCH  15  22
ATOM     18  C   UNL     1      -1.009  -1.161   0.111  0.00  0.00    +0.044 C 
ATOM     19  C   UNL     1       0.222  -0.292   0.076  0.00  0.00    -0.050 A 
ATOM     20  C   UNL     1       0.094   1.085   0.047  0.00  0.00    +0.005 A 
ATOM     21  C   UNL     1       1.223   1.882   0.016  0.00  0.00    +0.030 A 
ATOM     22  C   UNL     1       2.478   1.304   0.013  0.00  0.00    +0.117 A 
ATOM     23  C   UNL     1       2.606  -0.072   0.043  0.00  0.00    +0.030 A 
ATOM     24  C   UNL     1       1.477  -0.870   0.075  0.00  0.00    +0.005 A 
ENDBRANCH  15  22
ENDBRANCH  14  15
ENDBRANCH   1  14
BRANCH   1  25
ATOM     25  C   UNL     1       3.132   2.983  -3.579  0.00  0.00    +0.141 C 
BRANCH  25  26
ATOM     26  N   UNL     1       2.375   1.730  -3.522  0.00  0.00    -0.309 N 
ATOM     27  C   UNL     1       2.015   1.108  -4.663  0.00  0.00    +0.244 C 
ATOM     28  O   UNL     1       2.318   1.587  -5.738  0.00  0.00    -0.270 OA
ATOM     29  H   UNL     1       2.101   1.297  -2.549  0.00  0.00    +0.149 HD
BRANCH  27  30
ATOM     30  C   UNL     1       1.251  -0.157  -4.605  0.00  0.00    +0.037 A 
ATOM     31  C   UNL     1       0.907  -0.712  -3.372  0.00  0.00    +0.013 A 
ATOM     32  C   UNL     1       0.191  -1.890  -3.325  0.00  0.00    +0.001 A 
ATOM     33  C   UNL     1      -0.178  -2.526  -4.497  0.00  0.00    +0.000 A 
ATOM     34  C   UNL     1       0.164  -1.983  -5.723  0.00  0.00    +0.001 A 
ATOM     35  C   UNL     1       0.876  -0.803  -5.784  0.00  0.00    +0.013 A 
ENDBRANCH  27  30
ENDBRANCH  25  26
ENDBRANCH   1  25
TORSDOF 8
