REMARK  Name = ZINC39912115
REMARK  10 active torsions:
REMARK  status: ('A' for Active; 'I' for Inactive)
REMARK    1  A    between atoms: C_1  and  C_2
REMARK    2  A    between atoms: C_4  and  C_33
REMARK    3  A    between atoms: C_5  and  O_32
REMARK    4  A    between atoms: C_6  and  C_8
REMARK    5  A    between atoms: N_16  and  C_29
REMARK    6  A    between atoms: C_17  and  C_19
REMARK    7  A    between atoms: C_21  and  O_27
REMARK    8  A    between atoms: C_22  and  O_26
REMARK    9  A    between atoms: O_27  and  C_28
REMARK   10  A    between atoms: C_29  and  C_30
REMARK                            x       y       z     vdW  Elec       q    Type
REMARK                         _______ _______ _______ _____ _____    ______ ____
ROOT
ATOM      1  C   UNL     1       0.431  -2.618   2.340  0.00  0.00    +0.102 A 
ATOM      2  C   UNL     1       0.352  -2.191   3.670  0.00  0.00    +0.035 A 
ATOM      3  C   UNL     1       0.464  -3.333   4.440  0.00  0.00    +0.126 A 
ATOM      4  N   UNL     1       0.602  -4.370   3.561  0.00  0.00    -0.272 N 
ATOM      5  H   UNL     1       0.702  -5.302   3.811  0.00  0.00    +0.189 HD
ATOM      6  N   UNL     1       0.574  -3.928   2.355  0.00  0.00    -0.173 NA
ATOM      7  C   UNL     1       0.388  -2.952   5.854  0.00  0.00    +0.266 C 
ATOM      8  O   UNL     1       0.455  -3.729   6.787  0.00  0.00    -0.268 OA
ATOM      9  N   UNL     1       0.234  -1.621   5.973  0.00  0.00    -0.281 N 
ATOM     10  C   UNL     1       0.199  -1.039   4.625  0.00  0.00    +0.142 C 
ENDROOT
BRANCH   1  16
ATOM     11  C   UNL     1       0.267   1.930   0.287  0.00  0.00    +0.044 C 
ATOM     12  C   UNL     1       0.281   0.430   0.143  0.00  0.00    -0.049 A 
ATOM     13  C   UNL     1       0.225  -0.142  -1.115  0.00  0.00    +0.010 A 
ATOM     14  C   UNL     1       0.237  -1.516  -1.258  0.00  0.00    -0.008 A 
ATOM     15  C   UNL     1       0.304  -2.330  -0.138  0.00  0.00    +0.129 A 
ATOM     16  C   UNL     1       0.360  -1.755   1.135  0.00  0.00    +0.044 A 
ATOM     17  C   UNL     1       0.353  -0.368   1.267  0.00  0.00    +0.017 A 
ATOM     18  C   UNL     1       0.177  -2.132  -2.632  0.00  0.00    +0.047 C 
BRANCH  15  19
ATOM     19  O   UNL     1       0.314  -3.681  -0.276  0.00  0.00    -0.506 OA
ATOM     20  H   UNL     1       1.200  -4.061  -0.360  0.00  0.00    +0.292 HD
ENDBRANCH  15  19
ENDBRANCH   1  16
BRANCH  10  21
ATOM     21  C   UNL     1      -1.119  -0.345   4.394  0.00  0.00    -0.018 A 
ATOM     22  C   UNL     1      -2.299  -0.962   4.767  0.00  0.00    +0.055 A 
ATOM     23  C   UNL     1      -3.511  -0.326   4.556  0.00  0.00    +0.163 A 
ATOM     24  C   UNL     1      -3.538   0.935   3.967  0.00  0.00    +0.173 A 
ATOM     25  C   UNL     1      -2.353   1.549   3.596  0.00  0.00    +0.063 A 
ATOM     26  C   UNL     1      -1.145   0.910   3.815  0.00  0.00    +0.025 A 
ATOM     27 BR   UNL     1      -2.384   3.262   2.796  0.00  0.00    -0.046 Br
BRANCH  24  28
ATOM     28  O   UNL     1      -4.726   1.563   3.757  0.00  0.00    -0.503 OA
ATOM     29  H   UNL     1      -5.013   2.119   4.495  0.00  0.00    +0.292 HD
ENDBRANCH  24  28
BRANCH  23  30
ATOM     30  O   UNL     1      -4.672  -0.932   4.921  0.00  0.00    -0.491 OA
ATOM     31  C   UNL     1      -4.578  -2.272   5.409  0.00  0.00    +0.277 C 
ENDBRANCH  23  30
ENDBRANCH  10  21
BRANCH   9  32
ATOM     32  C   UNL     1       0.121  -0.879   7.232  0.00  0.00    +0.135 C 
BRANCH  32  33
ATOM     33  C   UNL     1       1.494  -0.464   7.695  0.00  0.00    -0.016 C 
ATOM     34  C   UNL     1       1.748   0.797   7.943  0.00  0.00    +0.005 C 
ENDBRANCH  32  33
ENDBRANCH   9  32
TORSDOF 7
