REMARK  Name = ZINC12557146
REMARK  6 active torsions:
REMARK  status: ('A' for Active; 'I' for Inactive)
REMARK    1  A    between atoms: C_1  and  C_2
REMARK    2  A    between atoms: C_7  and  C_10
REMARK    3  A    between atoms: C_11  and  C_13
REMARK    4  A    between atoms: C_16  and  N_19
REMARK    5  A    between atoms: N_19  and  S_20
REMARK    6  A    between atoms: S_20  and  C_23
REMARK                            x       y       z     vdW  Elec       q    Type
REMARK                         _______ _______ _______ _____ _____    ______ ____
ROOT
ATOM      1  N   UNL     1      -1.181  -0.784  -0.112  0.00  0.00    -0.216 N 
ATOM      2  H   UNL     1      -1.605  -1.052   0.718  0.00  0.00    +0.174 HD
ENDROOT
BRANCH   1   6
ATOM      3  C   UNL     1       2.286   1.517  -0.031  0.00  0.00    +0.037 A 
ATOM      4  C   UNL     1       1.063   2.104  -0.368  0.00  0.00    +0.015 A 
ATOM      5  C   UNL     1      -0.082   1.341  -0.394  0.00  0.00    +0.025 A 
ATOM      6  C   UNL     1      -0.023  -0.015  -0.085  0.00  0.00    +0.048 A 
ATOM      7  C   UNL     1       1.194  -0.603   0.252  0.00  0.00    +0.025 A 
ATOM      8  C   UNL     1       2.342   0.155   0.280  0.00  0.00    +0.015 A 
BRANCH   3  17
ATOM      9  C   UNL     1       5.056   4.423   2.604  0.00  0.00    +0.039 C 
ATOM     10  C   UNL     1       4.739   5.344   1.425  0.00  0.00    +0.133 C 
ATOM     11  C   UNL     1       4.632   4.513   0.141  0.00  0.00    +0.139 C 
ATOM     12  N   UNL     1       3.440   3.656   0.241  0.00  0.00    -0.293 N 
ATOM     13  C   UNL     1       2.163   4.287   0.609  0.00  0.00    +0.139 C 
ATOM     14  C   UNL     1       2.391   5.128   1.875  0.00  0.00    +0.133 C 
ATOM     15  O   UNL     1       3.496   6.010   1.659  0.00  0.00    -0.371 OA
ATOM     16  C   UNL     1       1.135   5.948   2.176  0.00  0.00    +0.039 C 
ATOM     17  C   UNL     1       3.515   2.333  -0.003  0.00  0.00    +0.247 C 
ATOM     18  O   UNL     1       4.595   1.811  -0.200  0.00  0.00    -0.270 OA
ENDBRANCH   3  17
ENDBRANCH   1   6
BRANCH   1  19
ATOM     19  S   UNL     1      -1.837  -1.242  -1.562  0.00  0.00    +0.072 S 
ATOM     20  O   UNL     1      -2.950  -2.072  -1.260  0.00  0.00    -0.150 OA
ATOM     21  O   UNL     1      -1.956  -0.062  -2.345  0.00  0.00    -0.150 OA
BRANCH  19  22
ATOM     22  C   UNL     1      -0.651  -2.264  -2.371  0.00  0.00    +0.111 A 
ATOM     23  C   UNL     1      -0.727  -3.640  -2.244  0.00  0.00    +0.031 A 
ATOM     24  C   UNL     1       0.198  -4.450  -2.874  0.00  0.00    +0.030 A 
ATOM     25  C   UNL     1       1.206  -3.881  -3.638  0.00  0.00    +0.067 A 
ATOM     26  C   UNL     1       1.283  -2.493  -3.765  0.00  0.00    +0.069 A 
ATOM     27  C   UNL     1       0.347  -1.689  -3.133  0.00  0.00    +0.056 A 
ATOM     28  N   UNL     1       2.381  -2.224  -4.578  0.00  0.00    -0.306 N 
ATOM     29  H   UNL     1       2.687  -1.343  -4.846  0.00  0.00    +0.170 HD
ATOM     30  C   UNL     1       2.947  -3.394  -4.928  0.00  0.00    +0.325 A 
ATOM     31  O   UNL     1       3.929  -3.514  -5.637  0.00  0.00    -0.247 OA
ATOM     32  N   UNL     1       2.261  -4.413  -4.377  0.00  0.00    -0.306 N 
ATOM     33  H   UNL     1       2.466  -5.355  -4.476  0.00  0.00    +0.170 HD
ENDBRANCH  19  22
ENDBRANCH   1  19
TORSDOF 4
