REMARK  Name = ZINC39630812
REMARK  11 active torsions:
REMARK  status: ('A' for Active; 'I' for Inactive)
REMARK    1  A    between atoms: C_1  and  C_2
REMARK    2  A    between atoms: C_5  and  C_10
REMARK    3  A    between atoms: C_14  and  C_23
REMARK    4  A    between atoms: N_25  and  C_26
REMARK    5  A    between atoms: C_26  and  C_27
REMARK    6  A    between atoms: C_27  and  C_28
REMARK    7  A    between atoms: C_27  and  C_29
REMARK    8  A    between atoms: C_27  and  C_30
REMARK    9  A    between atoms: C_30  and  N_31
REMARK   10  A    between atoms: N_31  and  C_32
REMARK   11  A    between atoms: N_31  and  C_33
REMARK                            x       y       z     vdW  Elec       q    Type
REMARK                         _______ _______ _______ _____ _____    ______ ____
ROOT
ATOM      1  C   UNL     1       1.530  -2.492  -0.631  0.00  0.00    +0.250 C 
ATOM      2  O   UNL     1       1.898  -2.889   0.458  0.00  0.00    -0.270 OA
ATOM      3  N   UNL     1       1.272  -3.373  -1.617  0.00  0.00    -0.296 N 
ATOM      4  C   UNL     1       0.931  -3.081  -3.030  0.00  0.00    +0.121 C 
ATOM      5  C   UNL     1       1.687  -4.155  -3.844  0.00  0.00    +0.100 C 
ATOM      6  C   UNL     1       1.902  -5.316  -2.858  0.00  0.00    -0.004 C 
ATOM      7  C   UNL     1       1.271  -4.853  -1.537  0.00  0.00    +0.115 C 
ATOM      8  C   UNL     1       3.392  -5.574  -2.663  0.00  0.00    -0.010 C 
ATOM      9  C   UNL     1       3.580  -6.769  -1.724  0.00  0.00    -0.082 C 
ATOM     10  N   UNL     1       2.929  -7.952  -2.299  0.00  0.00    +0.379 N 
ATOM     11  C   UNL     1       1.481  -7.729  -2.398  0.00  0.00    -0.082 C 
ATOM     12  C   UNL     1       1.205  -6.575  -3.365  0.00  0.00    -0.010 C 
ATOM     13  H   UNL     1       3.304  -8.127  -3.219  0.00  0.00    -0.086 HD
ATOM     14  H   UNL     1       3.105  -8.752  -1.709  0.00  0.00    -0.086 HD
ENDROOT
BRANCH   1  19
ATOM     15  C   UNL     1       0.881   3.150  -1.574  0.00  0.00    +0.047 C 
ATOM     16  C   UNL     1       1.053   1.673  -1.326  0.00  0.00    -0.012 A 
ATOM     17  C   UNL     1       0.316   0.761  -2.061  0.00  0.00    +0.007 A 
ATOM     18  C   UNL     1       0.466  -0.592  -1.840  0.00  0.00    +0.016 A 
ATOM     19  C   UNL     1       1.365  -1.044  -0.872  0.00  0.00    +0.075 A 
ATOM     20  C   UNL     1       2.108  -0.120  -0.132  0.00  0.00    +0.171 A 
ATOM     21  C   UNL     1       1.951   1.236  -0.368  0.00  0.00    +0.162 A 
ATOM     22  F   UNL     1       2.671   2.132   0.341  0.00  0.00    -0.202 F 
ATOM     23  F   UNL     1       2.981  -0.548   0.807  0.00  0.00    -0.202 F 
ENDBRANCH   1  19
BRANCH   5  24
ATOM     24  C   UNL     1       0.855  -4.606  -5.017  0.00  0.00    +0.218 C 
ATOM     25  O   UNL     1      -0.353  -4.508  -4.977  0.00  0.00    -0.275 OA
ATOM     26  N   UNL     1       1.454  -5.118  -6.110  0.00  0.00    -0.315 N 
ATOM     27  H   UNL     1       2.420  -5.196  -6.143  0.00  0.00    +0.149 HD
BRANCH  26  28
ATOM     28  C   UNL     1       0.645  -5.557  -7.251  0.00  0.00    +0.108 C 
BRANCH  28  29
ATOM     29  C   UNL     1       1.563  -6.093  -8.351  0.00  0.00    -0.034 C 
ATOM     30  C   UNL     1       2.521  -4.987  -8.800  0.00  0.00    +0.010 C 
ATOM     31  C   UNL     1       2.369  -7.276  -7.811  0.00  0.00    +0.010 C 
BRANCH  29  32
ATOM     32  C   UNL     1       0.719  -6.551  -9.541  0.00  0.00    -0.072 C 
BRANCH  32  33
ATOM     33  N   UNL     1       1.599  -7.092 -10.586  0.00  0.00    +0.376 N 
ATOM     34  C   UNL     1       1.861  -8.512 -10.319  0.00  0.00    -0.097 C 
ATOM     35  C   UNL     1       0.947  -6.952 -11.896  0.00  0.00    -0.097 C 
ATOM     36  H   UNL     1       2.470  -6.583 -10.589  0.00  0.00    -0.083 HD
ENDBRANCH  32  33
ENDBRANCH  29  32
ENDBRANCH  28  29
ENDBRANCH  26  28
ENDBRANCH   5  24
TORSDOF 6
