REMARK  Name = ZINC05704914
REMARK  2 active torsions:
REMARK  status: ('A' for Active; 'I' for Inactive)
REMARK    1  A    between atoms: C_8  and  C_12
REMARK    2  A    between atoms: N_17  and  C_18
REMARK                            x       y       z     vdW  Elec       q    Type
REMARK                         _______ _______ _______ _____ _____    ______ ____
ROOT
ATOM      1  C   UNL     1      -5.002   3.842   0.440  0.00  0.00    +0.087 A 
ATOM      2  C   UNL     1      -6.140   3.107   0.250  0.00  0.00    +0.077 A 
ATOM      3  S   UNL     1      -7.340   4.408  -0.001  0.00  0.00    -0.060 S 
ATOM      4  C   UNL     1      -6.215   5.787   0.162  0.00  0.00    +0.163 A 
ATOM      5  N   UNL     1      -5.070   5.170   0.388  0.00  0.00    -0.224 NA
ATOM      6  N   UNL     1      -6.476   7.146   0.074  0.00  0.00    -0.291 N 
ATOM      7  H   UNL     1      -5.743   7.781   0.079  0.00  0.00    +0.154 HD
ENDROOT
BRANCH   1  15
ATOM      8  C   UNL     1       1.040   3.199   1.550  0.00  0.00    +0.001 A 
ATOM      9  C   UNL     1       1.042   1.812   1.592  0.00  0.00    +0.004 A 
ATOM     10  C   UNL     1      -0.126   1.102   1.407  0.00  0.00    +0.047 A 
ATOM     11  C   UNL     1      -1.318   1.777   1.170  0.00  0.00    +0.139 A 
ATOM     12  C   UNL     1      -1.317   3.182   1.134  0.00  0.00    +0.018 A 
ATOM     13  C   UNL     1      -0.120   3.884   1.324  0.00  0.00    +0.011 A 
ATOM     14  C   UNL     1      -2.569   3.900   0.891  0.00  0.00    +0.028 A 
ATOM     15  C   UNL     1      -3.709   3.167   0.694  0.00  0.00    +0.086 A 
ATOM     16  C   UNL     1      -3.631   1.704   0.751  0.00  0.00    +0.347 A 
ATOM     17  O   UNL     1      -4.639   1.042   0.587  0.00  0.00    -0.244 OA
ATOM     18  O   UNL     1      -2.463   1.086   0.982  0.00  0.00    -0.422 OA
ENDBRANCH   1  15
BRANCH   6  19
ATOM     19  C   UNL     1      -7.795   7.600  -0.022  0.00  0.00    +0.068 A 
ATOM     20  C   UNL     1      -8.824   6.880   0.572  0.00  0.00    +0.026 A 
ATOM     21  C   UNL     1     -10.126   7.332   0.476  0.00  0.00    +0.002 A 
ATOM     22  C   UNL     1     -10.407   8.499  -0.210  0.00  0.00    +0.003 A 
ATOM     23  C   UNL     1      -9.386   9.220  -0.802  0.00  0.00    +0.040 A 
ATOM     24  C   UNL     1      -8.079   8.777  -0.706  0.00  0.00    +0.144 A 
ATOM     25  F   UNL     1      -7.082   9.483  -1.281  0.00  0.00    -0.204 F 
ENDBRANCH   6  19
TORSDOF 2
