REMARK  Name = ZINC39722579
REMARK  6 active torsions:
REMARK  status: ('A' for Active; 'I' for Inactive)
REMARK    1  A    between atoms: C_1  and  N_2
REMARK    2  A    between atoms: C_3  and  C_26
REMARK    3  A    between atoms: C_7  and  S_9
REMARK    4  A    between atoms: S_9  and  C_10
REMARK    5  A    between atoms: C_10  and  C_11
REMARK    6  A    between atoms: C_19  and  C_23
REMARK                            x       y       z     vdW  Elec       q    Type
REMARK                         _______ _______ _______ _____ _____    ______ ____
ROOT
ATOM      1  S   UNL     1       0.173  -2.083   1.736  0.00  0.00    -0.109 S 
ENDROOT
BRANCH   1   7
ATOM      2  C   UNL     1       0.104   1.493   0.035  0.00  0.00    +0.110 C 
ATOM      3  N   UNL     1       0.065   0.025   0.028  0.00  0.00    -0.248 NA
ATOM      4  C   UNL     1       0.757  -0.520  -1.168  0.00  0.00    +0.244 C 
ATOM      5  N   UNL     1       2.131  -0.780  -0.720  0.00  0.00    -0.167 NA
ATOM      6  N   UNL     1       2.205  -0.788   0.513  0.00  0.00    -0.160 NA
ATOM      7  C   UNL     1       0.894  -0.535   1.125  0.00  0.00    +0.258 C 
BRANCH   4   8
ATOM      8  C   UNL     1       0.749   0.508  -2.302  0.00  0.00    +0.252 C 
ATOM      9  C   UNL     1       1.337  -0.120  -3.573  0.00  0.00    +0.277 C 
ATOM     10  O   UNL     1       1.328   0.870  -4.607  0.00  0.00    -0.485 OA
ATOM     11  C   UNL     1       1.786   2.108  -4.273  0.00  0.00    +0.162 A 
ATOM     12  C   UNL     1       2.145   2.995  -5.277  0.00  0.00    +0.049 A 
ATOM     13  C   UNL     1       2.609   4.256  -4.954  0.00  0.00    +0.004 A 
ATOM     14  C   UNL     1       2.716   4.637  -3.629  0.00  0.00    +0.004 A 
ATOM     15  C   UNL     1       2.361   3.757  -2.624  0.00  0.00    +0.049 A 
ATOM     16  C   UNL     1       1.897   2.490  -2.942  0.00  0.00    +0.163 A 
ATOM     17  O   UNL     1       1.558   1.632  -1.940  0.00  0.00    -0.478 OA
ENDBRANCH   4   8
ENDBRANCH   1   7
BRANCH   1  18
ATOM     18  C   UNL     1       0.164  -3.166   0.281  0.00  0.00    +0.146 C 
BRANCH  18  19
ATOM     19  C   UNL     1      -0.420  -4.505   0.655  0.00  0.00    +0.120 A 
ATOM     20  N   UNL     1      -0.507  -5.461  -0.306  0.00  0.00    -0.310 N 
ATOM     21  H   UNL     1      -0.196  -5.269  -1.205  0.00  0.00    +0.170 HD
ATOM     22  C   UNL     1      -1.022  -6.679  -0.021  0.00  0.00    +0.259 A 
ATOM     23  O   UNL     1      -1.106  -7.545  -0.872  0.00  0.00    -0.267 OA
ATOM     24  C   UNL     1      -1.478  -6.917   1.359  0.00  0.00    +0.065 A 
ATOM     25  C   UNL     1      -2.023  -8.138   1.753  0.00  0.00    +0.016 A 
ATOM     26  C   UNL     1      -2.433  -8.315   3.043  0.00  0.00    +0.016 A 
ATOM     27  C   UNL     1      -2.310  -7.280   3.979  0.00  0.00    +0.065 A 
ATOM     28  C   UNL     1      -1.770  -6.054   3.606  0.00  0.00    +0.043 A 
ATOM     29  C   UNL     1      -1.347  -5.862   2.289  0.00  0.00    +0.079 A 
ATOM     30  N   UNL     1      -0.808  -4.686   1.880  0.00  0.00    -0.233 NA
BRANCH  27  31
ATOM     31  C   UNL     1      -2.760  -7.491   5.371  0.00  0.00    +0.387 C 
ATOM     32  O   UNL     1      -3.236  -8.567   5.703  0.00  0.00    -0.241 OA
ATOM     33  O   UNL     1      -2.655  -6.590   6.191  0.00  0.00    -0.241 OA
ENDBRANCH  27  31
ENDBRANCH  18  19
ENDBRANCH   1  18
TORSDOF 5
