REMARK  Name = ZINC39045853
REMARK  7 active torsions:
REMARK  status: ('A' for Active; 'I' for Inactive)
REMARK    1  A    between atoms: C_1  and  C_2
REMARK    2  A    between atoms: C_4  and  C_34
REMARK    3  A    between atoms: C_8  and  C_12
REMARK    4  A    between atoms: C_12  and  N_13
REMARK    5  A    between atoms: N_13  and  C_14
REMARK    6  A    between atoms: C_14  and  C_15
REMARK    7  A    between atoms: C_21  and  C_23
REMARK                            x       y       z     vdW  Elec       q    Type
REMARK                         _______ _______ _______ _____ _____    ______ ____
ROOT
ATOM      1  N   UNL     1      -3.611  -4.049   4.437  0.00  0.00    -0.290 N 
ATOM      2  C   UNL     1      -4.444  -3.388   5.265  0.00  0.00    +0.222 C 
ATOM      3  O   UNL     1      -5.529  -3.858   5.535  0.00  0.00    -0.275 OA
ENDROOT
BRANCH   2   4
ATOM      4  C   UNL     1      -4.026  -2.066   5.856  0.00  0.00    +0.048 C 
ATOM      5  C   UNL     1      -2.888  -2.290   6.854  0.00  0.00    +0.019 C 
ATOM      6  C   UNL     1      -2.465  -0.948   7.453  0.00  0.00    -0.009 C 
ATOM      7  C   UNL     1      -3.656  -0.312   8.173  0.00  0.00    +0.007 C 
ATOM      8  C   UNL     1      -4.794  -0.088   7.175  0.00  0.00    -0.009 C 
ATOM      9  C   UNL     1      -5.218  -1.430   6.575  0.00  0.00    +0.019 C 
ATOM     10  C   UNL     1      -4.317   0.842   6.058  0.00  0.00    +0.007 C 
ATOM     11  C   UNL     1      -3.126   0.206   5.338  0.00  0.00    -0.009 C 
ATOM     12  C   UNL     1      -1.988  -0.018   6.336  0.00  0.00    +0.007 C 
ATOM     13  C   UNL     1      -3.550  -1.136   4.738  0.00  0.00    +0.019 C 
ENDBRANCH   2   4
BRANCH   1  14
ATOM     14  C   UNL     1      -2.289  -3.495   4.132  0.00  0.00    +0.181 C 
BRANCH  14  21
ATOM     15  C   UNL     1      -1.062   1.239  -1.320  0.00  0.00    +0.024 C 
ATOM     16  C   UNL     1      -0.968  -0.281  -1.183  0.00  0.00    +0.076 C 
ATOM     17  C   UNL     1      -2.310  -0.875  -0.816  0.00  0.00    -0.045 C 
ATOM     18  C   UNL     1      -2.406  -1.525   0.353  0.00  0.00    +0.071 C 
ATOM     19  C   UNL     1      -1.192  -1.611   1.193  0.00  0.00    +0.112 C 
ATOM     20  N   UNL     1      -1.223  -2.232   2.348  0.00  0.00    -0.226 NA
ATOM     21  C   UNL     1      -2.332  -2.799   2.796  0.00  0.00    +0.141 C 
ATOM     22  N   UNL     1      -3.467  -2.787   2.138  0.00  0.00    -0.160 NA
ATOM     23  C   UNL     1      -3.606  -2.197   0.946  0.00  0.00    +0.271 C 
ATOM     24  O   UNL     1      -4.676  -2.204   0.362  0.00  0.00    -0.268 OA
ATOM     25  S   UNL     1       0.057  -0.749   0.270  0.00  0.00    -0.098 S 
ATOM     26  C   UNL     1      -3.498  -0.741  -1.733  0.00  0.00    +0.041 C 
ENDBRANCH  14  21
ENDBRANCH   1  14
BRANCH   1  27
ATOM     27  C   UNL     1      -4.027  -5.321   3.841  0.00  0.00    +0.143 C 
BRANCH  27  28
ATOM     28  C   UNL     1      -3.552  -6.460   4.706  0.00  0.00    -0.030 A 
ATOM     29  C   UNL     1      -2.306  -7.018   4.492  0.00  0.00    +0.005 A 
ATOM     30  C   UNL     1      -1.871  -8.063   5.285  0.00  0.00    +0.000 A 
ATOM     31  C   UNL     1      -2.681  -8.549   6.294  0.00  0.00    +0.000 A 
ATOM     32  C   UNL     1      -3.927  -7.991   6.509  0.00  0.00    +0.000 A 
ATOM     33  C   UNL     1      -4.361  -6.943   5.718  0.00  0.00    +0.005 A 
ENDBRANCH  27  28
ENDBRANCH   1  27
TORSDOF 5
