REMARK  Name = ZINC39886129
REMARK  7 active torsions:
REMARK  status: ('A' for Active; 'I' for Inactive)
REMARK    1  A    between atoms: C_1  and  C_2
REMARK    2  A    between atoms: C_2  and  O_3
REMARK    3  A    between atoms: O_3  and  C_4
REMARK    4  A    between atoms: C_6  and  C_11
REMARK    5  A    between atoms: C_9  and  O_10
REMARK    6  A    between atoms: N_14  and  C_15
REMARK    7  A    between atoms: C_18  and  C_21
REMARK                            x       y       z     vdW  Elec       q    Type
REMARK                         _______ _______ _______ _____ _____    ______ ____
ROOT
ATOM      1  C   UNL     1      -0.197  -4.958  -0.499  0.00  0.00    +0.026 C 
ATOM      2  C   UNL     1       0.002  -6.297  -0.403  0.00  0.00    +0.058 C 
ATOM      3  C   UNL     1      -0.380  -7.372  -1.339  0.00  0.00    +0.140 C 
ATOM      4  N   UNL     1      -1.010  -7.121  -2.467  0.00  0.00    -0.231 NA
ATOM      5  N   UNL     1      -0.042  -8.634  -0.969  0.00  0.00    -0.260 N 
ATOM      6  C   UNL     1       0.603  -8.863   0.191  0.00  0.00    +0.282 C 
ATOM      7  O   UNL     1       0.967  -9.928   0.652  0.00  0.00    -0.262 OA
ATOM      8  S   UNL     1       0.805  -7.234   0.889  0.00  0.00    -0.028 S 
ATOM      9  H   UNL     1      -0.269  -9.380  -1.547  0.00  0.00    +0.157 HD
ENDROOT
BRANCH   4  10
ATOM     10  C   UNL     1      -1.345  -8.147  -3.305  0.00  0.00    +0.066 A 
ATOM     11  C   UNL     1      -0.416  -9.153  -3.589  0.00  0.00    +0.028 A 
ATOM     12  C   UNL     1      -0.761 -10.185  -4.435  0.00  0.00    +0.005 A 
ATOM     13  C   UNL     1      -2.023 -10.227  -5.003  0.00  0.00    -0.050 A 
ATOM     14  C   UNL     1      -2.947  -9.234  -4.727  0.00  0.00    +0.005 A 
ATOM     15  C   UNL     1      -2.619  -8.199  -3.877  0.00  0.00    +0.028 A 
ATOM     16  C   UNL     1      -2.392 -11.358  -5.928  0.00  0.00    +0.044 C 
ENDBRANCH   4  10
BRANCH   1  19
ATOM     17  C   UNL     1       0.581  -1.886   1.508  0.00  0.00    +0.162 A 
ATOM     18  C   UNL     1       0.273  -2.704   0.438  0.00  0.00    +0.057 A 
ATOM     19  C   UNL     1       0.131  -4.082   0.634  0.00  0.00    -0.020 A 
ATOM     20  C   UNL     1       0.303  -4.625   1.913  0.00  0.00    +0.012 A 
ATOM     21  C   UNL     1       0.611  -3.801   2.974  0.00  0.00    +0.050 A 
ATOM     22  C   UNL     1       0.756  -2.434   2.777  0.00  0.00    +0.158 A 
BRANCH  22  23
ATOM     23  O   UNL     1       1.065  -1.628   3.827  0.00  0.00    -0.503 OA
ATOM     24  H   UNL     1       0.294  -1.282   4.297  0.00  0.00    +0.292 HD
ENDBRANCH  22  23
BRANCH  17  25
ATOM     25  O   UNL     1       0.719  -0.546   1.321  0.00  0.00    -0.489 OA
BRANCH  25  27
ATOM     26  C   UNL     1       0.721   1.465  -0.019  0.00  0.00    +0.048 C 
ATOM     27  C   UNL     1       0.526  -0.052  -0.006  0.00  0.00    +0.226 C 
ENDBRANCH  25  27
ENDBRANCH  17  25
ENDBRANCH   1  19
TORSDOF 5
