REMARK  Name = ZINC58157345
REMARK  6 active torsions:
REMARK  status: ('A' for Active; 'I' for Inactive)
REMARK    1  A    between atoms: C_1  and  C_2
REMARK    2  A    between atoms: C_4  and  C_22
REMARK    3  A    between atoms: C_6  and  C_19
REMARK    4  A    between atoms: N_9  and  C_11
REMARK    5  A    between atoms: N_24  and  C_25
REMARK    6  A    between atoms: C_25  and  C_26
REMARK                            x       y       z     vdW  Elec       q    Type
REMARK                         _______ _______ _______ _____ _____    ______ ____
ROOT
ATOM      1  C   UNL     1      -0.177   1.499   0.021  0.00  0.00    +0.068 C 
ATOM      2  C   UNL     1      -0.129  -0.007   0.011  0.00  0.00    +0.070 A 
ATOM      3  C   UNL     1      -0.154  -0.824  -1.139  0.00  0.00    +0.054 A 
ATOM      4  C   UNL     1      -0.224  -0.562  -2.526  0.00  0.00    +0.051 A 
ATOM      5  C   UNL     1      -0.227  -1.651  -3.394  0.00  0.00    +0.037 A 
ATOM      6  C   UNL     1      -0.163  -2.936  -2.874  0.00  0.00    +0.047 A 
ATOM      7  N   UNL     1      -0.099  -3.154  -1.579  0.00  0.00    -0.232 NA
ATOM      8  C   UNL     1      -0.091  -2.162  -0.700  0.00  0.00    +0.160 A 
ATOM      9  N   UNL     1      -0.032  -2.116   0.669  0.00  0.00    -0.241 N 
ATOM     10  N   UNL     1      -0.053  -0.772   1.062  0.00  0.00    -0.174 NA
ENDROOT
BRANCH   9  11
ATOM     11  C   UNL     1       0.045  -3.272   1.565  0.00  0.00    +0.132 C 
ATOM     12  C   UNL     1      -1.151  -3.260   2.532  0.00  0.00    +0.051 C 
ATOM     13  C   UNL     1      -0.915  -4.277   3.675  0.00  0.00    +0.168 C 
ATOM     14  S   UNL     1       0.919  -4.330   3.796  0.00  0.00    -0.029 S 
ATOM     15  O   UNL     1       1.319  -3.731   5.021  0.00  0.00    -0.174 OA
ATOM     16  O   UNL     1       1.366  -5.641   3.481  0.00  0.00    -0.174 OA
ATOM     17  C   UNL     1       1.350  -3.198   2.408  0.00  0.00    +0.192 C 
ENDBRANCH   9  11
BRANCH   4  18
ATOM     18  C   UNL     1      -0.291   0.823  -3.039  0.00  0.00    +0.245 C 
ATOM     19  O   UNL     1       0.352   1.702  -2.500  0.00  0.00    -0.270 OA
ATOM     20  N   UNL     1      -1.067   1.111  -4.103  0.00  0.00    -0.306 N 
ATOM     21  H   UNL     1      -1.580   0.409  -4.532  0.00  0.00    +0.149 HD
BRANCH  20  22
ATOM     22  C   UNL     1      -1.134   2.483  -4.611  0.00  0.00    +0.157 C 
BRANCH  22  23
ATOM     23  C   UNL     1      -2.063   2.535  -5.796  0.00  0.00    +0.034 A 
ATOM     24  C   UNL     1      -1.681   2.443  -7.080  0.00  0.00    +0.032 A 
ATOM     25  C   UNL     1      -2.894   2.539  -7.895  0.00  0.00    -0.000 A 
ATOM     26  C   UNL     1      -3.144   2.511  -9.269  0.00  0.00    +0.010 A 
ATOM     27  C   UNL     1      -4.426   2.629  -9.727  0.00  0.00    +0.001 A 
ATOM     28  C   UNL     1      -5.482   2.776  -8.838  0.00  0.00    +0.002 A 
ATOM     29  C   UNL     1      -5.258   2.807  -7.479  0.00  0.00    +0.026 A 
ATOM     30  C   UNL     1      -3.960   2.688  -6.990  0.00  0.00    +0.047 A 
ATOM     31  N   UNL     1      -3.422   2.677  -5.723  0.00  0.00    -0.357 N 
ATOM     32  H   UNL     1      -3.930   2.759  -4.901  0.00  0.00    +0.166 HD
ENDBRANCH  22  23
ENDBRANCH  20  22
ENDBRANCH   4  18
BRANCH   6  33
ATOM     33  C   UNL     1      -0.167  -4.111  -3.817  0.00  0.00    +0.038 C 
ATOM     34  C   UNL     1      -0.622  -3.860  -5.256  0.00  0.00    +0.010 C 
ATOM     35  C   UNL     1      -1.526  -4.631  -4.291  0.00  0.00    +0.010 C 
ENDBRANCH   6  33
TORSDOF 5
