REMARK  Name = ZINC66540180
REMARK  9 active torsions:
REMARK  status: ('A' for Active; 'I' for Inactive)
REMARK    1  A    between atoms: C_1  and  C_2
REMARK    2  A    between atoms: C_3  and  C_12
REMARK    3  A    between atoms: C_12  and  C_13
REMARK    4  A    between atoms: C_13  and  O_15
REMARK    5  A    between atoms: O_15  and  C_16
REMARK    6  A    between atoms: C_22  and  N_24
REMARK    7  A    between atoms: C_26  and  C_29
REMARK    8  A    between atoms: C_29  and  O_31
REMARK    9  A    between atoms: O_31  and  C_32
REMARK                            x       y       z     vdW  Elec       q    Type
REMARK                         _______ _______ _______ _____ _____    ______ ____
ROOT
ATOM      1  O   UNL     1       1.643   0.326  -4.262  0.00  0.00    -0.459 OA
ENDROOT
BRANCH   1   2
ATOM      2  C   UNL     1       3.009   0.475  -4.652  0.00  0.00    +0.201 C 
ATOM      3  C   UNL     1       3.513  -0.838  -5.256  0.00  0.00    +0.047 C 
ATOM      4  C   UNL     1       4.976  -0.678  -5.674  0.00  0.00    +0.004 C 
ATOM      5  C   UNL     1       5.090   0.439  -6.714  0.00  0.00    +0.002 C 
ATOM      6  C   UNL     1       4.586   1.751  -6.110  0.00  0.00    +0.030 C 
ATOM      7  C   UNL     1       3.123   1.591  -5.692  0.00  0.00    +0.149 C 
BRANCH   7   8
ATOM      8  N   UNL     1       2.641   2.848  -5.114  0.00  0.00    -0.244 N 
ATOM      9  C   UNL     1       3.355   3.718  -4.372  0.00  0.00    +0.145 A 
ATOM     10  C   UNL     1       2.514   4.744  -4.045  0.00  0.00    +0.189 A 
ATOM     11  N   UNL     1       1.308   4.493  -4.585  0.00  0.00    -0.123 NA
ATOM     12  N   UNL     1       1.349   3.380  -5.231  0.00  0.00    -0.065 NA
BRANCH  10  13
ATOM     13  C   UNL     1       2.868   5.925  -3.239  0.00  0.00    +0.361 C 
ATOM     14  O   UNL     1       3.995   6.046  -2.800  0.00  0.00    -0.243 OA
BRANCH  13  15
ATOM     15  O   UNL     1       1.942   6.871  -2.987  0.00  0.00    -0.463 OA
ATOM     16  C   UNL     1       2.354   7.989  -2.198  0.00  0.00    +0.280 C 
ENDBRANCH  13  15
ENDBRANCH  10  13
ENDBRANCH   7   8
ENDBRANCH   1   2
BRANCH   1  17
ATOM     17  C   UNL     1       1.409  -0.102  -3.011  0.00  0.00    +0.312 C 
ATOM     18  O   UNL     1       2.335  -0.343  -2.272  0.00  0.00    -0.250 OA
BRANCH  17  19
ATOM     19  C   UNL     1      -0.006  -0.284  -2.528  0.00  0.00    +0.158 C 
BRANCH  19  22
ATOM     20  C   UNL     1      -0.018   1.503   0.010  0.00  0.00    +0.063 C 
ATOM     21  C   UNL     1       0.002  -0.004   0.002  0.00  0.00    +0.018 A 
ATOM     22  C   UNL     1       0.007  -0.769  -1.101  0.00  0.00    -0.009 A 
ATOM     23  C   UNL     1       0.029  -2.164  -0.655  0.00  0.00    +0.004 A 
ATOM     24  C   UNL     1       0.043  -3.394  -1.316  0.00  0.00    +0.010 A 
ATOM     25  C   UNL     1       0.063  -4.552  -0.593  0.00  0.00    +0.001 A 
ATOM     26  C   UNL     1       0.070  -4.517   0.795  0.00  0.00    +0.002 A 
ATOM     27  C   UNL     1       0.056  -3.315   1.468  0.00  0.00    +0.026 A 
ATOM     28  C   UNL     1       0.036  -2.122   0.751  0.00  0.00    +0.047 A 
ATOM     29  N   UNL     1       0.024  -0.795   1.118  0.00  0.00    -0.358 N 
ATOM     30  H   UNL     1       0.029  -0.470   2.032  0.00  0.00    +0.166 HD
ENDBRANCH  19  22
ENDBRANCH  17  19
ENDBRANCH   1  17
TORSDOF 7
