REMARK  Name = ZINC08973586
REMARK  1 active torsions:
REMARK  status: ('A' for Active; 'I' for Inactive)
REMARK    1  A    between atoms: C_11  and  C_21
REMARK                            x       y       z     vdW  Elec       q    Type
REMARK                         _______ _______ _______ _____ _____    ______ ____
ROOT
ATOM      1  C   UNL     1      -0.017   1.386   0.010  0.00  0.00    +0.001 A 
ATOM      2  C   UNL     1       1.164   2.098   0.002  0.00  0.00    +0.001 A 
ATOM      3  C   UNL     1       2.384   1.433  -0.014  0.00  0.00    +0.012 A 
ATOM      4  C   UNL     1       2.413   0.050  -0.022  0.00  0.00    +0.031 A 
ATOM      5  C   UNL     1       1.212  -0.676  -0.013  0.00  0.00    +0.012 A 
ATOM      6  C   UNL     1       0.002  -0.004   0.002  0.00  0.00    +0.011 A 
ATOM      7  C   UNL     1       1.565  -2.125  -0.025  0.00  0.00    +0.080 C 
ATOM      8  C   UNL     1       2.948  -2.226  -0.041  0.00  0.00    +0.038 C 
ATOM      9  C   UNL     1       3.519  -0.945  -0.039  0.00  0.00    +0.193 C 
ATOM     10  O   UNL     1       4.710  -0.692  -0.050  0.00  0.00    -0.287 OA
ATOM     11  C   UNL     1       3.559  -3.612  -0.058  0.00  0.00    +0.090 C 
ATOM     12  C   UNL     1       2.576  -4.767  -0.056  0.00  0.00    +0.028 C 
ATOM     13  C   UNL     1       3.026  -6.037  -0.072  0.00  0.00    +0.162 C 
ATOM     14  C   UNL     1       2.074  -7.203  -0.071  0.00  0.00    +0.080 C 
ATOM     15  C   UNL     1       0.787  -6.801   0.657  0.00  0.00    +0.014 C 
ATOM     16  C   UNL     1       0.190  -5.573  -0.035  0.00  0.00    +0.056 C 
ATOM     17  C   UNL     1       1.209  -4.457  -0.037  0.00  0.00    +0.049 C 
ATOM     18  N   UNL     1       0.792  -3.212  -0.024  0.00  0.00    -0.251 NA
ATOM     19  O   UNL     1       4.352  -6.267  -0.090  0.00  0.00    -0.292 OA
ENDROOT
BRANCH  11  20
ATOM     20  C   UNL     1       4.420  -3.732  -1.289  0.00  0.00    -0.032 A 
ATOM     21  C   UNL     1       3.857  -3.575  -2.542  0.00  0.00    +0.008 A 
ATOM     22  C   UNL     1       4.643  -3.684  -3.675  0.00  0.00    +0.050 A 
ATOM     23  C   UNL     1       5.996  -3.953  -3.556  0.00  0.00    +0.166 A 
ATOM     24  C   UNL     1       6.563  -4.112  -2.294  0.00  0.00    +0.167 A 
ATOM     25  C   UNL     1       5.771  -3.995  -1.163  0.00  0.00    +0.054 A 
ATOM     26  O   UNL     1       7.896  -4.367  -2.443  0.00  0.00    -0.453 OA
ATOM     27  C   UNL     1       8.060  -4.766  -3.817  0.00  0.00    +0.466 C 
ATOM     28  O   UNL     1       6.974  -4.107  -4.496  0.00  0.00    -0.453 OA
ENDBRANCH  11  20
TORSDOF 1
