REMARK  Name = ZINC59186079
REMARK  5 active torsions:
REMARK  status: ('A' for Active; 'I' for Inactive)
REMARK    1  A    between atoms: C_1  and  C_2
REMARK    2  A    between atoms: C_8  and  C_9
REMARK    3  A    between atoms: C_11  and  O_17
REMARK    4  A    between atoms: C_12  and  O_16
REMARK    5  A    between atoms: O_17  and  C_18
REMARK                            x       y       z     vdW  Elec       q    Type
REMARK                         _______ _______ _______ _____ _____    ______ ____
ROOT
ATOM      1  C   UNL     1       0.528   1.437   0.007  0.00  0.00    +0.068 C 
ATOM      2  C   UNL     1       0.168  -0.026   0.001  0.00  0.00    +0.069 C 
ATOM      3  N   UNL     1      -0.002  -0.769  -1.049  0.00  0.00    -0.174 NA
ATOM      4  N   UNL     1      -0.330  -2.079  -0.699  0.00  0.00    -0.119 N 
ATOM      5  C   UNL     1      -0.377  -2.202   0.644  0.00  0.00    +0.275 C 
ATOM      6  O   UNL     1      -0.634  -3.210   1.279  0.00  0.00    -0.268 OA
ATOM      7  C   UNL     1      -0.050  -0.872   1.185  0.00  0.00    +0.062 C 
ATOM      8  C   UNL     1       0.033  -0.499   2.515  0.00  0.00    +0.023 C 
ATOM      9  C   UNL     1      -0.572  -3.107  -1.601  0.00  0.00    +0.286 A 
ATOM     10  N   UNL     1      -0.893  -4.365  -1.307  0.00  0.00    -0.088 NA
ATOM     11  N   UNL     1      -1.033  -5.000  -2.420  0.00  0.00    -0.020 NA
ATOM     12  N   UNL     1      -0.814  -4.193  -3.398  0.00  0.00    -0.020 NA
ATOM     13  N   UNL     1      -0.535  -3.025  -2.929  0.00  0.00    -0.088 NA
ENDROOT
BRANCH   8  14
ATOM     14  C   UNL     1      -0.053  -1.513   3.565  0.00  0.00    -0.020 A 
ATOM     15  C   UNL     1      -0.754  -1.241   4.750  0.00  0.00    +0.057 A 
ATOM     16  C   UNL     1      -0.832  -2.202   5.737  0.00  0.00    +0.163 A 
ATOM     17  C   UNL     1      -0.215  -3.441   5.556  0.00  0.00    +0.172 A 
ATOM     18  C   UNL     1       0.480  -3.713   4.383  0.00  0.00    +0.059 A 
ATOM     19  C   UNL     1       0.558  -2.764   3.389  0.00  0.00    +0.026 A 
ATOM     20  I   UNL     1       1.402  -5.576   4.122  0.00  0.00    -0.040 I 
BRANCH  17  21
ATOM     21  O   UNL     1      -0.293  -4.384   6.529  0.00  0.00    -0.503 OA
ATOM     22  H   UNL     1      -1.056  -4.973   6.446  0.00  0.00    +0.292 HD
ENDBRANCH  17  21
BRANCH  16  23
ATOM     23  O   UNL     1      -1.509  -1.942   6.887  0.00  0.00    -0.491 OA
ATOM     24  C   UNL     1      -2.116  -0.654   7.005  0.00  0.00    +0.277 C 
ENDBRANCH  16  23
ENDBRANCH   8  14
TORSDOF 3
