REMARK  Name = ZINC13061411
REMARK  5 active torsions:
REMARK  status: ('A' for Active; 'I' for Inactive)
REMARK    1  A    between atoms: C_1  and  C_2
REMARK    2  A    between atoms: C_11  and  S_15
REMARK    3  A    between atoms: S_15  and  C_16
REMARK    4  A    between atoms: C_16  and  C_17
REMARK    5  A    between atoms: C_21  and  C_23
REMARK                            x       y       z     vdW  Elec       q    Type
REMARK                         _______ _______ _______ _____ _____    ______ ____
ROOT
ATOM      1  C   UNL     1       6.796   5.061  -0.110  0.00  0.00    +0.008 C 
ATOM      2  C   UNL     1       5.686   4.049  -0.400  0.00  0.00    -0.009 C 
ATOM      3  C   UNL     1       5.916   2.782   0.430  0.00  0.00    +0.008 C 
ATOM      4  C   UNL     1       4.963   1.680  -0.032  0.00  0.00    +0.037 C 
ATOM      5  C   UNL     1       3.537   2.225  -0.018  0.00  0.00    -0.025 A 
ATOM      6  C   UNL     1       3.307   3.553  -0.009  0.00  0.00    -0.004 A 
ATOM      7  S   UNL     1       1.542   3.717   0.007  0.00  0.00    -0.073 S 
ATOM      8  C   UNL     1       1.113   1.996   0.002  0.00  0.00    +0.113 A 
ATOM      9  C   UNL     1       2.365   1.348  -0.013  0.00  0.00    +0.043 A 
ATOM     10  C   UNL     1       2.316  -0.074  -0.020  0.00  0.00    +0.109 A 
ATOM     11  N   UNL     1       1.138  -0.678  -0.012  0.00  0.00    -0.229 NA
ATOM     12  C   UNL     1       0.002  -0.004   0.002  0.00  0.00    +0.223 A 
ATOM     13  N   UNL     1      -0.016   1.315   0.009  0.00  0.00    -0.228 NA
ATOM     14  C   UNL     1       4.327   4.651  -0.012  0.00  0.00    +0.046 C 
ENDROOT
BRANCH  10  15
ATOM     15  S   UNL     1       3.803  -1.018  -0.040  0.00  0.00    -0.101 S 
BRANCH  15  16
ATOM     16  C   UNL     1       3.113  -2.692  -0.043  0.00  0.00    +0.111 C 
BRANCH  16  17
ATOM     17  C   UNL     1       4.235  -3.698  -0.060  0.00  0.00    -0.036 A 
ATOM     18  C   UNL     1       4.761  -4.166   1.132  0.00  0.00    +0.004 A 
ATOM     19  C   UNL     1       5.791  -5.089   1.126  0.00  0.00    +0.001 A 
ATOM     20  C   UNL     1       6.300  -5.551  -0.070  0.00  0.00    +0.015 A 
ATOM     21  C   UNL     1       5.774  -5.084  -1.276  0.00  0.00    +0.063 A 
ATOM     22  C   UNL     1       4.732  -4.155  -1.263  0.00  0.00    +0.019 A 
BRANCH  21  23
ATOM     23  C   UNL     1       6.315  -5.573  -2.561  0.00  0.00    +0.387 C 
ATOM     24  O   UNL     1       5.856  -5.165  -3.608  0.00  0.00    -0.241 OA
ATOM     25  O   UNL     1       7.318  -6.473  -2.571  0.00  0.00    -0.241 OA
ENDBRANCH  21  23
ENDBRANCH  16  17
ENDBRANCH  15  16
ENDBRANCH  10  15
TORSDOF 4
