REMARK  Name = ZINC13120921
REMARK  10 active torsions:
REMARK  status: ('A' for Active; 'I' for Inactive)
REMARK    1  A    between atoms: C_1  and  C_2
REMARK    2  A    between atoms: C_2  and  C_3
REMARK    3  A    between atoms: C_3  and  C_4
REMARK    4  A    between atoms: C_4  and  N_5
REMARK    5  A    between atoms: C_6  and  N_33
REMARK    6  A    between atoms: C_7  and  N_14
REMARK    7  A    between atoms: N_14  and  C_15
REMARK    8  A    between atoms: C_20  and  C_22
REMARK    9  A    between atoms: C_22  and  N_65
REMARK   10  A    between atoms: C_30  and  C_32
REMARK                            x       y       z     vdW  Elec       q    Type
REMARK                         _______ _______ _______ _____ _____    ______ ____
ROOT
ATOM      1  N   UNL     1       4.797  -2.366   1.355  0.00  0.00    -0.263 N 
ATOM      2  C   UNL     1       3.601  -1.761   1.206  0.00  0.00    +0.204 C 
ATOM      3  O   UNL     1       3.514  -0.742   0.553  0.00  0.00    -0.277 OA
ENDROOT
BRANCH   1   6
ATOM      4  N   UNL     1       5.601  -4.959   3.832  0.00  0.00    -0.280 N 
ATOM      5  C   UNL     1       5.542  -3.731   3.215  0.00  0.00    +0.127 A 
ATOM      6  C   UNL     1       4.879  -3.614   2.010  0.00  0.00    +0.140 A 
ATOM      7  C   UNL     1       4.292  -4.760   1.443  0.00  0.00    +0.277 A 
ATOM      8  O   UNL     1       3.705  -4.686   0.377  0.00  0.00    -0.266 OA
ATOM      9  N   UNL     1       4.383  -5.941   2.086  0.00  0.00    -0.273 N 
ATOM     10  H   UNL     1       3.966  -6.756   1.684  0.00  0.00    +0.173 HD
ATOM     11  C   UNL     1       5.029  -6.035   3.262  0.00  0.00    +0.331 A 
ATOM     12  O   UNL     1       5.097  -7.113   3.821  0.00  0.00    -0.246 OA
BRANCH   5  13
ATOM     13  N   UNL     1       6.131  -2.633   3.795  0.00  0.00    -0.343 N 
ATOM     14  H   UNL     1       6.019  -1.756   3.396  0.00  0.00    +0.144 HD
ATOM     15  H   UNL     1       6.659  -2.735   4.602  0.00  0.00    +0.144 HD
ENDBRANCH   5  13
BRANCH   4  16
ATOM     16  C   UNL     1       6.297  -5.098   5.114  0.00  0.00    +0.128 C 
BRANCH  16  17
ATOM     17  C   UNL     1       7.769  -5.430   4.862  0.00  0.00    +0.021 C 
BRANCH  17  19
ATOM     18  C   UNL     1       9.968  -5.907   5.948  0.00  0.00    +0.004 C 
ATOM     19  C   UNL     1       8.496  -5.574   6.200  0.00  0.00    -0.002 C 
ENDBRANCH  17  19
ENDBRANCH  16  17
ENDBRANCH   4  16
ENDBRANCH   1   6
BRANCH   1  20
ATOM     20  C   UNL     1       6.011  -1.729   0.838  0.00  0.00    +0.082 C 
ATOM     21  C   UNL     1       6.125  -0.290   1.382  0.00  0.00    +0.023 C 
ATOM     22  C   UNL     1       6.711   0.518   0.197  0.00  0.00    +0.002 C 
ATOM     23  C   UNL     1       6.004  -0.112  -1.029  0.00  0.00    +0.002 C 
ATOM     24  C   UNL     1       5.934  -1.616  -0.695  0.00  0.00    +0.023 C 
ENDBRANCH   1  20
BRANCH   2  25
ATOM     25  C   UNL     1       2.372  -2.350   1.849  0.00  0.00    +0.020 C 
BRANCH  25  35
ATOM     26  C   UNL     1       1.433  -0.179   2.372  0.00  0.00    -0.072 C 
ATOM     27  C   UNL     1       0.452   0.868   1.818  0.00  0.00    +0.024 C 
ATOM     28  C   UNL     1      -0.895   0.228   1.729  0.00  0.00    -0.010 A 
ATOM     29  C   UNL     1      -1.170  -1.104   1.815  0.00  0.00    -0.051 A 
ATOM     30  C   UNL     1      -2.509  -1.471   1.706  0.00  0.00    +0.010 A 
ATOM     31  C   UNL     1      -3.458  -0.523   1.524  0.00  0.00    +0.045 A 
ATOM     32  S   UNL     1      -2.483   0.975   1.502  0.00  0.00    -0.101 S 
ATOM     33  C   UNL     1      -0.029  -2.097   2.020  0.00  0.00    -0.039 C 
ATOM     34  C   UNL     1      -0.250  -3.327   1.138  0.00  0.00    -0.008 C 
ATOM     35  N   UNL     1       1.235  -1.439   1.614  0.00  0.00    +0.390 N 
ATOM     36  H   UNL     1       1.186  -1.218   0.613  0.00  0.00    -0.080 HD
ENDBRANCH  25  35
ENDBRANCH   2  25
TORSDOF 8
