REMARK  Name = ZINC05331283
REMARK  6 active torsions:
REMARK  status: ('A' for Active; 'I' for Inactive)
REMARK    1  A    between atoms: C_3  and  O_23
REMARK    2  A    between atoms: C_4  and  C_8
REMARK    3  A    between atoms: N_9  and  N_10
REMARK    4  A    between atoms: C_11  and  C_13
REMARK    5  A    between atoms: C_15  and  N_22
REMARK    6  A    between atoms: C_17  and  N_19
REMARK                            x       y       z     vdW  Elec       q    Type
REMARK                         _______ _______ _______ _____ _____    ______ ____
ROOT
ATOM      1  N   UNL     1       6.029  -0.708  -0.062  0.00  0.00    -0.203 N 
ATOM      2  C   UNL     1       7.187  -0.018  -0.071  0.00  0.00    +0.263 C 
ATOM      3  O   UNL     1       7.170   1.198  -0.064  0.00  0.00    -0.268 OA
ATOM      4  H   UNL     1       6.043  -1.678  -0.068  0.00  0.00    +0.178 HD
ENDROOT
BRANCH   2   5
ATOM      5  C   UNL     1       8.477  -0.738  -0.088  0.00  0.00    +0.042 A 
ATOM      6  C   UNL     1       8.500  -2.133  -0.101  0.00  0.00    +0.036 A 
ATOM      7  C   UNL     1       9.714  -2.802  -0.117  0.00  0.00    +0.027 A 
ATOM      8  C   UNL     1      10.904  -2.083  -0.120  0.00  0.00    +0.055 A 
ATOM      9  C   UNL     1      10.881  -0.701  -0.106  0.00  0.00    +0.129 A 
ATOM     10  C   UNL     1       9.678  -0.025  -0.096  0.00  0.00    +0.046 A 
BRANCH   9  11
ATOM     11  N   UNL     1      12.152   0.058  -0.108  0.00  0.00    +0.057 N 
ATOM     12  O   UNL     1      13.208  -0.532  -0.121  0.00  0.00    -0.126 OA
ATOM     13  O   UNL     1      12.135   1.266  -0.096  0.00  0.00    -0.126 OA
ENDBRANCH   9  11
BRANCH   7  14
ATOM     14  N   UNL     1       9.742  -4.199  -0.130  0.00  0.00    -0.358 N 
ATOM     15  H   UNL     1       8.912  -4.701  -0.128  0.00  0.00    +0.142 HD
ATOM     16  H   UNL     1      10.592  -4.667  -0.141  0.00  0.00    +0.142 HD
ENDBRANCH   7  14
ENDBRANCH   2   5
BRANCH   1  18
ATOM     17  C   UNL     1       3.692  -0.690  -0.038  0.00  0.00    +0.142 C 
ATOM     18  N   UNL     1       4.806  -0.025  -0.046  0.00  0.00    -0.187 NA
BRANCH  17  22
ATOM     19  C   UNL     1      -0.017   1.381   0.010  0.00  0.00    +0.019 A 
ATOM     20  C   UNL     1       1.166   2.096   0.002  0.00  0.00    +0.047 A 
ATOM     21  C   UNL     1       2.381   1.430  -0.013  0.00  0.00    +0.126 A 
ATOM     22  C   UNL     1       2.405   0.028  -0.021  0.00  0.00    +0.037 A 
ATOM     23  C   UNL     1       1.204  -0.683  -0.013  0.00  0.00    +0.028 A 
ATOM     24  C   UNL     1       0.002  -0.004   0.002  0.00  0.00    +0.019 A 
ATOM     25 BR   UNL     1      -1.625  -0.968   0.012  0.00  0.00    -0.050 Br
BRANCH  21  26
ATOM     26  O   UNL     1       3.543   2.132  -0.022  0.00  0.00    -0.506 OA
ATOM     27  H   UNL     1       3.889   2.331   0.859  0.00  0.00    +0.292 HD
ENDBRANCH  21  26
ENDBRANCH  17  22
ENDBRANCH   1  18
TORSDOF 6
