REMARK  Name = ZINC19851533
REMARK  8 active torsions:
REMARK  status: ('A' for Active; 'I' for Inactive)
REMARK    1  A    between atoms: C_4  and  C_7
REMARK    2  A    between atoms: C_7  and  C_8
REMARK    3  A    between atoms: C_8  and  N_9
REMARK    4  A    between atoms: C_16  and  C_28
REMARK    5  A    between atoms: C_18  and  C_24
REMARK    6  A    between atoms: C_18  and  C_26
REMARK    7  A    between atoms: C_19  and  N_23
REMARK    8  A    between atoms: C_20  and  C_21
REMARK                            x       y       z     vdW  Elec       q    Type
REMARK                         _______ _______ _______ _____ _____    ______ ____
ROOT
ATOM      1  N   UNL     1       3.340   3.740   0.826  0.00  0.00    -0.298 NA
ATOM      2  C   UNL     1       3.672   2.389   0.339  0.00  0.00    +0.112 C 
ATOM      3  C   UNL     1       2.391   1.594   0.288  0.00  0.00    -0.007 C 
ATOM      4  C   UNL     1       1.252   2.197   0.002  0.00  0.00    -0.026 C 
ATOM      5  C   UNL     1       1.163   3.657  -0.338  0.00  0.00    +0.045 C 
ATOM      6  C   UNL     1       2.453   4.416  -0.124  0.00  0.00    +0.093 C 
ATOM      7  C   UNL     1       0.002   4.259   0.455  0.00  0.00    +0.074 C 
ATOM      8  C   UNL     1      -1.300   3.594   0.007  0.00  0.00    +0.189 C 
ATOM      9  C   UNL     1      -1.197   2.099   0.019  0.00  0.00    +0.054 C 
ATOM     10  C   UNL     1      -0.017   1.428   0.010  0.00  0.00    +0.074 C 
ENDROOT
BRANCH   7  11
ATOM     11  C   UNL     1      -0.070   5.742   0.197  0.00  0.00    -0.004 A 
ATOM     12  C   UNL     1       0.026   6.768   1.077  0.00  0.00    +0.011 A 
ATOM     13  C   UNL     1      -0.067   8.065   0.609  0.00  0.00    +0.008 A 
ATOM     14  C   UNL     1      -0.263   8.273  -0.716  0.00  0.00    +0.045 A 
ATOM     15  S   UNL     1      -0.314   6.604  -1.348  0.00  0.00    -0.101 S 
ENDBRANCH   7  11
BRANCH   9  16
ATOM     16  N   UNL     1      -2.354   1.373   0.046  0.00  0.00    -0.358 N 
ATOM     17  H   UNL     1      -2.313   0.273   0.056  0.00  0.00    +0.142 HD
ATOM     18  H   UNL     1      -3.327   1.887   0.058  0.00  0.00    +0.142 HD
ENDBRANCH   9  16
BRANCH  10  19
ATOM     19  C   UNL     1       0.002  -0.004   0.002  0.00  0.00    +0.101 C 
ATOM     20  N   UNL     1       0.018  -1.140  -0.004  0.00  0.00    -0.191 NA
ENDBRANCH  10  19
BRANCH   8  21
ATOM     21  C   UNL     1      -2.386   4.011   0.909  0.00  0.00    +0.091 C 
ATOM     22  N   UNL     1      -3.224   4.332   1.605  0.00  0.00    -0.194 NA
ENDBRANCH   8  21
BRANCH   8  23
ATOM     23  C   UNL     1      -1.618   4.036  -1.361  0.00  0.00    +0.091 C 
ATOM     24  N   UNL     1      -1.863   4.376  -2.417  0.00  0.00    -0.194 NA
ENDBRANCH   8  23
BRANCH   1  25
ATOM     25  C   UNL     1       4.556   4.529   1.064  0.00  0.00    +0.089 C 
BRANCH  25  26
ATOM     26  C   UNL     1       5.347   3.910   2.218  0.00  0.00    +0.050 C 
BRANCH  26  30
ATOM     27  C   UNL     1       8.884   6.203   2.910  0.00  0.00    +0.000 A 
ATOM     28  C   UNL     1       7.715   6.519   3.575  0.00  0.00    +0.000 A 
ATOM     29  C   UNL     1       6.570   5.777   3.352  0.00  0.00    +0.003 A 
ATOM     30  C   UNL     1       6.595   4.719   2.462  0.00  0.00    -0.046 A 
ATOM     31  C   UNL     1       7.766   4.400   1.800  0.00  0.00    +0.003 A 
ATOM     32  C   UNL     1       8.910   5.144   2.021  0.00  0.00    +0.000 A 
ENDBRANCH  26  30
ENDBRANCH  25  26
ENDBRANCH   1  25
TORSDOF 8
