REMARK  Name = ZINC39696290
REMARK  9 active torsions:
REMARK  status: ('A' for Active; 'I' for Inactive)
REMARK    1  A    between atoms: C_1  and  C_2
REMARK    2  A    between atoms: C_2  and  C_3
REMARK    3  A    between atoms: C_6  and  C_9
REMARK    4  A    between atoms: C_9  and  C_11
REMARK    5  A    between atoms: C_9  and  N_12
REMARK    6  A    between atoms: C_13  and  C_15
REMARK    7  A    between atoms: C_26  and  C_28
REMARK    8  A    between atoms: C_35  and  C_39
REMARK    9  A    between atoms: N_37  and  C_38
REMARK                            x       y       z     vdW  Elec       q    Type
REMARK                         _______ _______ _______ _____ _____    ______ ____
ROOT
ATOM      1  C   UNL     1      -6.417  -5.540  -2.087  0.00  0.00    +0.100 C 
ATOM      2  C   UNL     1      -6.937  -4.678  -3.259  0.00  0.00    +0.121 C 
ATOM      3  N   UNL     1      -8.025  -5.482  -3.862  0.00  0.00    -0.296 N 
ATOM      4  C   UNL     1      -8.723  -6.087  -2.703  0.00  0.00    +0.115 C 
ATOM      5  C   UNL     1      -7.592  -6.463  -1.724  0.00  0.00    -0.004 C 
ATOM      6  C   UNL     1      -7.195  -7.924  -1.914  0.00  0.00    -0.010 C 
ATOM      7  C   UNL     1      -8.360  -8.824  -1.494  0.00  0.00    -0.082 C 
ATOM      8  N   UNL     1      -8.697  -8.566  -0.088  0.00  0.00    +0.379 N 
ATOM      9  C   UNL     1      -9.167  -7.184   0.069  0.00  0.00    -0.082 C 
ATOM     10  C   UNL     1      -8.036  -6.215  -0.286  0.00  0.00    -0.010 C 
ATOM     11  C   UNL     1      -8.314  -5.631  -5.170  0.00  0.00    +0.250 C 
ATOM     12  O   UNL     1      -9.303  -6.253  -5.507  0.00  0.00    -0.270 OA
ATOM     13  H   UNL     1      -9.424  -9.202   0.204  0.00  0.00    -0.086 HD
ATOM     14  H   UNL     1      -7.879  -8.709   0.484  0.00  0.00    -0.086 HD
ENDROOT
BRANCH  11  15
ATOM     15  C   UNL     1      -7.431  -5.039  -6.193  0.00  0.00    +0.074 A 
ATOM     16  C   UNL     1      -6.797  -3.811  -5.960  0.00  0.00    +0.127 A 
ATOM     17  N   UNL     1      -6.008  -3.268  -6.856  0.00  0.00    -0.235 NA
ATOM     18  C   UNL     1      -5.768  -3.851  -8.027  0.00  0.00    +0.160 A 
ATOM     19  C   UNL     1      -6.367  -5.088  -8.339  0.00  0.00    +0.060 A 
ATOM     20  C   UNL     1      -7.210  -5.699  -7.405  0.00  0.00    +0.067 A 
ATOM     21 CL   UNL     1      -7.964  -7.226  -7.743  0.00  0.00    -0.082 Cl
ATOM     22  C   UNL     1      -5.905  -5.446  -9.676  0.00  0.00    +0.071 A 
ATOM     23  N   UNL     1      -5.114  -4.495 -10.086  0.00  0.00    -0.174 NA
ATOM     24  N   UNL     1      -5.006  -3.504  -9.106  0.00  0.00    -0.249 N 
ATOM     25  C   UNL     1      -4.202  -2.284  -9.220  0.00  0.00    +0.174 C 
ATOM     26  C   UNL     1      -6.274  -6.689 -10.443  0.00  0.00    +0.068 C 
ENDBRANCH  11  15
BRANCH   1  28
ATOM     27  N   UNL     1      -5.091  -5.057  -0.055  0.00  0.00    -0.308 N 
ATOM     28  C   UNL     1      -6.054  -4.667  -0.913  0.00  0.00    +0.219 C 
ATOM     29  O   UNL     1      -6.630  -3.613  -0.740  0.00  0.00    -0.275 OA
ATOM     30  H   UNL     1      -4.631  -5.900  -0.193  0.00  0.00    +0.149 HD
BRANCH  27  31
ATOM     31  C   UNL     1      -4.739  -4.209   1.086  0.00  0.00    +0.100 C 
ATOM     32  C   UNL     1      -3.716  -3.159   0.644  0.00  0.00    +0.033 C 
BRANCH  31  36
ATOM     33  C   UNL     1      -3.060  -6.619   4.187  0.00  0.00    -0.048 A 
ATOM     34  C   UNL     1      -3.926  -5.590   4.504  0.00  0.00    +0.004 A 
ATOM     35  C   UNL     1      -4.469  -4.810   3.501  0.00  0.00    +0.006 A 
ATOM     36  C   UNL     1      -4.146  -5.059   2.180  0.00  0.00    -0.027 A 
ATOM     37  C   UNL     1      -3.279  -6.088   1.863  0.00  0.00    +0.006 A 
ATOM     38  C   UNL     1      -2.732  -6.865   2.867  0.00  0.00    +0.004 A 
BRANCH  33  40
ATOM     39  C   UNL     1      -1.154  -6.846   5.758  0.00  0.00    +0.009 C 
ATOM     40  C   UNL     1      -2.467  -7.470   5.281  0.00  0.00    +0.032 C 
ENDBRANCH  33  40
ENDBRANCH  31  36
ENDBRANCH  27  31
ENDBRANCH   1  28
TORSDOF 5
