REMARK  Name = ZINC20235466
REMARK  7 active torsions:
REMARK  status: ('A' for Active; 'I' for Inactive)
REMARK    1  A    between atoms: C_4  and  C_7
REMARK    2  A    between atoms: C_7  and  C_9
REMARK    3  A    between atoms: C_7  and  N_22
REMARK    4  A    between atoms: N_11  and  C_12
REMARK    5  A    between atoms: C_12  and  C_13
REMARK    6  A    between atoms: N_22  and  S_23
REMARK    7  A    between atoms: S_23  and  C_26
REMARK                            x       y       z     vdW  Elec       q    Type
REMARK                         _______ _______ _______ _____ _____    ______ ____
ROOT
ATOM      1  C   UNL     1       8.326  -1.665   0.457  0.00  0.00    +0.192 C 
ENDROOT
BRANCH   1   5
ATOM      2  C   UNL     1       8.345   1.223  -2.691  0.00  0.00    +0.000 A 
ATOM      3  C   UNL     1       7.622   0.053  -2.830  0.00  0.00    +0.000 A 
ATOM      4  C   UNL     1       7.616  -0.881  -1.812  0.00  0.00    +0.006 A 
ATOM      5  C   UNL     1       8.333  -0.646  -0.653  0.00  0.00    -0.020 A 
ATOM      6  C   UNL     1       9.052   0.526  -0.512  0.00  0.00    +0.006 A 
ATOM      7  C   UNL     1       9.062   1.459  -1.532  0.00  0.00    +0.000 A 
ENDBRANCH   1   5
BRANCH   1   8
ATOM      8  C   UNL     1       7.355  -1.236   1.526  0.00  0.00    +0.236 C 
ATOM      9  O   UNL     1       7.746  -1.037   2.657  0.00  0.00    -0.274 OA
ATOM     10  N   UNL     1       6.051  -1.073   1.226  0.00  0.00    -0.310 N 
ATOM     11  H   UNL     1       5.696  -1.253   0.201  0.00  0.00    +0.149 HD
BRANCH  10  12
ATOM     12  C   UNL     1       5.107  -0.655   2.265  0.00  0.00    +0.139 C 
BRANCH  12  13
ATOM     13  C   UNL     1       3.725  -0.548   1.674  0.00  0.00    -0.027 A 
ATOM     14  C   UNL     1       2.885  -1.646   1.677  0.00  0.00    +0.009 A 
ATOM     15  C   UNL     1       1.617  -1.553   1.135  0.00  0.00    +0.050 A 
ATOM     16  C   UNL     1       1.183  -0.356   0.589  0.00  0.00    +0.166 A 
ATOM     17  C   UNL     1       2.028   0.751   0.586  0.00  0.00    +0.167 A 
ATOM     18  C   UNL     1       3.298   0.650   1.131  0.00  0.00    +0.054 A 
ATOM     19  O   UNL     1       1.376   1.797  -0.001  0.00  0.00    -0.453 OA
ATOM     20  C   UNL     1      -0.018   1.436   0.010  0.00  0.00    +0.466 C 
ATOM     21  O   UNL     1       0.002  -0.004   0.002  0.00  0.00    -0.453 OA
ENDBRANCH  12  13
ENDBRANCH  10  12
ENDBRANCH   1   8
BRANCH   1  22
ATOM     22  N   UNL     1       9.670  -1.769   1.032  0.00  0.00    -0.174 NA
ATOM     23  H   UNL     1      10.048  -0.977   1.694  0.00  0.00    +0.149 HD
BRANCH  22  24
ATOM     24  S   UNL     1      10.710  -2.942   0.497  0.00  0.00    +0.061 S 
ATOM     25  O   UNL     1      11.922  -2.768   1.218  0.00  0.00    -0.153 OA
ATOM     26  O   UNL     1       9.985  -4.164   0.509  0.00  0.00    -0.153 OA
BRANCH  24  27
ATOM     27  C   UNL     1      11.072  -2.587  -1.190  0.00  0.00    +0.133 A 
ATOM     28  C   UNL     1      12.332  -2.254  -1.557  0.00  0.00    +0.031 A 
ATOM     29  C   UNL     1      12.655  -1.967  -2.883  0.00  0.00    +0.004 A 
ATOM     30  C   UNL     1      11.722  -2.010  -3.864  0.00  0.00    +0.031 A 
ATOM     31  C   UNL     1      10.380  -2.352  -3.554  0.00  0.00    +0.102 A 
ATOM     32  C   UNL     1      10.044  -2.657  -2.166  0.00  0.00    +0.126 A 
ATOM     33  N   UNL     1       8.755  -2.957  -2.018  0.00  0.00    -0.189 NA
ATOM     34  S   UNL     1       8.117  -2.862  -3.446  0.00  0.00    +0.117 S 
ATOM     35  N   UNL     1       9.323  -2.451  -4.358  0.00  0.00    -0.191 NA
ENDBRANCH  24  27
ENDBRANCH  22  24
ENDBRANCH   1  22
TORSDOF 7
