REMARK  Name = ZINC19839597
REMARK  11 active torsions:
REMARK  status: ('A' for Active; 'I' for Inactive)
REMARK    1  A    between atoms: C_1  and  C_2
REMARK    2  A    between atoms: C_4  and  C_34
REMARK    3  A    between atoms: C_5  and  N_29
REMARK    4  A    between atoms: C_6  and  C_8
REMARK    5  A    between atoms: C_8  and  N_9
REMARK    6  A    between atoms: N_9  and  C_10
REMARK    7  A    between atoms: C_10  and  C_11
REMARK    8  A    between atoms: C_14  and  C_27
REMARK    9  A    between atoms: N_16  and  C_26
REMARK   10  A    between atoms: C_17  and  C_19
REMARK   11  A    between atoms: C_27  and  O_28
REMARK                            x       y       z     vdW  Elec       q    Type
REMARK                         _______ _______ _______ _____ _____    ______ ____
ROOT
ATOM      1  C   UNL     1       1.131   2.994  -5.348  0.00  0.00    -0.080 C 
ENDROOT
BRANCH   1   2
ATOM      2  C   UNL     1      -0.030   3.123  -4.360  0.00  0.00    -0.039 C 
ATOM      3  C   UNL     1       0.244   2.276  -3.096  0.00  0.00    -0.013 C 
ATOM      4  C   UNL     1      -0.290   3.175  -1.954  0.00  0.00    -0.042 C 
ATOM      5  N   UNL     1       0.085   4.543  -2.394  0.00  0.00    +0.386 N 
ATOM      6  C   UNL     1      -0.144   4.573  -3.855  0.00  0.00    -0.033 C 
ATOM      7  C   UNL     1      -0.729   5.558  -1.713  0.00  0.00    -0.095 C 
ATOM      8  H   UNL     1       1.130   4.781  -2.145  0.00  0.00    -0.081 HD
BRANCH   6   9
ATOM      9  C   UNL     1       0.897   5.433  -4.525  0.00  0.00    -0.026 A 
ATOM     10  C   UNL     1       2.108   5.665  -3.901  0.00  0.00    +0.005 A 
ATOM     11  C   UNL     1       3.063   6.453  -4.515  0.00  0.00    +0.000 A 
ATOM     12  C   UNL     1       2.808   7.010  -5.755  0.00  0.00    +0.003 A 
ATOM     13  C   UNL     1       1.598   6.779  -6.381  0.00  0.00    +0.038 A 
ATOM     14  C   UNL     1       0.642   5.986  -5.768  0.00  0.00    +0.125 A 
ATOM     15  F   UNL     1      -0.539   5.756  -6.382  0.00  0.00    -0.205 F 
ENDBRANCH   6   9
BRANCH   4  16
ATOM     16  C   UNL     1       0.393   2.829  -0.629  0.00  0.00    +0.140 C 
BRANCH  16  17
ATOM     17  O   UNL     1      -0.199   3.590   0.426  0.00  0.00    -0.397 OA
ATOM     18  H   UNL     1       0.164   3.474   1.458  0.00  0.00    +0.209 HD
ENDBRANCH  16  17
ENDBRANCH   4  16
ENDBRANCH   1   2
BRANCH   1  19
ATOM     19  N   UNL     1       1.190   1.617  -5.857  0.00  0.00    +0.382 N 
ATOM     20  H   UNL     1       0.238   1.384  -6.356  0.00  0.00    -0.085 HD
ATOM     21  H   UNL     1       1.335   0.933  -5.008  0.00  0.00    -0.085 HD
BRANCH  19  22
ATOM     22  C   UNL     1       2.296   1.456  -6.811  0.00  0.00    -0.045 C 
BRANCH  22  28
ATOM     23  C   UNL     1       4.230  -3.156  -6.644  0.00  0.00    +0.044 C 
ATOM     24  C   UNL     1       3.249  -2.173  -7.231  0.00  0.00    -0.050 A 
ATOM     25  C   UNL     1       2.379  -2.578  -8.227  0.00  0.00    +0.008 A 
ATOM     26  C   UNL     1       1.480  -1.680  -8.767  0.00  0.00    -0.025 A 
ATOM     27  C   UNL     1       1.450  -0.369  -8.310  0.00  0.00    +0.070 A 
ATOM     28  C   UNL     1       2.325   0.034  -7.310  0.00  0.00    -0.038 A 
ATOM     29  C   UNL     1       3.226  -0.867  -6.778  0.00  0.00    +0.007 A 
ATOM     30  C   UNL     1       0.532  -2.122  -9.852  0.00  0.00    +0.046 C 
BRANCH  27  31
ATOM     31  N   UNL     1       0.538   0.544  -8.856  0.00  0.00    -0.239 N 
ATOM     32  C   UNL     1       0.405   0.850 -10.166  0.00  0.00    +0.114 A 
ATOM     33  C   UNL     1      -0.583   1.768 -10.277  0.00  0.00    +0.041 A 
ATOM     34  C   UNL     1      -1.064   2.040  -8.992  0.00  0.00    +0.135 A 
ATOM     35  N   UNL     1      -0.393   1.308  -8.140  0.00  0.00    -0.175 NA
ENDBRANCH  27  31
ENDBRANCH  22  28
ENDBRANCH  19  22
ENDBRANCH   1  19
TORSDOF 8
