REMARK  Name = ZINC66208523
REMARK  7 active torsions:
REMARK  status: ('A' for Active; 'I' for Inactive)
REMARK    1  A    between atoms: C_1  and  C_2
REMARK    2  A    between atoms: C_3  and  N_14
REMARK    3  A    between atoms: C_7  and  N_8
REMARK    4  A    between atoms: C_9  and  C_11
REMARK    5  A    between atoms: C_15  and  C_17
REMARK    6  A    between atoms: C_17  and  N_18
REMARK    7  A    between atoms: N_18  and  C_19
REMARK                            x       y       z     vdW  Elec       q    Type
REMARK                         _______ _______ _______ _____ _____    ______ ____
ROOT
ATOM      1  C   UNL     1       0.150   1.821  -0.045  0.00  0.00    +0.047 C 
ATOM      2  C   UNL     1       0.210   0.331   0.174  0.00  0.00    -0.008 A 
ATOM      3  C   UNL     1       0.090  -0.535  -0.903  0.00  0.00    +0.038 A 
ATOM      4  C   UNL     1       0.147  -1.908  -0.698  0.00  0.00    +0.024 A 
ATOM      5  C   UNL     1       0.322  -2.411   0.578  0.00  0.00    +0.004 A 
ATOM      6  C   UNL     1       0.441  -1.551   1.652  0.00  0.00    +0.024 A 
ATOM      7  C   UNL     1       0.391  -0.177   1.453  0.00  0.00    +0.038 A 
ENDROOT
BRANCH   7   8
ATOM      8  N   UNL     1       0.517   0.694   2.541  0.00  0.00    -0.285 N 
ATOM      9  C   UNL     1       0.178   0.280   3.778  0.00  0.00    +0.220 C 
ATOM     10  O   UNL     1      -0.168  -0.868   3.960  0.00  0.00    -0.275 OA
ATOM     11  H   UNL     1       0.849   1.595   2.405  0.00  0.00    +0.155 HD
BRANCH   9  12
ATOM     12  C   UNL     1       0.229   1.244   4.935  0.00  0.00    +0.075 C 
ATOM     13  C   UNL     1       1.300   1.011   6.002  0.00  0.00    +0.013 C 
ATOM     14  C   UNL     1      -0.168   0.714   6.314  0.00  0.00    +0.013 C 
ENDBRANCH   9  12
ENDBRANCH   7   8
BRANCH   3  15
ATOM     15  N   UNL     1      -0.087  -0.027  -2.194  0.00  0.00    -0.284 N 
ATOM     16  C   UNL     1      -0.700  -0.774  -3.134  0.00  0.00    +0.234 C 
ATOM     17  O   UNL     1      -1.032  -1.913  -2.882  0.00  0.00    -0.274 OA
ATOM     18  H   UNL     1       0.231   0.863  -2.413  0.00  0.00    +0.155 HD
BRANCH  16  19
ATOM     19  C   UNL     1      -0.972  -0.194  -4.498  0.00  0.00    +0.198 C 
BRANCH  19  20
ATOM     20  N   UNL     1      -1.641  -1.197  -5.331  0.00  0.00    -0.335 N 
ATOM     21  H   UNL     1      -1.837  -2.075  -4.968  0.00  0.00    +0.147 HD
BRANCH  20  22
ATOM     22  C   UNL     1      -1.996  -0.889  -6.646  0.00  0.00    +0.028 A 
ATOM     23  C   UNL     1      -1.710   0.366  -7.168  0.00  0.00    +0.024 A 
ATOM     24  C   UNL     1      -2.062   0.668  -8.469  0.00  0.00    +0.016 A 
ATOM     25  C   UNL     1      -2.700  -0.278  -9.252  0.00  0.00    +0.013 A 
ATOM     26  C   UNL     1      -2.986  -1.528  -8.735  0.00  0.00    +0.016 A 
ATOM     27  C   UNL     1      -2.631  -1.838  -7.436  0.00  0.00    +0.024 A 
ATOM     28  I   UNL     1      -3.234   0.185 -11.224  0.00  0.00    -0.044 I 
ENDBRANCH  20  22
ENDBRANCH  19  20
ENDBRANCH  16  19
ENDBRANCH   3  15
TORSDOF 6
