REMARK  Name = ZINC67386790
REMARK  4 active torsions:
REMARK  status: ('A' for Active; 'I' for Inactive)
REMARK    1  A    between atoms: C_1  and  C_2
REMARK    2  A    between atoms: C_2  and  C_4
REMARK    3  A    between atoms: C_2  and  N_13
REMARK    4  A    between atoms: C_20  and  C_23
REMARK                            x       y       z     vdW  Elec       q    Type
REMARK                         _______ _______ _______ _____ _____    ______ ____
ROOT
ATOM      1  N   UNL     1       0.709  -0.493   1.188  0.00  0.00    -0.290 N 
ATOM      2  C   UNL     1       0.051  -0.633   2.355  0.00  0.00    +0.303 C 
ATOM      3  O   UNL     1      -1.106  -0.272   2.448  0.00  0.00    -0.253 OA
ATOM      4  N   UNL     1       0.676  -1.174   3.420  0.00  0.00    -0.281 N 
ATOM      5  C   UNL     1       2.108  -1.508   3.369  0.00  0.00    +0.137 C 
ATOM      6  C   UNL     1       2.791  -0.896   4.597  0.00  0.00    +0.179 C 
ATOM      7  O   UNL     1       2.088  -1.296   5.776  0.00  0.00    -0.369 OA
ATOM      8  C   UNL     1       0.735  -0.838   5.833  0.00  0.00    +0.168 C 
ATOM      9  C   UNL     1      -0.053  -1.442   4.670  0.00  0.00    +0.145 C 
ATOM     10  H   UNL     1       1.652  -0.715   1.133  0.00  0.00    +0.151 HD
ENDROOT
BRANCH   8  11
ATOM     11  C   UNL     1       0.115  -1.263   7.139  0.00  0.00    +0.018 A 
ATOM     12  C   UNL     1       0.610  -2.362   7.814  0.00  0.00    +0.009 A 
ATOM     13  C   UNL     1       0.041  -2.752   9.012  0.00  0.00    +0.001 A 
ATOM     14  C   UNL     1      -1.023  -2.043   9.537  0.00  0.00    +0.003 A 
ATOM     15  C   UNL     1      -1.520  -0.943   8.864  0.00  0.00    +0.039 A 
ATOM     16  C   UNL     1      -0.948  -0.548   7.666  0.00  0.00    +0.129 A 
ATOM     17  F   UNL     1      -1.429   0.530   7.010  0.00  0.00    -0.205 F 
ENDBRANCH   8  11
BRANCH   1  19
ATOM     18  C   UNL     1      -0.015   1.522   0.007  0.00  0.00    +0.036 C 
ATOM     19  C   UNL     1       0.001  -0.007   0.001  0.00  0.00    +0.140 C 
BRANCH  19  20
ATOM     20  C   UNL     1       0.702  -0.498  -1.239  0.00  0.00    +0.158 A 
ATOM     21  N   UNL     1       1.993  -0.490  -1.452  0.00  0.00    -0.132 NA
ATOM     22  N   UNL     1       2.257  -0.980  -2.612  0.00  0.00    -0.129 NA
ATOM     23  C   UNL     1       1.130  -1.332  -3.209  0.00  0.00    +0.161 A 
ATOM     24  N   UNL     1       0.109  -1.035  -2.340  0.00  0.00    -0.285 N 
ATOM     25  C   UNL     1      -1.186  -1.295  -2.679  0.00  0.00    +0.094 A 
ATOM     26  C   UNL     1      -1.483  -1.849  -3.873  0.00  0.00    +0.018 A 
ATOM     27  C   UNL     1      -0.460  -2.166  -4.784  0.00  0.00    +0.005 A 
ATOM     28  C   UNL     1       0.835  -1.906  -4.461  0.00  0.00    +0.048 A 
ENDBRANCH  19  20
ENDBRANCH   1  19
TORSDOF 3
