REMARK  Name = ZINC39730742
REMARK  4 active torsions:
REMARK  status: ('A' for Active; 'I' for Inactive)
REMARK    1  A    between atoms: C_1  and  S_2
REMARK    2  A    between atoms: S_2  and  C_3
REMARK    3  A    between atoms: C_9  and  C_21
REMARK    4  A    between atoms: C_24  and  O_27
REMARK                            x       y       z     vdW  Elec       q    Type
REMARK                         _______ _______ _______ _____ _____    ______ ____
ROOT
ATOM      1  C   UNL     1      -1.702  -0.454   0.016  0.00  0.00    +0.182 C 
ATOM      2  N   UNL     1      -2.617   0.508   0.024  0.00  0.00    -0.154 NA
ATOM      3  C   UNL     1      -3.911   0.236  -0.057  0.00  0.00    +0.250 C 
ATOM      4  O   UNL     1      -4.718   1.144   0.002  0.00  0.00    -0.273 OA
ATOM      5  C   UNL     1      -4.396  -1.169  -0.222  0.00  0.00    +0.156 C 
ATOM      6  C   UNL     1      -5.524  -1.502   0.748  0.00  0.00    +0.073 C 
ATOM      7  C   UNL     1      -5.819  -2.984   0.642  0.00  0.00    +0.025 C 
ATOM      8  C   UNL     1      -4.778  -3.874   0.365  0.00  0.00    +0.050 C 
ATOM      9  C   UNL     1      -5.047  -5.359   0.291  0.00  0.00    +0.056 C 
ATOM     10  C   UNL     1      -6.239  -5.705   1.187  0.00  0.00    +0.014 C 
ATOM     11  C   UNL     1      -7.444  -4.871   0.742  0.00  0.00    +0.080 C 
ATOM     12  C   UNL     1      -7.090  -3.411   0.822  0.00  0.00    +0.162 C 
ATOM     13  O   UNL     1      -8.058  -2.511   1.077  0.00  0.00    -0.292 OA
ATOM     14  N   UNL     1      -3.553  -3.441   0.136  0.00  0.00    -0.236 NA
ATOM     15  C   UNL     1      -3.276  -2.155  -0.032  0.00  0.00    +0.145 C 
ATOM     16  N   UNL     1      -2.025  -1.746   0.012  0.00  0.00    -0.208 NA
ENDROOT
BRANCH   6  17
ATOM     17  C   UNL     1      -5.101  -1.166   2.155  0.00  0.00    -0.038 A 
ATOM     18  C   UNL     1      -3.992  -1.780   2.707  0.00  0.00    +0.008 A 
ATOM     19  C   UNL     1      -3.602  -1.474   3.997  0.00  0.00    +0.045 A 
ATOM     20  C   UNL     1      -4.324  -0.549   4.737  0.00  0.00    +0.117 A 
ATOM     21  C   UNL     1      -5.436   0.066   4.181  0.00  0.00    +0.045 A 
ATOM     22  C   UNL     1      -5.819  -0.240   2.889  0.00  0.00    +0.008 A 
BRANCH  20  23
ATOM     23  O   UNL     1      -3.943  -0.247   6.006  0.00  0.00    -0.507 OA
ATOM     24  H   UNL     1      -3.318   0.489   6.065  0.00  0.00    +0.292 HD
ENDBRANCH  20  23
ENDBRANCH   6  17
BRANCH   1  26
ATOM     25  C   UNL     1      -0.022   1.810   0.012  0.00  0.00    +0.093 C 
ATOM     26  S   UNL     1       0.002  -0.004   0.002  0.00  0.00    -0.092 S 
ENDBRANCH   1  26
TORSDOF 3
