REMARK  Name = ZINC34729804
REMARK  4 active torsions:
REMARK  status: ('A' for Active; 'I' for Inactive)
REMARK    1  A    between atoms: C_1  and  C_2
REMARK    2  A    between atoms: C_5  and  N_8
REMARK    3  A    between atoms: C_9  and  C_11
REMARK    4  A    between atoms: C_11  and  N_12
REMARK                            x       y       z     vdW  Elec       q    Type
REMARK                         _______ _______ _______ _____ _____    ______ ____
ROOT
ATOM      1  N   UNL     1       0.420  -6.845   2.495  0.00  0.00    -0.279 N 
ATOM      2  C   UNL     1       1.656  -6.963   3.077  0.00  0.00    +0.097 A 
ATOM      3  C   UNL     1       1.795  -7.431   4.382  0.00  0.00    +0.074 A 
ATOM      4  C   UNL     1       3.168  -7.509   4.881  0.00  0.00    -0.023 A 
ATOM      5  C   UNL     1       4.112  -7.115   4.004  0.00  0.00    -0.004 A 
ATOM      6  S   UNL     1       3.212  -6.652   2.553  0.00  0.00    -0.075 S 
ATOM      7  C   UNL     1       5.593  -7.083   4.229  0.00  0.00    +0.043 C 
ATOM      8  C   UNL     1       5.854  -7.211   5.737  0.00  0.00    +0.005 C 
ATOM      9  C   UNL     1       5.019  -8.370   6.288  0.00  0.00    +0.005 C 
ATOM     10  C   UNL     1       3.535  -7.995   6.276  0.00  0.00    +0.037 C 
ATOM     11  C   UNL     1       0.539  -7.783   5.080  0.00  0.00    +0.263 A 
ATOM     12  O   UNL     1       0.566  -8.200   6.224  0.00  0.00    -0.267 OA
ATOM     13  N   UNL     1      -0.632  -7.638   4.436  0.00  0.00    -0.274 N 
ATOM     14  H   UNL     1      -1.455  -7.869   4.895  0.00  0.00    +0.173 HD
ATOM     15  C   UNL     1      -0.694  -7.174   3.177  0.00  0.00    +0.331 A 
ATOM     16  O   UNL     1      -1.778  -7.055   2.639  0.00  0.00    -0.246 OA
ENDROOT
BRANCH   1  17
ATOM     17  C   UNL     1       0.309  -6.349   1.121  0.00  0.00    +0.223 C 
BRANCH  17  19
ATOM     18  N   UNL     1       0.059  -4.170  -0.021  0.00  0.00    -0.284 N 
ATOM     19  C   UNL     1       0.175  -4.848   1.138  0.00  0.00    +0.237 C 
ATOM     20  O   UNL     1       0.173  -4.251   2.193  0.00  0.00    -0.274 OA
ATOM     21  H   UNL     1      -0.017  -4.651  -0.860  0.00  0.00    +0.155 HD
BRANCH  18  26
ATOM     22  C   UNL     1       0.008   1.503   0.007  0.00  0.00    +0.044 C 
ATOM     23  C   UNL     1       0.022  -0.004  -0.001  0.00  0.00    -0.050 A 
ATOM     24  C   UNL     1       0.777  -0.692   0.931  0.00  0.00    +0.005 A 
ATOM     25  C   UNL     1       0.791  -2.073   0.927  0.00  0.00    +0.023 A 
ATOM     26  C   UNL     1       0.046  -2.771  -0.014  0.00  0.00    +0.033 A 
ATOM     27  C   UNL     1      -0.712  -2.077  -0.948  0.00  0.00    +0.023 A 
ATOM     28  C   UNL     1      -0.726  -0.696  -0.936  0.00  0.00    +0.005 A 
ENDBRANCH  18  26
ENDBRANCH  17  19
ENDBRANCH   1  17
TORSDOF 3
