REMARK  Name = ZINC63628230
REMARK  6 active torsions:
REMARK  status: ('A' for Active; 'I' for Inactive)
REMARK    1  A    between atoms: C_1  and  C_2
REMARK    2  A    between atoms: C_2  and  C_3
REMARK    3  A    between atoms: C_3  and  C_4
REMARK    4  A    between atoms: C_4  and  C_5
REMARK    5  A    between atoms: N_7  and  C_8
REMARK    6  A    between atoms: C_11  and  C_14
REMARK                            x       y       z     vdW  Elec       q    Type
REMARK                         _______ _______ _______ _____ _____    ______ ____
ROOT
ATOM      1  C   UNL     1      -4.383  -4.344  -0.070  0.00  0.00    +0.033 A 
ATOM      2  C   UNL     1      -5.412  -3.416  -0.156  0.00  0.00    +0.023 A 
ATOM      3  C   UNL     1      -6.723  -3.844  -0.235  0.00  0.00    +0.008 A 
ATOM      4  C   UNL     1      -7.011  -5.197  -0.228  0.00  0.00    -0.021 A 
ATOM      5  C   UNL     1      -5.989  -6.124  -0.141  0.00  0.00    +0.008 A 
ATOM      6  C   UNL     1      -4.676  -5.702  -0.068  0.00  0.00    +0.023 A 
ENDROOT
BRANCH   4   7
ATOM      7  C   UNL     1      -8.442  -5.661  -0.314  0.00  0.00    +0.133 C 
ATOM      8  C   UNL     1      -8.752  -6.139  -1.715  0.00  0.00    +0.012 C 
ATOM      9  C   UNL     1      -9.097  -7.441  -1.599  0.00  0.00    -0.002 A 
ATOM     10  C   UNL     1      -9.502  -8.454  -2.581  0.00  0.00    +0.029 A 
ATOM     11  C   UNL     1      -9.793  -9.704  -2.153  0.00  0.00    +0.042 A 
ATOM     12  C   UNL     1      -9.719 -10.055  -0.797  0.00  0.00    +0.022 A 
ATOM     13  C   UNL     1      -9.355  -9.180   0.164  0.00  0.00    +0.027 A 
ATOM     14  C   UNL     1      -9.026  -7.837  -0.174  0.00  0.00    +0.043 A 
ATOM     15  N   UNL     1      -8.652  -6.818   0.563  0.00  0.00    -0.374 N 
ATOM     16 CL   UNL     1     -10.273 -10.905  -3.312  0.00  0.00    -0.084 Cl
ATOM     17  H   UNL     1      -8.534  -6.827   1.526  0.00  0.00    +0.161 HD
ENDBRANCH   4   7
BRANCH   1  20
ATOM     18  C   UNL     1      -2.078  -4.624  -0.588  0.00  0.00    +0.217 C 
ATOM     19  O   UNL     1      -2.339  -5.681  -1.124  0.00  0.00    -0.275 OA
ATOM     20  N   UNL     1      -3.055  -3.913   0.010  0.00  0.00    -0.285 N 
ATOM     21  H   UNL     1      -2.836  -3.103   0.496  0.00  0.00    +0.155 HD
BRANCH  18  22
ATOM     22  C   UNL     1      -0.663  -4.107  -0.591  0.00  0.00    +0.096 C 
BRANCH  22  23
ATOM     23  C   UNL     1       0.240  -5.096  -1.330  0.00  0.00    +0.009 C 
BRANCH  23  25
ATOM     24  C   UNL     1       2.580  -5.560  -2.072  0.00  0.00    +0.004 C 
ATOM     25  C   UNL     1       1.677  -4.571  -1.333  0.00  0.00    -0.003 C 
ENDBRANCH  23  25
ENDBRANCH  22  23
ENDBRANCH  18  22
ENDBRANCH   1  20
TORSDOF 5
