REMARK  Name = ZINC20437139
REMARK  8 active torsions:
REMARK  status: ('A' for Active; 'I' for Inactive)
REMARK    1  A    between atoms: C_1  and  C_2
REMARK    2  A    between atoms: C_2  and  N_3
REMARK    3  A    between atoms: N_6  and  C_9
REMARK    4  A    between atoms: C_9  and  C_10
REMARK    5  A    between atoms: C_11  and  O_29
REMARK    6  A    between atoms: C_18  and  C_21
REMARK    7  A    between atoms: C_24  and  O_27
REMARK    8  A    between atoms: O_27  and  C_28
REMARK                            x       y       z     vdW  Elec       q    Type
REMARK                         _______ _______ _______ _____ _____    ______ ____
ROOT
ATOM      1  C   UNL     1      -0.631   1.724   3.640  0.00  0.00    +0.051 A 
ATOM      2  C   UNL     1      -1.744   1.203   4.279  0.00  0.00    +0.125 A 
ATOM      3  C   UNL     1      -2.278   1.834   5.400  0.00  0.00    +0.046 A 
ATOM      4  C   UNL     1      -1.710   2.978   5.883  0.00  0.00    +0.019 A 
ATOM      5  C   UNL     1      -0.588   3.515   5.250  0.00  0.00    +0.065 A 
ATOM      6  C   UNL     1      -0.038   2.883   4.121  0.00  0.00    +0.146 A 
ATOM      7  O   UNL     1       1.049   3.400   3.514  0.00  0.00    -0.462 OA
ATOM      8  C   UNL     1       1.662   4.511   3.931  0.00  0.00    +0.208 A 
ATOM      9  C   UNL     1       1.240   5.218   5.011  0.00  0.00    +0.064 A 
ATOM     10  C   UNL     1       0.052   4.748   5.744  0.00  0.00    +0.200 A 
ATOM     11  O   UNL     1      -0.373   5.342   6.720  0.00  0.00    -0.286 OA
ENDROOT
BRANCH   9  12
ATOM     12  C   UNL     1       1.953   6.447   5.436  0.00  0.00    -0.011 A 
ATOM     13  C   UNL     1       1.242   7.622   5.669  0.00  0.00    +0.012 A 
ATOM     14  C   UNL     1       1.908   8.762   6.070  0.00  0.00    +0.046 A 
ATOM     15  C   UNL     1       3.286   8.742   6.231  0.00  0.00    +0.120 A 
ATOM     16  C   UNL     1       3.998   7.574   5.994  0.00  0.00    +0.046 A 
ATOM     17  C   UNL     1       3.338   6.430   5.598  0.00  0.00    +0.012 A 
BRANCH  15  18
ATOM     18  O   UNL     1       3.940   9.867   6.621  0.00  0.00    -0.495 OA
ATOM     19  C   UNL     1       3.146  11.034   6.847  0.00  0.00    +0.277 C 
ENDBRANCH  15  18
ENDBRANCH   9  12
BRANCH   2  20
ATOM     20  O   UNL     1      -2.319   0.067   3.809  0.00  0.00    -0.506 OA
ATOM     21  H   UNL     1      -3.203  -0.351   4.313  0.00  0.00    +0.292 HD
ENDBRANCH   2  20
BRANCH   1  22
ATOM     22  C   UNL     1      -0.062   1.031   2.429  0.00  0.00    +0.126 C 
BRANCH  22  26
ATOM     23  N   UNL     1      -0.806   3.062  -1.200  0.00  0.00    +0.381 N 
ATOM     24  C   UNL     1      -0.754   1.593  -1.231  0.00  0.00    -0.063 C 
ATOM     25  C   UNL     1      -0.013   1.086   0.008  0.00  0.00    +0.066 C 
ATOM     26  N   UNL     1      -0.701   1.560   1.216  0.00  0.00    -0.301 NA
ATOM     27  C   UNL     1      -0.754   3.029   1.247  0.00  0.00    +0.066 C 
ATOM     28  C   UNL     1      -1.495   3.536   0.008  0.00  0.00    -0.063 C 
ATOM     29  H   UNL     1       0.227   3.438  -1.172  0.00  0.00    -0.082 HD
BRANCH  23  31
ATOM     30  C   UNL     1      -1.707   5.088  -2.239  0.00  0.00    -0.017 C 
ATOM     31  C   UNL     1      -1.445   3.591  -2.413  0.00  0.00    -0.082 C 
ENDBRANCH  23  31
ENDBRANCH  22  26
ENDBRANCH   1  22
TORSDOF 6
