REMARK  Name = ZINC40723028
REMARK  4 active torsions:
REMARK  status: ('A' for Active; 'I' for Inactive)
REMARK    1  A    between atoms: C_6  and  S_7
REMARK    2  A    between atoms: S_7  and  C_8
REMARK    3  A    between atoms: C_9  and  N_20
REMARK    4  A    between atoms: C_10  and  N_14
REMARK                            x       y       z     vdW  Elec       q    Type
REMARK                         _______ _______ _______ _____ _____    ______ ____
ROOT
ATOM      1  C   UNL     1      -1.005  -2.587  -0.151  0.00  0.00    +0.127 A 
ATOM      2  C   UNL     1      -1.953  -3.603  -0.293  0.00  0.00    +0.098 A 
ATOM      3  C   UNL     1      -1.498  -4.917  -0.418  0.00  0.00    +0.150 A 
ATOM      4  N   UNL     1      -0.188  -5.150  -0.399  0.00  0.00    -0.219 NA
ATOM      5  C   UNL     1       0.674  -4.162  -0.264  0.00  0.00    +0.224 A 
ATOM      6  N   UNL     1       0.287  -2.908  -0.147  0.00  0.00    -0.227 NA
ENDROOT
BRANCH   3   7
ATOM      7  N   UNL     1      -2.400  -5.966  -0.561  0.00  0.00    -0.277 N 
ATOM      8  C   UNL     1      -1.936  -7.268  -0.686  0.00  0.00    +0.163 A 
ATOM      9  N   UNL     1      -0.692  -7.696  -0.684  0.00  0.00    -0.233 NA
ATOM     10  C   UNL     1      -0.412  -8.980  -0.813  0.00  0.00    +0.120 A 
ATOM     11  C   UNL     1      -1.460  -9.829  -0.946  0.00  0.00    +0.068 A 
ATOM     12  S   UNL     1      -2.828  -8.683  -0.868  0.00  0.00    -0.061 S 
ATOM     13  H   UNL     1      -3.353  -5.788  -0.574  0.00  0.00    +0.156 HD
ENDBRANCH   3   7
BRANCH   2  14
ATOM     14  N   UNL     1      -3.326  -3.311  -0.307  0.00  0.00    -0.353 N 
ATOM     15  H   UNL     1      -3.628  -2.394  -0.219  0.00  0.00    +0.142 HD
ATOM     16  H   UNL     1      -3.973  -4.027  -0.406  0.00  0.00    +0.142 HD
ENDBRANCH   2  14
BRANCH   1  17
ATOM     17  S   UNL     1      -1.511  -0.907   0.012  0.00  0.00    -0.068 S 
BRANCH  17  23
ATOM     18  C   UNL     1       0.592   0.360  -1.196  0.00  0.00    +0.016 A 
ATOM     19  C   UNL     1       1.778   1.068  -1.196  0.00  0.00    +0.021 A 
ATOM     20  C   UNL     1       2.379   1.413   0.001  0.00  0.00    +0.041 A 
ATOM     21  C   UNL     1       1.794   1.051   1.202  0.00  0.00    +0.021 A 
ATOM     22  C   UNL     1       0.608   0.344   1.208  0.00  0.00    +0.016 A 
ATOM     23  C   UNL     1       0.002  -0.004   0.008  0.00  0.00    +0.014 A 
ATOM     24 CL   UNL     1       3.870   2.302  -0.003  0.00  0.00    -0.084 Cl
ENDBRANCH  17  23
ENDBRANCH   1  17
TORSDOF 4
