REMARK  Name = ZINC25669937
REMARK  6 active torsions:
REMARK  status: ('A' for Active; 'I' for Inactive)
REMARK    1  A    between atoms: C_1  and  C_2
REMARK    2  A    between atoms: C_3  and  C_14
REMARK    3  A    between atoms: N_16  and  C_17
REMARK    4  A    between atoms: N_16  and  C_24
REMARK    5  A    between atoms: C_17  and  C_18
REMARK    6  A    between atoms: C_24  and  C_25
REMARK                            x       y       z     vdW  Elec       q    Type
REMARK                         _______ _______ _______ _____ _____    ______ ____
ROOT
ATOM      1  C   UNL     1      -3.791  -1.532   1.191  0.00  0.00    +0.251 C 
ATOM      2  O   UNL     1      -4.622  -0.662   1.363  0.00  0.00    -0.270 OA
ATOM      3  N   UNL     1      -3.489  -1.938  -0.058  0.00  0.00    -0.286 N 
ENDROOT
BRANCH   1   6
ATOM      4  C   UNL     1      -4.521  -1.065   4.217  0.00  0.00    +0.066 C 
ATOM      5  C   UNL     1      -3.423  -1.946   3.679  0.00  0.00    +0.056 A 
ATOM      6  C   UNL     1      -3.111  -2.142   2.348  0.00  0.00    +0.078 A 
ATOM      7  C   UNL     1      -2.023  -3.043   2.303  0.00  0.00    +0.148 A 
ATOM      8  N   UNL     1      -1.705  -3.354   3.530  0.00  0.00    -0.172 NA
ATOM      9  N   UNL     1      -2.566  -2.685   4.406  0.00  0.00    -0.216 N 
ATOM     10  C   UNL     1      -2.540  -2.770   5.803  0.00  0.00    +0.176 A 
ATOM     11  C   UNL     1      -1.587  -3.591   6.436  0.00  0.00    +0.055 A 
ATOM     12  C   UNL     1      -1.559  -3.669   7.793  0.00  0.00    +0.077 A 
ATOM     13  C   UNL     1      -2.495  -2.932   8.546  0.00  0.00    +0.289 A 
ATOM     14  O   UNL     1      -2.489  -2.993   9.766  0.00  0.00    -0.264 OA
ATOM     15  N   UNL     1      -3.398  -2.158   7.910  0.00  0.00    -0.105 NA
ATOM     16  N   UNL     1      -3.406  -2.088   6.513  0.00  0.00    -0.126 NA
ENDBRANCH   1   6
BRANCH   3  17
ATOM     17  C   UNL     1      -4.062  -1.242  -1.213  0.00  0.00    +0.143 C 
BRANCH  17  18
ATOM     18  C   UNL     1      -5.316  -1.950  -1.656  0.00  0.00    -0.030 A 
ATOM     19  C   UNL     1      -5.240  -2.975  -2.581  0.00  0.00    +0.005 A 
ATOM     20  C   UNL     1      -6.390  -3.628  -2.984  0.00  0.00    +0.000 A 
ATOM     21  C   UNL     1      -7.616  -3.250  -2.470  0.00  0.00    +0.000 A 
ATOM     22  C   UNL     1      -7.692  -2.222  -1.549  0.00  0.00    +0.000 A 
ATOM     23  C   UNL     1      -6.542  -1.572  -1.142  0.00  0.00    +0.005 A 
ENDBRANCH  17  18
ENDBRANCH   3  17
BRANCH   3  24
ATOM     24  C   UNL     1      -2.590  -3.076  -0.261  0.00  0.00    +0.182 C 
BRANCH  24  25
ATOM     25  C   UNL     1      -1.167  -2.585  -0.336  0.00  0.00    +0.128 A 
ATOM     26  N   UNL     1      -0.179  -3.499  -0.523  0.00  0.00    -0.309 N 
ATOM     27  H   UNL     1      -0.427  -4.566  -0.615  0.00  0.00    +0.170 HD
ATOM     28  C   UNL     1       1.115  -3.109  -0.597  0.00  0.00    +0.259 A 
ATOM     29  O   UNL     1       2.010  -3.916  -0.764  0.00  0.00    -0.267 OA
ATOM     30  C   UNL     1       1.397  -1.671  -0.468  0.00  0.00    +0.065 A 
ATOM     31  C   UNL     1       2.694  -1.166  -0.530  0.00  0.00    +0.015 A 
ATOM     32  C   UNL     1       2.901   0.190  -0.402  0.00  0.00    +0.001 A 
ATOM     33  C   UNL     1       1.830   1.053  -0.213  0.00  0.00    +0.002 A 
ATOM     34  C   UNL     1       0.541   0.575  -0.149  0.00  0.00    +0.028 A 
ATOM     35  C   UNL     1       0.305  -0.796  -0.276  0.00  0.00    +0.078 A 
ATOM     36  N   UNL     1      -0.949  -1.311  -0.219  0.00  0.00    -0.232 NA
ENDBRANCH  24  25
ENDBRANCH   3  24
TORSDOF 5
