REMARK  Name = ZINC07003765
REMARK  8 active torsions:
REMARK  status: ('A' for Active; 'I' for Inactive)
REMARK    1  A    between atoms: C_1  and  C_2
REMARK    2  A    between atoms: C_2  and  O_3
REMARK    3  A    between atoms: O_3  and  C_4
REMARK    4  A    between atoms: C_4  and  C_6
REMARK    5  A    between atoms: C_7  and  C_27
REMARK    6  A    between atoms: C_13  and  C_17
REMARK    7  A    between atoms: C_17  and  C_19
REMARK    8  A    between atoms: C_17  and  N_53
REMARK                            x       y       z     vdW  Elec       q    Type
REMARK                         _______ _______ _______ _____ _____    ______ ____
ROOT
ATOM      1  C   UNL     1       2.364   0.968   6.749  0.00  0.00    +0.102 A 
ATOM      2  C   UNL     1       2.022  -0.063   5.922  0.00  0.00    -0.015 A 
ATOM      3  C   UNL     1       1.337   0.199   4.734  0.00  0.00    +0.076 A 
ATOM      4  C   UNL     1       0.869  -0.748   3.696  0.00  0.00    +0.260 A 
ATOM      5  O   UNL     1       1.063  -1.945   3.808  0.00  0.00    -0.267 OA
ATOM      6  N   UNL     1       0.217  -0.251   2.626  0.00  0.00    -0.312 N 
ATOM      7  H   UNL     1      -0.112  -0.877   1.919  0.00  0.00    +0.170 HD
ATOM      8  C   UNL     1       0.000   1.080   2.488  0.00  0.00    +0.097 A 
ATOM      9  N   UNL     1       0.399   1.941   3.384  0.00  0.00    -0.228 NA
ATOM     10  C   UNL     1       1.045   1.558   4.478  0.00  0.00    +0.116 A 
ATOM     11  S   UNL     1       1.729   2.395   5.886  0.00  0.00    -0.062 S 
ATOM     12  C   UNL     1       2.382  -1.479   6.290  0.00  0.00    +0.046 C 
ENDROOT
BRANCH   1  13
ATOM     13  C   UNL     1       3.076   0.915   8.028  0.00  0.00    +0.346 C 
ATOM     14  O   UNL     1       3.442  -0.154   8.477  0.00  0.00    -0.244 OA
BRANCH  13  15
ATOM     15  O   UNL     1       3.326   2.053   8.708  0.00  0.00    -0.461 OA
BRANCH  15  17
ATOM     16  C   UNL     1       4.226   3.311  10.589  0.00  0.00    +0.048 C 
ATOM     17  C   UNL     1       4.036   1.925   9.968  0.00  0.00    +0.229 C 
ENDBRANCH  15  17
ENDBRANCH  13  15
ENDBRANCH   1  13
BRANCH   8  18
ATOM     18  C   UNL     1      -0.729   1.579   1.267  0.00  0.00    -0.004 C 
ATOM     19  C   UNL     1      -0.013   1.086   0.008  0.00  0.00    -0.005 C 
BRANCH  18  27
ATOM     20  C   UNL     1       0.612   3.592   1.365  0.00  0.00    -0.078 C 
ATOM     21  C   UNL     1       0.595   5.095   1.086  0.00  0.00    -0.019 C 
ATOM     22  C   UNL     1       0.076   5.836   2.323  0.00  0.00    -0.002 C 
ATOM     23  C   UNL     1      -1.438   5.634   2.421  0.00  0.00    -0.000 C 
ATOM     24  C   UNL     1      -2.062   5.804   1.035  0.00  0.00    -0.002 C 
ATOM     25  C   UNL     1      -2.613   4.463   0.553  0.00  0.00    -0.019 C 
ATOM     26  C   UNL     1      -1.453   3.572   0.096  0.00  0.00    -0.078 C 
ATOM     27  N   UNL     1      -0.764   3.056   1.299  0.00  0.00    +0.386 N 
ATOM     28  H   UNL     1      -1.280   3.359   2.134  0.00  0.00    -0.081 HD
ENDBRANCH  18  27
ENDBRANCH   8  18
TORSDOF 5
