REMARK  Name = ZINC65764355
REMARK  5 active torsions:
REMARK  status: ('A' for Active; 'I' for Inactive)
REMARK    1  A    between atoms: C_1  and  C_2
REMARK    2  A    between atoms: C_4  and  C_14
REMARK    3  A    between atoms: C_7  and  N_8
REMARK    4  A    between atoms: N_16  and  S_17
REMARK    5  A    between atoms: S_17  and  C_20
REMARK                            x       y       z     vdW  Elec       q    Type
REMARK                         _______ _______ _______ _____ _____    ______ ____
ROOT
ATOM      1  C   UNL     1      -0.018   1.503   0.010  0.00  0.00    +0.046 C 
ATOM      2  C   UNL     1       0.002  -0.004   0.002  0.00  0.00    -0.028 A 
ATOM      3  C   UNL     1       0.006  -0.686  -1.195  0.00  0.00    +0.018 A 
ATOM      4  C   UNL     1       0.025  -2.082  -1.202  0.00  0.00    +0.043 A 
ATOM      5  C   UNL     1       0.040  -2.783   0.006  0.00  0.00    +0.015 A 
ATOM      6  C   UNL     1       0.036  -2.096   1.199  0.00  0.00    +0.024 A 
ATOM      7  C   UNL     1       0.023  -0.705   1.203  0.00  0.00    +0.041 A 
ENDROOT
BRANCH   7   8
ATOM      8  N   UNL     1       0.025  -0.012   2.414  0.00  0.00    -0.254 N 
ATOM      9  C   UNL     1      -1.171   0.391   3.168  0.00  0.00    +0.134 C 
ATOM     10  C   UNL     1      -0.603   1.113   4.405  0.00  0.00    +0.125 C 
ATOM     11  N   UNL     1       0.854   1.041   4.217  0.00  0.00    -0.297 N 
ATOM     12  C   UNL     1       1.119   0.388   3.077  0.00  0.00    +0.307 C 
ATOM     13  O   UNL     1       2.248   0.181   2.679  0.00  0.00    -0.252 OA
ATOM     14  H   UNL     1       1.518   1.404   4.824  0.00  0.00    +0.150 HD
ENDBRANCH   7   8
BRANCH   4  15
ATOM     15  C   UNL     1       0.028  -2.816  -2.485  0.00  0.00    +0.295 C 
ATOM     16  O   UNL     1       0.013  -2.135  -3.654  0.00  0.00    -0.264 OA
ATOM     17  N   UNL     1       0.046  -4.117  -2.490  0.00  0.00    -0.086 NA
BRANCH  17  18
ATOM     18  S   UNL     1       0.050  -4.939  -3.927  0.00  0.00    +0.102 S 
ATOM     19  O   UNL     1      -1.203  -4.680  -4.547  0.00  0.00    -0.146 OA
ATOM     20  O   UNL     1       1.288  -4.646  -4.559  0.00  0.00    -0.146 OA
BRANCH  18  21
ATOM     21  C   UNL     1       0.075  -6.659  -3.543  0.00  0.00    +0.114 A 
ATOM     22  C   UNL     1       1.282  -7.316  -3.393  0.00  0.00    +0.029 A 
ATOM     23  C   UNL     1       1.303  -8.665  -3.092  0.00  0.00    +0.003 A 
ATOM     24  C   UNL     1       0.116  -9.358  -2.941  0.00  0.00    +0.020 A 
ATOM     25  C   UNL     1      -1.092  -8.701  -3.091  0.00  0.00    +0.043 A 
ATOM     26  C   UNL     1      -1.112  -7.349  -3.386  0.00  0.00    +0.049 A 
ATOM     27 CL   UNL     1      -2.582  -9.570  -2.901  0.00  0.00    -0.083 Cl
ENDBRANCH  18  21
ENDBRANCH  17  18
ENDBRANCH   4  15
TORSDOF 4
