REMARK  Name = ZINC36704276
REMARK  9 active torsions:
REMARK  status: ('A' for Active; 'I' for Inactive)
REMARK    1  A    between atoms: C_1  and  N_2
REMARK    2  A    between atoms: N_2  and  C_3
REMARK    3  A    between atoms: N_2  and  C_4
REMARK    4  A    between atoms: C_4  and  C_5
REMARK    5  A    between atoms: C_5  and  N_6
REMARK    6  A    between atoms: C_12  and  N_16
REMARK    7  A    between atoms: C_19  and  C_21
REMARK    8  A    between atoms: N_24  and  S_27
REMARK    9  A    between atoms: S_27  and  C_30
REMARK                            x       y       z     vdW  Elec       q    Type
REMARK                         _______ _______ _______ _____ _____    ______ ____
ROOT
ATOM      1  N   UNL     1      -2.631  -2.886  -0.075  0.00  0.00    -0.252 N 
ATOM      2  C   UNL     1      -3.262  -3.275  -1.245  0.00  0.00    +0.168 A 
ATOM      3  N   UNL     1      -2.760  -3.387  -2.453  0.00  0.00    -0.224 NA
ATOM      4  C   UNL     1      -3.499  -3.781  -3.512  0.00  0.00    +0.080 A 
ATOM      5  C   UNL     1      -3.085  -3.941  -4.855  0.00  0.00    +0.031 A 
ATOM      6  C   UNL     1      -3.970  -4.352  -5.816  0.00  0.00    +0.035 A 
ATOM      7  C   UNL     1      -5.296  -4.626  -5.512  0.00  0.00    +0.127 A 
ATOM      8  C   UNL     1      -5.736  -4.480  -4.209  0.00  0.00    +0.050 A 
ATOM      9  C   UNL     1      -4.856  -4.069  -3.239  0.00  0.00    +0.043 A 
ATOM     10  S   UNL     1      -4.964  -3.761  -1.493  0.00  0.00    -0.052 S 
ATOM     11  C   UNL     1      -3.287  -2.955   1.100  0.00  0.00    +0.224 C 
ATOM     12  O   UNL     1      -2.774  -2.519   2.109  0.00  0.00    -0.275 OA
ENDROOT
BRANCH  11  13
ATOM     13  C   UNL     1      -4.660  -3.575   1.161  0.00  0.00    +0.078 C 
ATOM     14  C   UNL     1      -5.708  -2.531   0.770  0.00  0.00    +0.030 C 
ATOM     15  C   UNL     1      -7.098  -3.174   0.799  0.00  0.00    +0.110 C 
ATOM     16  N   UNL     1      -7.312  -3.778   2.121  0.00  0.00    -0.176 NA
ATOM     17  C   UNL     1      -6.316  -4.728   2.633  0.00  0.00    +0.110 C 
ATOM     18  C   UNL     1      -4.934  -4.068   2.583  0.00  0.00    +0.030 C 
BRANCH  16  19
ATOM     19  S   UNL     1      -8.651  -3.395   3.017  0.00  0.00    +0.067 S 
ATOM     20  O   UNL     1      -8.319  -3.652   4.375  0.00  0.00    -0.152 OA
ATOM     21  O   UNL     1      -9.089  -2.120   2.568  0.00  0.00    -0.152 OA
BRANCH  19  22
ATOM     22  C   UNL     1      -9.915  -4.544   2.583  0.00  0.00    +0.143 A 
ATOM     23  C   UNL     1     -10.205  -5.745   3.139  0.00  0.00    +0.036 A 
ATOM     24  C   UNL     1     -11.255  -6.485   2.629  0.00  0.00    +0.010 A 
ATOM     25  C   UNL     1     -11.964  -5.987   1.587  0.00  0.00    +0.047 A 
ATOM     26  S   UNL     1     -11.151  -4.423   1.300  0.00  0.00    -0.077 S 
ENDBRANCH  19  22
ENDBRANCH  16  19
ENDBRANCH  11  13
BRANCH   7  27
ATOM     27  N   UNL     1      -6.231  -5.068  -6.571  0.00  0.00    +0.056 N 
ATOM     28  O   UNL     1      -5.840  -5.193  -7.709  0.00  0.00    -0.126 OA
ATOM     29  O   UNL     1      -7.385  -5.304  -6.299  0.00  0.00    -0.126 OA
ENDBRANCH   7  27
BRANCH   1  30
ATOM     30  C   UNL     1      -1.250  -2.399  -0.114  0.00  0.00    +0.097 C 
BRANCH  30  31
ATOM     31  C   UNL     1      -1.250  -0.872  -0.214  0.00  0.00    -0.060 C 
BRANCH  31  33
ATOM     32  C   UNL     1       0.136   1.069  -0.470  0.00  0.00    -0.097 C 
ATOM     33  N   UNL     1       0.135  -0.384  -0.254  0.00  0.00    +0.377 N 
ATOM     34  C   UNL     1       0.799  -0.690   1.021  0.00  0.00    -0.097 C 
ATOM     35  H   UNL     1       0.630  -0.836  -1.008  0.00  0.00    -0.083 HD
ENDBRANCH  31  33
ENDBRANCH  30  31
ENDBRANCH   1  30
TORSDOF 7
