REMARK  Name = ZINC59795160
REMARK  8 active torsions:
REMARK  status: ('A' for Active; 'I' for Inactive)
REMARK    1  A    between atoms: C_6  and  C_7
REMARK    2  A    between atoms: C_10  and  S_13
REMARK    3  A    between atoms: N_11  and  N_12
REMARK    4  A    between atoms: S_13  and  C_14
REMARK    5  A    between atoms: C_14  and  C_15
REMARK    6  A    between atoms: C_15  and  C_16
REMARK    7  A    between atoms: N_18  and  C_19
REMARK    8  A    between atoms: C_19  and  C_20
REMARK                            x       y       z     vdW  Elec       q    Type
REMARK                         _______ _______ _______ _____ _____    ______ ____
ROOT
ATOM      1  S   UNL     1      -3.555  -3.905  -0.385  0.00  0.00    -0.084 S 
ENDROOT
BRANCH   1   5
ATOM      2  C   UNL     1      -1.266  -0.763   0.011  0.00  0.00    +0.182 A 
ATOM      3  N   UNL     1      -2.458  -0.290   0.293  0.00  0.00    -0.127 NA
ATOM      4  N   UNL     1      -3.334  -1.225   0.203  0.00  0.00    -0.121 NA
ATOM      5  C   UNL     1      -2.756  -2.354  -0.141  0.00  0.00    +0.209 A 
ATOM      6  N   UNL     1      -1.422  -2.099  -0.281  0.00  0.00    -0.224 N 
BRANCH   2  12
ATOM      7  C   UNL     1      -0.017   1.392   0.010  0.00  0.00    +0.013 A 
ATOM      8  C   UNL     1       1.170   2.095   0.002  0.00  0.00    +0.021 A 
ATOM      9  C   UNL     1       2.378   1.419  -0.013  0.00  0.00    +0.041 A 
ATOM     10  C   UNL     1       2.403   0.034  -0.021  0.00  0.00    +0.021 A 
ATOM     11  C   UNL     1       1.223  -0.680  -0.014  0.00  0.00    +0.013 A 
ATOM     12  C   UNL     1       0.002  -0.004   0.002  0.00  0.00    +0.021 A 
ATOM     13 CL   UNL     1       3.868   2.311  -0.024  0.00  0.00    -0.084 Cl
ENDBRANCH   2  12
BRANCH   6  14
ATOM     14  N   UNL     1      -0.445  -2.986  -0.635  0.00  0.00    -0.295 N 
ATOM     15  H   UNL     1      -0.052  -3.434   0.179  0.00  0.00    +0.163 HD
ATOM     16  H   UNL     1      -0.795  -3.668  -1.290  0.00  0.00    +0.163 HD
ENDBRANCH   6  14
ENDBRANCH   1   5
BRANCH   1  17
ATOM     17  C   UNL     1      -5.304  -3.556  -0.051  0.00  0.00    +0.086 C 
BRANCH  17  18
ATOM     18  C   UNL     1      -6.123  -4.836  -0.229  0.00  0.00    +0.107 C 
BRANCH  18  19
ATOM     19  C   UNL     1      -7.575  -4.545   0.048  0.00  0.00    +0.214 C 
ATOM     20  O   UNL     1      -7.921  -3.425   0.357  0.00  0.00    -0.276 OA
ATOM     21  N   UNL     1      -8.490  -5.531  -0.048  0.00  0.00    -0.311 N 
ATOM     22  H   UNL     1      -8.213  -6.427  -0.295  0.00  0.00    +0.149 HD
BRANCH  21  23
ATOM     23  C   UNL     1      -9.902  -5.248   0.222  0.00  0.00    +0.139 C 
BRANCH  23  24
ATOM     24  C   UNL     1     -10.708  -6.509   0.047  0.00  0.00    -0.027 A 
ATOM     25  C   UNL     1     -11.240  -6.822  -1.191  0.00  0.00    +0.009 A 
ATOM     26  C   UNL     1     -11.980  -7.978  -1.356  0.00  0.00    +0.050 A 
ATOM     27  C   UNL     1     -12.191  -8.826  -0.281  0.00  0.00    +0.166 A 
ATOM     28  C   UNL     1     -11.656  -8.510   0.965  0.00  0.00    +0.167 A 
ATOM     29  C   UNL     1     -10.911  -7.353   1.123  0.00  0.00    +0.054 A 
ATOM     30  O   UNL     1     -12.001  -9.492   1.849  0.00  0.00    -0.453 OA
ATOM     31  C   UNL     1     -13.092 -10.199   1.231  0.00  0.00    +0.466 C 
ATOM     32  O   UNL     1     -12.872 -10.005  -0.178  0.00  0.00    -0.453 OA
ENDBRANCH  23  24
ENDBRANCH  21  23
ENDBRANCH  18  19
ENDBRANCH  17  18
ENDBRANCH   1  17
TORSDOF 8
