REMARK  Name = ZINC39733690
REMARK  7 active torsions:
REMARK  status: ('A' for Active; 'I' for Inactive)
REMARK    1  A    between atoms: C_1  and  C_2
REMARK    2  A    between atoms: C_4  and  C_32
REMARK    3  A    between atoms: C_8  and  C_12
REMARK    4  A    between atoms: C_12  and  C_14
REMARK    5  A    between atoms: C_12  and  S_15
REMARK    6  A    between atoms: S_15  and  C_16
REMARK    7  A    between atoms: C_20  and  C_22
REMARK                            x       y       z     vdW  Elec       q    Type
REMARK                         _______ _______ _______ _____ _____    ______ ____
ROOT
ATOM      1  S   UNL     1      -3.956  -3.436   5.288  0.00  0.00    -0.086 S 
ENDROOT
BRANCH   1   2
ATOM      2  C   UNL     1      -3.982  -4.357   6.851  0.00  0.00    +0.340 C 
ATOM      3  N   UNL     1      -2.959  -3.834   7.774  0.00  0.00    -0.219 N 
ATOM      4  N   UNL     1      -2.089  -4.908   8.013  0.00  0.00    -0.145 NA
ATOM      5  C   UNL     1      -2.476  -5.953   7.359  0.00  0.00    +0.240 C 
ATOM      6  O   UNL     1      -3.600  -5.723   6.635  0.00  0.00    -0.442 OA
ATOM      7  H   UNL     1      -2.900  -2.938   8.140  0.00  0.00    +0.173 HD
BRANCH   5   8
ATOM      8  C   UNL     1      -1.774  -7.253   7.395  0.00  0.00    +0.042 A 
ATOM      9  C   UNL     1      -2.257  -8.331   6.651  0.00  0.00    +0.017 A 
ATOM     10  C   UNL     1      -1.600  -9.542   6.686  0.00  0.00    +0.050 A 
ATOM     11  C   UNL     1      -0.459  -9.696   7.460  0.00  0.00    +0.166 A 
ATOM     12  C   UNL     1       0.029  -8.623   8.205  0.00  0.00    +0.167 A 
ATOM     13  C   UNL     1      -0.622  -7.404   8.170  0.00  0.00    +0.062 A 
ATOM     14  O   UNL     1       1.150  -9.030   8.872  0.00  0.00    -0.453 OA
ATOM     15  C   UNL     1       1.109 -10.469   8.850  0.00  0.00    +0.466 C 
ATOM     16  O   UNL     1       0.357 -10.772   7.660  0.00  0.00    -0.453 OA
ENDBRANCH   5   8
ENDBRANCH   1   2
BRANCH   1  17
ATOM     17  C   UNL     1      -2.262  -3.654   4.678  0.00  0.00    +0.114 C 
ATOM     18  C   UNL     1      -2.022  -5.130   4.356  0.00  0.00    +0.027 C 
BRANCH  17  25
ATOM     19  C   UNL     1      -0.019   1.526   0.010  0.00  0.00    +0.024 C 
ATOM     20  C   UNL     1       0.002  -0.004   0.002  0.00  0.00    +0.076 C 
ATOM     21  C   UNL     1      -1.399  -0.565   0.089  0.00  0.00    -0.045 C 
ATOM     22  C   UNL     1      -1.704  -1.321   1.155  0.00  0.00    +0.071 C 
ATOM     23  C   UNL     1      -0.645  -1.546   2.162  0.00  0.00    +0.111 C 
ATOM     24  N   UNL     1      -0.881  -2.276   3.226  0.00  0.00    -0.226 NA
ATOM     25  C   UNL     1      -2.066  -2.829   3.432  0.00  0.00    +0.136 C 
ATOM     26  N   UNL     1      -3.079  -2.698   2.609  0.00  0.00    -0.160 NA
ATOM     27  C   UNL     1      -3.005  -1.988   1.478  0.00  0.00    +0.271 C 
ATOM     28  O   UNL     1      -3.966  -1.886   0.735  0.00  0.00    -0.268 OA
ATOM     29  S   UNL     1       0.764  -0.661   1.541  0.00  0.00    -0.098 S 
ATOM     30  C   UNL     1      -2.419  -0.284  -0.984  0.00  0.00    +0.041 C 
ENDBRANCH  17  25
ENDBRANCH   1  17
TORSDOF 4
