REMARK  Name = ZINC64137227
REMARK  7 active torsions:
REMARK  status: ('A' for Active; 'I' for Inactive)
REMARK    1  A    between atoms: C_1  and  C_2
REMARK    2  A    between atoms: C_7  and  C_8
REMARK    3  A    between atoms: N_10  and  C_11
REMARK    4  A    between atoms: C_16  and  C_24
REMARK    5  A    between atoms: N_26  and  C_27
REMARK    6  A    between atoms: C_27  and  C_28
REMARK    7  A    between atoms: C_28  and  C_29
REMARK                            x       y       z     vdW  Elec       q    Type
REMARK                         _______ _______ _______ _____ _____    ______ ____
ROOT
ATOM      1  C   UNL     1       0.578   0.067   4.894  0.00  0.00    +0.224 C 
ATOM      2  N   UNL     1       1.079  -0.812   5.966  0.00  0.00    -0.320 N 
ATOM      3  C   UNL     1       0.270  -1.033   7.032  0.00  0.00    +0.024 C 
ATOM      4  C   UNL     1       0.688  -1.920   8.207  0.00  0.00    +0.065 C 
ATOM      5  C   UNL     1      -0.025  -1.422   9.465  0.00  0.00    +0.088 C 
ATOM      6  C   UNL     1      -1.542  -1.457   9.270  0.00  0.00    +0.093 C 
ATOM      7  C   UNL     1      -1.908  -0.581   8.089  0.00  0.00    +0.172 C 
ATOM      8  O   UNL     1      -2.983  -0.016   8.034  0.00  0.00    -0.291 OA
ATOM      9  C   UNL     1      -0.967  -0.443   7.067  0.00  0.00    +0.070 C 
ATOM     10  H   UNL     1       1.958  -1.219   5.911  0.00  0.00    +0.148 HD
ATOM     11  S   UNL     1      -1.081   0.496   5.567  0.00  0.00    -0.079 S 
ENDROOT
BRANCH   1  14
ATOM     12  C   UNL     1       0.242   0.021   2.481  0.00  0.00    +0.246 C 
ATOM     13  O   UNL     1       0.135   1.232   2.503  0.00  0.00    -0.270 OA
ATOM     14  N   UNL     1       0.465  -0.656   3.625  0.00  0.00    -0.284 N 
ATOM     15  H   UNL     1       0.551  -1.622   3.607  0.00  0.00    +0.152 HD
BRANCH  12  22
ATOM     16  C   UNL     1      -0.511   1.452   0.082  0.00  0.00    +0.044 C 
ATOM     17  C   UNL     1      -0.234  -0.028   0.036  0.00  0.00    -0.038 A 
ATOM     18  C   UNL     1      -0.334  -0.714  -1.157  0.00  0.00    +0.004 A 
ATOM     19  C   UNL     1      -0.080  -2.073  -1.200  0.00  0.00    +0.000 A 
ATOM     20  C   UNL     1       0.275  -2.754  -0.049  0.00  0.00    +0.001 A 
ATOM     21  C   UNL     1       0.378  -2.080   1.150  0.00  0.00    +0.013 A 
ATOM     22  C   UNL     1       0.128  -0.708   1.200  0.00  0.00    +0.040 A 
ENDBRANCH  12  22
ENDBRANCH   1  14
BRANCH   5  23
ATOM     23  C   UNL     1       0.346  -2.303  10.630  0.00  0.00    +0.217 C 
ATOM     24  O   UNL     1       1.105  -3.235  10.467  0.00  0.00    -0.275 OA
ATOM     25  N   UNL     1      -0.165  -2.056  11.852  0.00  0.00    -0.315 N 
ATOM     26  H   UNL     1      -0.772  -1.311  11.982  0.00  0.00    +0.149 HD
BRANCH  25  27
ATOM     27  C   UNL     1       0.196  -2.912  12.984  0.00  0.00    +0.108 C 
BRANCH  27  28
ATOM     28  C   UNL     1      -0.515  -2.418  14.245  0.00  0.00    +0.052 C 
BRANCH  28  29
ATOM     29  C   UNL     1      -0.144  -3.299  15.410  0.00  0.00    -0.040 C 
ATOM     30  C   UNL     1       0.834  -3.077  16.318  0.00  0.00    -0.001 A 
ATOM     31  C   UNL     1       1.808  -1.992  16.485  0.00  0.00    +0.010 A 
ATOM     32  C   UNL     1       2.683  -2.049  17.514  0.00  0.00    +0.001 A 
ATOM     33  C   UNL     1       2.685  -3.117  18.422  0.00  0.00    +0.002 A 
ATOM     34  C   UNL     1       1.821  -4.151  18.334  0.00  0.00    +0.026 A 
ATOM     35  C   UNL     1       0.856  -4.193  17.290  0.00  0.00    +0.043 A 
ATOM     36  N   UNL     1      -0.073  -5.071  16.995  0.00  0.00    -0.380 N 
ATOM     37  C   UNL     1      -0.793  -4.607  15.804  0.00  0.00    +0.144 C 
ATOM     38  H   UNL     1      -0.255  -5.888  17.485  0.00  0.00    +0.160 HD
ENDBRANCH  28  29
ENDBRANCH  27  28
ENDBRANCH  25  27
ENDBRANCH   5  23
TORSDOF 6
