REMARK  Name = ZINC63638764
REMARK  7 active torsions:
REMARK  status: ('A' for Active; 'I' for Inactive)
REMARK    1  A    between atoms: C_1  and  C_2
REMARK    2  A    between atoms: C_4  and  C_25
REMARK    3  A    between atoms: C_7  and  N_8
REMARK    4  A    between atoms: C_12  and  N_16
REMARK    5  A    between atoms: N_16  and  C_17
REMARK    6  A    between atoms: C_21  and  S_23
REMARK    7  A    between atoms: S_23  and  C_24
REMARK                            x       y       z     vdW  Elec       q    Type
REMARK                         _______ _______ _______ _____ _____    ______ ____
ROOT
ATOM      1  N   UNL     1       0.025  -0.010   2.415  0.00  0.00    -0.209 N 
ATOM      2  C   UNL     1      -1.099   0.331   3.058  0.00  0.00    +0.228 C 
ATOM      3  O   UNL     1      -2.224   0.086   2.680  0.00  0.00    -0.275 OA
ATOM      4  C   UNL     1      -0.742   1.068   4.329  0.00  0.00    +0.128 C 
ATOM      5  C   UNL     1       0.800   1.096   4.311  0.00  0.00    +0.166 C 
ATOM      6  C   UNL     1       1.152   0.365   3.033  0.00  0.00    +0.247 C 
ATOM      7  O   UNL     1       2.277   0.156   2.631  0.00  0.00    -0.273 OA
ENDROOT
BRANCH   1  14
ATOM      8  C   UNL     1      -0.018   1.503   0.010  0.00  0.00    +0.046 C 
ATOM      9  C   UNL     1       0.002  -0.004   0.002  0.00  0.00    -0.028 A 
ATOM     10  C   UNL     1       0.006  -0.685  -1.194  0.00  0.00    +0.020 A 
ATOM     11  C   UNL     1       0.025  -2.083  -1.201  0.00  0.00    +0.064 A 
ATOM     12  C   UNL     1       0.040  -2.784   0.009  0.00  0.00    +0.017 A 
ATOM     13  C   UNL     1       0.036  -2.096   1.201  0.00  0.00    +0.025 A 
ATOM     14  C   UNL     1       0.023  -0.705   1.203  0.00  0.00    +0.047 A 
BRANCH  11  15
ATOM     15  C   UNL     1       0.028  -2.816  -2.479  0.00  0.00    +0.387 C 
ATOM     16  O   UNL     1       0.014  -2.201  -3.536  0.00  0.00    -0.241 OA
ATOM     17  O   UNL     1       0.045  -4.039  -2.483  0.00  0.00    -0.241 OA
ENDBRANCH  11  15
ENDBRANCH   1  14
BRANCH   5  18
ATOM     18  N   UNL     1       1.291   2.476   4.277  0.00  0.00    -0.333 N 
ATOM     19  H   UNL     1       0.732   3.180   3.914  0.00  0.00    +0.147 HD
BRANCH  18  20
ATOM     20  C   UNL     1       2.564   2.776   4.767  0.00  0.00    +0.029 A 
ATOM     21  C   UNL     1       3.368   1.766   5.282  0.00  0.00    +0.023 A 
ATOM     22  C   UNL     1       4.627   2.062   5.767  0.00  0.00    +0.003 A 
ATOM     23  C   UNL     1       5.092   3.363   5.743  0.00  0.00    +0.015 A 
ATOM     24  C   UNL     1       4.293   4.378   5.229  0.00  0.00    +0.009 A 
ATOM     25  C   UNL     1       3.030   4.083   4.735  0.00  0.00    +0.037 A 
BRANCH  24  26
ATOM     26  S   UNL     1       4.887   6.037   5.198  0.00  0.00    -0.129 S 
ATOM     27  C   UNL     1       6.546   5.923   5.924  0.00  0.00    +0.090 C 
ENDBRANCH  24  26
ENDBRANCH  18  20
ENDBRANCH   5  18
TORSDOF 5
