REMARK  Name = ZINC18119695
REMARK  9 active torsions:
REMARK  status: ('A' for Active; 'I' for Inactive)
REMARK    1  A    between atoms: C_1  and  O_2
REMARK    2  A    between atoms: O_2  and  C_3
REMARK    3  A    between atoms: C_3  and  C_4
REMARK    4  A    between atoms: C_4  and  N_5
REMARK    5  A    between atoms: N_5  and  C_6
REMARK    6  A    between atoms: C_7  and  N_22
REMARK    7  A    between atoms: N_8  and  C_15
REMARK    8  A    between atoms: C_15  and  C_16
REMARK    9  A    between atoms: C_23  and  C_25
REMARK                            x       y       z     vdW  Elec       q    Type
REMARK                         _______ _______ _______ _____ _____    ______ ____
ROOT
ATOM      1  C   UNL     1      -3.180   5.696  -3.351  0.00  0.00    +0.140 A 
ATOM      2  C   UNL     1      -2.871   4.400  -3.712  0.00  0.00    +0.128 A 
ATOM      3  N   UNL     1      -3.435   3.357  -3.015  0.00  0.00    -0.276 N 
ATOM      4  C   UNL     1      -4.269   3.596  -1.987  0.00  0.00    +0.331 A 
ATOM      5  O   UNL     1      -4.753   2.659  -1.381  0.00  0.00    -0.246 OA
ATOM      6  N   UNL     1      -4.577   4.852  -1.618  0.00  0.00    -0.273 N 
ATOM      7  H   UNL     1      -5.200   5.002  -0.850  0.00  0.00    +0.173 HD
ATOM      8  C   UNL     1      -4.056   5.909  -2.270  0.00  0.00    +0.277 A 
ATOM      9  O   UNL     1      -4.343   7.044  -1.927  0.00  0.00    -0.266 OA
ENDROOT
BRANCH   1  10
ATOM     10  N   UNL     1      -2.623   6.787  -4.048  0.00  0.00    -0.258 N 
ATOM     11  C   UNL     1      -1.761   7.616  -3.426  0.00  0.00    +0.258 C 
ATOM     12  O   UNL     1      -1.384   7.365  -2.296  0.00  0.00    -0.269 OA
BRANCH  11  13
ATOM     13  C   UNL     1      -1.277   8.823  -4.111  0.00  0.00    +0.076 A 
ATOM     14  C   UNL     1      -0.489   9.817  -3.622  0.00  0.00    +0.029 A 
ATOM     15  C   UNL     1      -0.132  10.900  -4.446  0.00  0.00    -0.010 A 
ATOM     16  C   UNL     1       0.673  12.022  -4.121  0.00  0.00    +0.009 A 
ATOM     17  C   UNL     1       0.924  12.987  -5.043  0.00  0.00    +0.001 A 
ATOM     18  C   UNL     1       0.407  12.916  -6.331  0.00  0.00    +0.001 A 
ATOM     19  C   UNL     1      -0.382  11.842  -6.689  0.00  0.00    +0.015 A 
ATOM     20  C   UNL     1      -0.645  10.854  -5.763  0.00  0.00    +0.020 A 
ATOM     21  S   UNL     1      -1.571   9.340  -5.794  0.00  0.00    -0.084 S 
ENDBRANCH  11  13
BRANCH  10  22
ATOM     22  C   UNL     1      -2.980   7.021  -5.450  0.00  0.00    +0.142 C 
BRANCH  22  23
ATOM     23  C   UNL     1      -4.231   7.899  -5.518  0.00  0.00    +0.179 C 
BRANCH  23  25
ATOM     24  C   UNL     1      -5.041  10.095  -5.000  0.00  0.00    +0.194 C 
ATOM     25  O   UNL     1      -3.934   9.191  -4.984  0.00  0.00    -0.381 OA
ENDBRANCH  23  25
ENDBRANCH  22  23
ENDBRANCH  10  22
ENDBRANCH   1  10
BRANCH   2  26
ATOM     26  N   UNL     1      -2.014   4.156  -4.758  0.00  0.00    -0.343 N 
ATOM     27  H   UNL     1      -1.872   3.247  -5.066  0.00  0.00    +0.144 HD
ATOM     28  H   UNL     1      -1.552   4.892  -5.189  0.00  0.00    +0.144 HD
ENDBRANCH   2  26
BRANCH   3  29
ATOM     29  C   UNL     1      -3.120   1.976  -3.392  0.00  0.00    +0.163 C 
BRANCH  29  30
ATOM     30  C   UNL     1      -4.117   1.495  -4.414  0.00  0.00    -0.028 A 
ATOM     31  C   UNL     1      -5.284   0.878  -4.005  0.00  0.00    +0.005 A 
ATOM     32  C   UNL     1      -6.196   0.432  -4.944  0.00  0.00    +0.000 A 
ATOM     33  C   UNL     1      -5.945   0.612  -6.291  0.00  0.00    +0.000 A 
ATOM     34  C   UNL     1      -4.780   1.233  -6.700  0.00  0.00    +0.000 A 
ATOM     35  C   UNL     1      -3.865   1.675  -5.762  0.00  0.00    +0.005 A 
ENDBRANCH  29  30
ENDBRANCH   3  29
TORSDOF 8
