REMARK  Name = ZINC09284118
REMARK  12 active torsions:
REMARK  status: ('A' for Active; 'I' for Inactive)
REMARK    1  A    between atoms: C_1  and  C_2
REMARK    2  A    between atoms: C_2  and  C_3
REMARK    3  A    between atoms: C_2  and  C_4
REMARK    4  A    between atoms: C_4  and  C_6
REMARK    5  A    between atoms: C_4  and  N_22
REMARK    6  A    between atoms: C_6  and  O_8
REMARK    7  A    between atoms: O_8  and  C_9
REMARK    8  A    between atoms: C_9  and  C_10
REMARK    9  A    between atoms: N_12  and  C_13
REMARK   10  A    between atoms: N_22  and  S_23
REMARK   11  A    between atoms: S_23  and  C_26
REMARK   12  A    between atoms: C_27  and  C_28
REMARK                            x       y       z     vdW  Elec       q    Type
REMARK                         _______ _______ _______ _____ _____    ______ ____
ROOT
ATOM      1  C   UNL     1       8.339  -5.210   5.582  0.00  0.00    +0.187 C 
ENDROOT
BRANCH   1   3
ATOM      2  C   UNL     1       6.975  -3.713   7.045  0.00  0.00    +0.009 C 
ATOM      3  C   UNL     1       7.120  -5.136   6.504  0.00  0.00    +0.012 C 
ATOM      4  C   UNL     1       5.863  -5.513   5.717  0.00  0.00    +0.009 C 
ENDBRANCH   1   3
BRANCH   1   5
ATOM      5  C   UNL     1       8.217  -4.164   4.504  0.00  0.00    +0.327 C 
ATOM      6  O   UNL     1       9.060  -3.305   4.397  0.00  0.00    -0.249 OA
BRANCH   5   7
ATOM      7  O   UNL     1       7.173  -4.187   3.662  0.00  0.00    -0.454 OA
BRANCH   7   8
ATOM      8  C   UNL     1       7.120  -3.149   2.648  0.00  0.00    +0.328 C 
BRANCH   8   9
ATOM      9  C   UNL     1       5.887  -3.335   1.802  0.00  0.00    +0.255 C 
ATOM     10  O   UNL     1       5.127  -4.252   2.031  0.00  0.00    -0.272 OA
ATOM     11  N   UNL     1       5.628  -2.482   0.791  0.00  0.00    -0.283 N 
ATOM     12  H   UNL     1       6.272  -1.795   0.559  0.00  0.00    +0.155 HD
BRANCH  11  13
ATOM     13  C   UNL     1       4.428  -2.588   0.075  0.00  0.00    +0.037 A 
ATOM     14  C   UNL     1       3.265  -2.980   0.723  0.00  0.00    +0.027 A 
ATOM     15  C   UNL     1       2.081  -3.084   0.019  0.00  0.00    +0.051 A 
ATOM     16  C   UNL     1       2.051  -2.797  -1.337  0.00  0.00    +0.166 A 
ATOM     17  C   UNL     1       3.216  -2.404  -1.990  0.00  0.00    +0.168 A 
ATOM     18  C   UNL     1       4.403  -2.300  -1.283  0.00  0.00    +0.072 A 
ATOM     19  O   UNL     1       2.926  -2.182  -3.305  0.00  0.00    -0.453 OA
ATOM     20  C   UNL     1       1.494  -2.048  -3.366  0.00  0.00    +0.466 C 
ATOM     21  O   UNL     1       1.030  -2.823  -2.244  0.00  0.00    -0.453 OA
ENDBRANCH  11  13
ENDBRANCH   8   9
ENDBRANCH   7   8
ENDBRANCH   5   7
ENDBRANCH   1   5
BRANCH   1  22
ATOM     22  N   UNL     1       9.556  -4.968   6.362  0.00  0.00    -0.176 NA
ATOM     23  H   UNL     1       9.847  -4.059   6.537  0.00  0.00    +0.149 HD
BRANCH  22  24
ATOM     24  S   UNL     1      10.435  -6.245   6.942  0.00  0.00    +0.052 S 
ATOM     25  O   UNL     1      11.552  -5.693   7.625  0.00  0.00    -0.154 OA
ATOM     26  O   UNL     1       9.511  -7.120   7.575  0.00  0.00    -0.154 OA
BRANCH  24  27
ATOM     27  C   UNL     1      11.075  -7.113   5.549  0.00  0.00    +0.153 C 
ATOM     28  C   UNL     1      12.384  -7.162   5.342  0.00  0.00    +0.028 C 
BRANCH  28  29
ATOM     29  C   UNL     1      12.921  -7.889   4.173  0.00  0.00    -0.024 A 
ATOM     30  C   UNL     1      12.054  -8.532   3.289  0.00  0.00    +0.008 A 
ATOM     31  C   UNL     1      12.562  -9.205   2.196  0.00  0.00    +0.001 A 
ATOM     32  C   UNL     1      13.928  -9.254   1.984  0.00  0.00    +0.000 A 
ATOM     33  C   UNL     1      14.793  -8.623   2.860  0.00  0.00    +0.001 A 
ATOM     34  C   UNL     1      14.298  -7.942   3.953  0.00  0.00    +0.008 A 
ENDBRANCH  28  29
ENDBRANCH  24  27
ENDBRANCH  22  24
ENDBRANCH   1  22
TORSDOF 10
