REMARK  Name = ZINC35967557
REMARK  8 active torsions:
REMARK  status: ('A' for Active; 'I' for Inactive)
REMARK    1  A    between atoms: C_1  and  C_2
REMARK    2  A    between atoms: C_2  and  N_3
REMARK    3  A    between atoms: C_6  and  C_11
REMARK    4  A    between atoms: C_16  and  C_17
REMARK    5  A    between atoms: N_23  and  C_25
REMARK    6  A    between atoms: C_25  and  C_27
REMARK    7  A    between atoms: C_25  and  C_34
REMARK    8  A    between atoms: C_27  and  C_28
REMARK                            x       y       z     vdW  Elec       q    Type
REMARK                         _______ _______ _______ _____ _____    ______ ____
ROOT
ATOM      1  N   UNL     1       1.027  -0.912  -1.410  0.00  0.00    -0.257 N 
ATOM      2  C   UNL     1       0.257  -0.906  -2.538  0.00  0.00    +0.042 C 
ATOM      3  C   UNL     1       0.766  -1.268  -3.734  0.00  0.00    +0.058 C 
ATOM      4  C   UNL     1       2.223  -1.681  -3.784  0.00  0.00    +0.142 C 
ATOM      5  N   UNL     1       2.967  -1.654  -2.513  0.00  0.00    -0.288 N 
ATOM      6  C   UNL     1       2.320  -1.263  -1.398  0.00  0.00    +0.307 C 
ATOM      7  O   UNL     1       2.927  -1.234  -0.345  0.00  0.00    -0.252 OA
ATOM      8  C   UNL     1      -0.223  -1.178  -4.735  0.00  0.00    +0.247 C 
ATOM      9  O   UNL     1      -0.040  -1.445  -5.908  0.00  0.00    -0.270 OA
ATOM     10  N   UNL     1      -1.395  -0.759  -4.224  0.00  0.00    -0.280 N 
ATOM     11  C   UNL     1      -1.192  -0.550  -2.783  0.00  0.00    +0.160 C 
ATOM     12  H   UNL     1       3.903  -1.907  -2.481  0.00  0.00    +0.151 HD
ENDROOT
BRANCH   4  13
ATOM     13  C   UNL     1       2.289  -3.084  -4.330  0.00  0.00    -0.011 A 
ATOM     14  C   UNL     1       1.844  -4.146  -3.565  0.00  0.00    +0.006 A 
ATOM     15  C   UNL     1       1.905  -5.432  -4.067  0.00  0.00    +0.000 A 
ATOM     16  C   UNL     1       2.411  -5.657  -5.334  0.00  0.00    +0.001 A 
ATOM     17  C   UNL     1       2.855  -4.595  -6.099  0.00  0.00    +0.013 A 
ATOM     18  C   UNL     1       2.791  -3.308  -5.599  0.00  0.00    +0.060 A 
BRANCH  18  19
ATOM     19  C   UNL     1       3.270  -2.150  -6.435  0.00  0.00    +0.418 C 
ATOM     20  F   UNL     1       3.651  -2.613  -7.699  0.00  0.00    -0.166 F 
ATOM     21  F   UNL     1       2.239  -1.215  -6.572  0.00  0.00    -0.166 F 
ATOM     22  F   UNL     1       4.367  -1.546  -5.810  0.00  0.00    -0.166 F 
ENDBRANCH  18  19
ENDBRANCH   4  13
BRANCH   1  24
ATOM     23  C   UNL     1       0.566   1.003   0.038  0.00  0.00    +0.025 C 
ATOM     24  C   UNL     1       0.407  -0.507  -0.146  0.00  0.00    +0.111 C 
ENDBRANCH   1  24
BRANCH  10  25
ATOM     25  C   UNL     1      -2.641  -0.549  -4.965  0.00  0.00    +0.167 C 
BRANCH  25  26
ATOM     26  C   UNL     1      -3.069  -1.845  -5.605  0.00  0.00    +0.236 C 
ATOM     27  O   UNL     1      -2.244  -2.698  -5.858  0.00  0.00    -0.274 OA
ATOM     28  N   UNL     1      -4.368  -2.057  -5.895  0.00  0.00    -0.300 N 
ATOM     29  C   UNL     1      -5.450  -1.074  -5.745  0.00  0.00    +0.108 C 
ATOM     30  C   UNL     1      -6.761  -1.767  -6.172  0.00  0.00    +0.020 C 
ATOM     31  C   UNL     1      -6.430  -3.273  -5.999  0.00  0.00    +0.020 C 
ATOM     32  C   UNL     1      -4.938  -3.311  -6.420  0.00  0.00    +0.108 C 
ENDBRANCH  25  26
BRANCH  25  33
ATOM     33  C   UNL     1      -2.417   0.505  -6.051  0.00  0.00    +0.067 C 
BRANCH  33  34
ATOM     34  C   UNL     1      -2.118   1.834  -5.406  0.00  0.00    -0.045 A 
ATOM     35  C   UNL     1      -3.150   2.699  -5.095  0.00  0.00    +0.004 A 
ATOM     36  C   UNL     1      -2.876   3.918  -4.504  0.00  0.00    +0.000 A 
ATOM     37  C   UNL     1      -1.569   4.272  -4.223  0.00  0.00    +0.000 A 
ATOM     38  C   UNL     1      -0.537   3.406  -4.533  0.00  0.00    +0.000 A 
ATOM     39  C   UNL     1      -0.812   2.185  -5.121  0.00  0.00    +0.004 A 
ENDBRANCH  33  34
ENDBRANCH  25  33
ENDBRANCH  10  25
TORSDOF 7
