REMARK  Name = ZINC22937433
REMARK  11 active torsions:
REMARK  status: ('A' for Active; 'I' for Inactive)
REMARK    1  A    between atoms: C_1  and  C_2
REMARK    2  A    between atoms: C_2  and  N_3
REMARK    3  A    between atoms: N_6  and  C_9
REMARK    4  A    between atoms: C_9  and  C_10
REMARK    5  A    between atoms: C_10  and  C_11
REMARK    6  A    between atoms: C_11  and  N_12
REMARK    7  A    between atoms: N_12  and  S_13
REMARK    8  A    between atoms: S_13  and  C_16
REMARK    9  A    between atoms: C_21  and  C_22
REMARK   10  A    between atoms: C_28  and  C_32
REMARK   11  A    between atoms: C_28  and  C_33
REMARK                            x       y       z     vdW  Elec       q    Type
REMARK                         _______ _______ _______ _____ _____    ______ ____
ROOT
ATOM      1  C   UNL     1      -8.735  -6.823  -2.133  0.00  0.00    +0.110 A 
ATOM      2  C   UNL     1      -9.866  -6.107  -1.803  0.00  0.00    +0.055 A 
ATOM      3  C   UNL     1     -10.847  -5.875  -2.760  0.00  0.00    +0.049 A 
ATOM      4  C   UNL     1     -10.673  -6.378  -4.063  0.00  0.00    +0.011 A 
ATOM      5  C   UNL     1      -9.526  -7.100  -4.380  0.00  0.00    +0.016 A 
ATOM      6  C   UNL     1      -8.562  -7.313  -3.419  0.00  0.00    -0.023 A 
ATOM      7  C   UNL     1      -7.317  -8.088  -3.764  0.00  0.00    +0.046 C 
ATOM      8  C   UNL     1     -11.866  -5.962  -4.805  0.00  0.00    +0.046 A 
ATOM      9  C   UNL     1     -12.659  -5.249  -3.918  0.00  0.00    +0.028 A 
ATOM     10  N   UNL     1     -12.058  -5.207  -2.722  0.00  0.00    -0.357 N 
ATOM     11  H   UNL     1     -12.421  -4.768  -1.937  0.00  0.00    +0.166 HD
ATOM     12  C   UNL     1     -13.978  -4.644  -4.338  0.00  0.00    +0.060 C 
ATOM     13  C   UNL     1     -13.918  -4.371  -5.846  0.00  0.00    -0.023 C 
ATOM     14  C   UNL     1     -13.578  -5.652  -6.608  0.00  0.00    +0.086 C 
ATOM     15  C   UNL     1     -12.237  -6.186  -6.152  0.00  0.00    +0.166 C 
ATOM     16  O   UNL     1     -11.507  -6.785  -6.915  0.00  0.00    -0.292 OA
ATOM     17  C   UNL     1     -12.845  -3.317  -6.126  0.00  0.00    +0.011 C 
ATOM     18  C   UNL     1     -15.275  -3.847  -6.319  0.00  0.00    +0.011 C 
ENDROOT
BRANCH   1  19
ATOM     19  S   UNL     1      -7.497  -7.111  -0.914  0.00  0.00    +0.059 S 
ATOM     20  O   UNL     1      -7.194  -8.499  -0.962  0.00  0.00    -0.153 OA
ATOM     21  O   UNL     1      -7.939  -6.469   0.274  0.00  0.00    -0.153 OA
BRANCH  19  22
ATOM     22  N   UNL     1      -6.132  -6.312  -1.404  0.00  0.00    -0.190 NA
ATOM     23  H   UNL     1      -5.330  -6.811  -1.623  0.00  0.00    +0.148 HD
BRANCH  22  24
ATOM     24  C   UNL     1      -6.136  -4.851  -1.506  0.00  0.00    +0.107 C 
BRANCH  24  25
ATOM     25  C   UNL     1      -4.696  -4.341  -1.592  0.00  0.00    +0.032 C 
BRANCH  25  26
ATOM     26  C   UNL     1      -4.700  -2.815  -1.699  0.00  0.00    +0.085 C 
BRANCH  26  30
ATOM     27  N   UNL     1      -1.122  -0.678  -0.990  0.00  0.00    +0.381 N 
ATOM     28  C   UNL     1      -1.828  -0.442  -2.256  0.00  0.00    -0.063 C 
ATOM     29  C   UNL     1      -3.283  -0.897  -2.122  0.00  0.00    +0.066 C 
ATOM     30  N   UNL     1      -3.317  -2.326  -1.781  0.00  0.00    -0.306 NA
ATOM     31  C   UNL     1      -2.592  -2.582  -0.528  0.00  0.00    +0.066 C 
ATOM     32  C   UNL     1      -1.143  -2.113  -0.676  0.00  0.00    -0.063 C 
ATOM     33  H   UNL     1      -1.578  -0.165  -0.251  0.00  0.00    -0.082 HD
BRANCH  27  35
ATOM     34  C   UNL     1       0.296   1.292  -1.317  0.00  0.00    -0.017 C 
ATOM     35  C   UNL     1       0.270  -0.225  -1.114  0.00  0.00    -0.082 C 
ENDBRANCH  27  35
ENDBRANCH  26  30
ENDBRANCH  25  26
ENDBRANCH  24  25
ENDBRANCH  22  24
ENDBRANCH  19  22
ENDBRANCH   1  19
TORSDOF 7
