REMARK  Name = ZINC36065792
REMARK  11 active torsions:
REMARK  status: ('A' for Active; 'I' for Inactive)
REMARK    1  A    between atoms: C_1  and  C_2
REMARK    2  A    between atoms: C_2  and  O_3
REMARK    3  A    between atoms: O_3  and  C_4
REMARK    4  A    between atoms: C_4  and  C_6
REMARK    5  A    between atoms: C_13  and  C_15
REMARK    6  A    between atoms: C_18  and  C_20
REMARK    7  A    between atoms: C_20  and  N_21
REMARK    8  A    between atoms: N_21  and  C_22
REMARK    9  A    between atoms: N_21  and  C_32
REMARK   10  A    between atoms: C_22  and  C_23
REMARK   11  A    between atoms: C_32  and  C_33
REMARK                            x       y       z     vdW  Elec       q    Type
REMARK                         _______ _______ _______ _____ _____    ______ ____
ROOT
ATOM      1  N   UNL     1      -9.637  -6.586   3.161  0.00  0.00    +0.391 N 
ATOM      2  H   UNL     1      -9.088  -6.580   4.008  0.00  0.00    -0.080 HD
ENDROOT
BRANCH   1   3
ATOM      3  C   UNL     1      -8.815  -6.108   2.041  0.00  0.00    +0.020 C 
BRANCH   3   7
ATOM      4  C   UNL     1      -6.935  -3.200   3.106  0.00  0.00    +0.164 A 
ATOM      5  C   UNL     1      -8.026  -2.599   2.559  0.00  0.00    +0.230 A 
ATOM      6  O   UNL     1      -8.829  -3.578   2.112  0.00  0.00    -0.449 OA
ATOM      7  C   UNL     1      -8.245  -4.755   2.379  0.00  0.00    +0.179 A 
ATOM      8  N   UNL     1      -7.107  -4.543   2.969  0.00  0.00    -0.210 NA
BRANCH   4  15
ATOM      9  C   UNL     1      -2.289  -3.037   3.832  0.00  0.00    +0.115 C 
ATOM     10  C   UNL     1      -2.218  -4.565   3.860  0.00  0.00    +0.018 C 
ATOM     11  C   UNL     1      -3.475  -5.148   3.211  0.00  0.00    +0.020 C 
ATOM     12  C   UNL     1      -4.708  -4.707   4.007  0.00  0.00    +0.108 C 
ATOM     13  N   UNL     1      -4.705  -3.241   4.108  0.00  0.00    -0.295 N 
ATOM     14  C   UNL     1      -3.508  -2.571   4.634  0.00  0.00    +0.122 C 
ATOM     15  C   UNL     1      -5.780  -2.524   3.725  0.00  0.00    +0.268 C 
ATOM     16  O   UNL     1      -5.798  -1.319   3.890  0.00  0.00    -0.268 OA
BRANCH   9  17
ATOM     17  C   UNL     1      -1.036  -2.463   4.442  0.00  0.00    +0.312 C 
ATOM     18  O   UNL     1      -0.173  -3.201   4.856  0.00  0.00    -0.250 OA
BRANCH  17  19
ATOM     19  O   UNL     1      -0.878  -1.133   4.525  0.00  0.00    -0.465 OA
BRANCH  19  21
ATOM     20  C   UNL     1       0.334   0.871   5.123  0.00  0.00    +0.048 C 
ATOM     21  C   UNL     1       0.334  -0.659   5.115  0.00  0.00    +0.229 C 
ENDBRANCH  19  21
ENDBRANCH  17  19
ENDBRANCH   9  17
ENDBRANCH   4  15
ENDBRANCH   3   7
ENDBRANCH   1   3
BRANCH   1  22
ATOM     22  C   UNL     1     -10.094  -7.954   2.884  0.00  0.00    -0.042 C 
BRANCH  22  23
ATOM     23  C   UNL     1      -8.911  -8.887   2.874  0.00  0.00    -0.060 A 
ATOM     24  C   UNL     1      -8.235  -9.131   1.693  0.00  0.00    +0.005 A 
ATOM     25  C   UNL     1      -7.148  -9.986   1.678  0.00  0.00    +0.050 A 
ATOM     26  C   UNL     1      -6.735 -10.601   2.849  0.00  0.00    +0.166 A 
ATOM     27  C   UNL     1      -7.416 -10.355   4.038  0.00  0.00    +0.166 A 
ATOM     28  C   UNL     1      -8.500  -9.493   4.046  0.00  0.00    +0.051 A 
ATOM     29  O   UNL     1      -6.822 -11.072   5.037  0.00  0.00    -0.453 OA
ATOM     30  C   UNL     1      -6.027 -12.071   4.373  0.00  0.00    +0.466 C 
ATOM     31  O   UNL     1      -5.714 -11.471   3.102  0.00  0.00    -0.453 OA
ENDBRANCH  22  23
ENDBRANCH   1  22
BRANCH   1  32
ATOM     32  C   UNL     1     -10.800  -5.704   3.326  0.00  0.00    -0.039 C 
BRANCH  32  33
ATOM     33  C   UNL     1     -11.556  -6.097   4.569  0.00  0.00    -0.029 A 
ATOM     34  C   UNL     1     -12.738  -6.806   4.464  0.00  0.00    +0.004 A 
ATOM     35  C   UNL     1     -13.432  -7.166   5.604  0.00  0.00    +0.000 A 
ATOM     36  C   UNL     1     -12.944  -6.818   6.850  0.00  0.00    +0.003 A 
ATOM     37  C   UNL     1     -11.763  -6.111   6.957  0.00  0.00    +0.038 A 
ATOM     38  C   UNL     1     -11.064  -5.753   5.816  0.00  0.00    +0.125 A 
ATOM     39  F   UNL     1      -9.906  -5.065   5.920  0.00  0.00    -0.205 F 
ENDBRANCH  32  33
ENDBRANCH   1  32
TORSDOF 10
