REMARK  Name = ZINC64643292
REMARK  6 active torsions:
REMARK  status: ('A' for Active; 'I' for Inactive)
REMARK    1  A    between atoms: C_2  and  C_3
REMARK    2  A    between atoms: C_3  and  N_4
REMARK    3  A    between atoms: C_5  and  C_7
REMARK    4  A    between atoms: C_7  and  C_8
REMARK    5  A    between atoms: C_8  and  N_9
REMARK    6  A    between atoms: C_15  and  C_18
REMARK                            x       y       z     vdW  Elec       q    Type
REMARK                         _______ _______ _______ _____ _____    ______ ____
ROOT
ATOM      1  N   UNL     1       4.352   5.862  -0.010  0.00  0.00    -0.299 N 
ATOM      2  C   UNL     1       4.580   7.190  -0.003  0.00  0.00    +0.302 C 
ATOM      3  O   UNL     1       3.649   7.967  -0.080  0.00  0.00    -0.253 OA
ATOM      4  N   UNL     1       5.841   7.657   0.089  0.00  0.00    -0.282 N 
ATOM      5  C   UNL     1       6.118   9.098   0.213  0.00  0.00    +0.114 C 
ATOM      6  C   UNL     1       6.813   9.332   1.556  0.00  0.00    +0.054 C 
ATOM      7  C   UNL     1       7.896   8.317   1.768  0.00  0.00    -0.039 C 
ATOM      8  C   UNL     1       7.979   7.176   1.125  0.00  0.00    -0.004 C 
ATOM      9  C   UNL     1       6.996   6.747   0.076  0.00  0.00    +0.137 C 
ATOM     10  H   UNL     1       5.098   5.242  -0.022  0.00  0.00    +0.150 HD
ENDROOT
BRANCH   7  11
ATOM     11  C   UNL     1       8.940   8.621   2.767  0.00  0.00    +0.003 A 
ATOM     12  C   UNL     1       9.964   9.502   2.627  0.00  0.00    +0.091 A 
ATOM     13  N   UNL     1      10.722   9.511   3.763  0.00  0.00    -0.360 N 
ATOM     14  H   UNL     1      11.509  10.061   3.900  0.00  0.00    +0.165 HD
ATOM     15  C   UNL     1      10.207   8.626   4.686  0.00  0.00    +0.050 A 
ATOM     16  C   UNL     1       9.069   8.034   4.112  0.00  0.00    +0.007 A 
ATOM     17  C   UNL     1       8.335   7.091   4.829  0.00  0.00    +0.013 A 
ATOM     18  C   UNL     1       8.727   6.746   6.103  0.00  0.00    +0.039 A 
ATOM     19  C   UNL     1       9.850   7.333   6.674  0.00  0.00    +0.125 A 
ATOM     20  C   UNL     1      10.591   8.261   5.972  0.00  0.00    +0.064 A 
ATOM     21  F   UNL     1      10.224   6.985   7.925  0.00  0.00    -0.205 F 
ENDBRANCH   7  11
BRANCH   1  22
ATOM     22  C   UNL     1       2.978   5.354   0.003  0.00  0.00    +0.115 C 
BRANCH  22  23
ATOM     23  C   UNL     1       2.999   3.825  -0.008  0.00  0.00    +0.114 C 
BRANCH  23  25
ATOM     24  N   UNL     1       1.357   1.974  -0.002  0.00  0.00    -0.304 N 
ATOM     25  C   UNL     1       1.585   3.303   0.005  0.00  0.00    +0.215 C 
ATOM     26  O   UNL     1       0.653   4.078   0.021  0.00  0.00    -0.276 OA
ATOM     27  H   UNL     1       2.103   1.354  -0.015  0.00  0.00    +0.150 HD
BRANCH  24  28
ATOM     28  C   UNL     1      -0.017   1.467   0.011  0.00  0.00    +0.193 C 
BRANCH  28  30
ATOM     29  C   UNL     1       0.019  -1.178  -0.008  0.00  0.00    +0.005 C 
ATOM     30  C   UNL     1       0.003  -0.004   0.001  0.00  0.00    -0.087 C 
ENDBRANCH  28  30
ENDBRANCH  24  28
ENDBRANCH  23  25
ENDBRANCH  22  23
ENDBRANCH   1  22
TORSDOF 6
