REMARK  Name = ZINC20406509
REMARK  6 active torsions:
REMARK  status: ('A' for Active; 'I' for Inactive)
REMARK    1  A    between atoms: C_3  and  N_11
REMARK    2  A    between atoms: C_6  and  C_7
REMARK    3  A    between atoms: C_15  and  N_18
REMARK    4  A    between atoms: N_18  and  C_19
REMARK    5  A    between atoms: C_19  and  C_20
REMARK    6  A    between atoms: C_23  and  C_25
REMARK                            x       y       z     vdW  Elec       q    Type
REMARK                         _______ _______ _______ _____ _____    ______ ____
ROOT
ATOM      1  N   UNL     1      -0.324   0.591   4.807  0.00  0.00    -0.317 N 
ATOM      2  C   UNL     1       0.740   1.527   5.191  0.00  0.00    +0.106 C 
ATOM      3  C   UNL     1       1.788   1.594   4.078  0.00  0.00    +0.017 C 
ATOM      4  C   UNL     1       1.120   2.055   2.780  0.00  0.00    -0.013 C 
ATOM      5  C   UNL     1      -0.016   1.091   2.429  0.00  0.00    -0.054 C 
ATOM      6  C   UNL     1      -1.012   1.039   3.590  0.00  0.00    +0.091 C 
ENDROOT
BRANCH   1   9
ATOM      7  C   UNL     1      -1.673  -0.198   8.120  0.00  0.00    +0.017 A 
ATOM      8  C   UNL     1      -0.766  -0.023   7.090  0.00  0.00    +0.044 A 
ATOM      9  C   UNL     1      -1.225   0.407   5.850  0.00  0.00    +0.121 A 
ATOM     10  N   UNL     1      -2.514   0.637   5.652  0.00  0.00    -0.240 NA
ATOM     11  C   UNL     1      -3.402   0.474   6.614  0.00  0.00    +0.125 A 
ATOM     12  C   UNL     1      -3.015   0.054   7.871  0.00  0.00    +0.073 A 
BRANCH  12  13
ATOM     13  C   UNL     1      -4.039  -0.129   8.961  0.00  0.00    +0.419 C 
ATOM     14  F   UNL     1      -5.309   0.186   8.465  0.00  0.00    -0.166 F 
ATOM     15  F   UNL     1      -4.025  -1.459   9.396  0.00  0.00    -0.166 F 
ATOM     16  F   UNL     1      -3.735   0.716  10.034  0.00  0.00    -0.166 F 
ENDBRANCH  12  13
ENDBRANCH   1   9
BRANCH   5  17
ATOM     17  N   UNL     1      -0.700   1.560   1.217  0.00  0.00    +0.385 N 
ATOM     18  H   UNL     1      -1.732   1.179   1.208  0.00  0.00    -0.085 HD
ATOM     19  H   UNL     1      -0.715   2.659   1.206  0.00  0.00    -0.085 HD
BRANCH  17  20
ATOM     20  C   UNL     1      -0.013   1.086   0.008  0.00  0.00    -0.039 C 
BRANCH  20  21
ATOM     21  C   UNL     1      -0.742   1.585  -1.213  0.00  0.00    -0.027 A 
ATOM     22  C   UNL     1      -0.560   2.741  -1.902  0.00  0.00    +0.010 A 
ATOM     23  C   UNL     1      -1.345   2.996  -3.004  0.00  0.00    +0.018 A 
ATOM     24  C   UNL     1      -2.295   2.074  -3.363  0.00  0.00    +0.037 A 
ATOM     25  S   UNL     1      -2.071   0.812  -2.120  0.00  0.00    -0.094 S 
BRANCH  24  26
ATOM     26  C   UNL     1      -3.252   2.115  -4.483  0.00  0.00    +0.072 A 
ATOM     27  C   UNL     1      -4.189   1.152  -4.795  0.00  0.00    +0.049 A 
ATOM     28  C   UNL     1      -4.882   1.588  -5.925  0.00  0.00    +0.135 A 
ATOM     29  N   UNL     1      -4.402   2.749  -6.290  0.00  0.00    -0.182 NA
ATOM     30  N   UNL     1      -3.381   3.114  -5.404  0.00  0.00    -0.276 N 
ATOM     31  H   UNL     1      -2.733   4.001  -5.347  0.00  0.00    +0.189 HD
ENDBRANCH  24  26
ENDBRANCH  20  21
ENDBRANCH  17  20
ENDBRANCH   5  17
TORSDOF 6
