REMARK  Name = ZINC09448156
REMARK  7 active torsions:
REMARK  status: ('A' for Active; 'I' for Inactive)
REMARK    1  A    between atoms: C_1  and  C_2
REMARK    2  A    between atoms: C_2  and  C_4
REMARK    3  A    between atoms: C_2  and  N_13
REMARK    4  A    between atoms: C_14  and  C_16
REMARK    5  A    between atoms: C_16  and  N_17
REMARK    6  A    between atoms: C_20  and  C_24
REMARK    7  A    between atoms: C_20  and  C_25
REMARK                            x       y       z     vdW  Elec       q    Type
REMARK                         _______ _______ _______ _____ _____    ______ ____
ROOT
ATOM      1  N   UNL     1      -6.337   1.510  -3.302  0.00  0.00    -0.215 N 
ATOM      2  C   UNL     1      -7.351   1.687  -2.433  0.00  0.00    +0.251 C 
ATOM      3  O   UNL     1      -7.332   2.331  -1.406  0.00  0.00    -0.272 OA
ATOM      4  C   UNL     1      -8.523   0.915  -3.007  0.00  0.00    +0.136 C 
ATOM      5  N   UNL     1      -7.981   0.338  -4.250  0.00  0.00    -0.281 N 
ATOM      6  C   UNL     1      -6.702   0.745  -4.337  0.00  0.00    +0.310 C 
ATOM      7  O   UNL     1      -5.959   0.448  -5.253  0.00  0.00    -0.252 OA
ATOM      8  C   UNL     1      -8.961  -0.192  -2.046  0.00  0.00    +0.047 C 
ATOM      9  H   UNL     1      -8.455  -0.224  -4.883  0.00  0.00    +0.152 HD
ENDROOT
BRANCH   4  10
ATOM     10  C   UNL     1      -9.673   1.841  -3.307  0.00  0.00    -0.008 A 
ATOM     11  C   UNL     1     -10.108   2.001  -4.587  0.00  0.00    +0.007 A 
ATOM     12  C   UNL     1     -11.170   2.853  -4.883  0.00  0.00    +0.001 A 
ATOM     13  C   UNL     1     -11.804   3.550  -3.900  0.00  0.00    +0.008 A 
ATOM     14  C   UNL     1     -11.383   3.410  -2.567  0.00  0.00    -0.018 A 
ATOM     15  C   UNL     1     -10.306   2.540  -2.265  0.00  0.00    -0.012 A 
ATOM     16  C   UNL     1      -9.882   2.405  -0.932  0.00  0.00    +0.009 A 
ATOM     17  C   UNL     1     -10.516   3.102   0.050  0.00  0.00    +0.001 A 
ATOM     18  C   UNL     1     -11.578   3.954  -0.246  0.00  0.00    +0.001 A 
ATOM     19  C   UNL     1     -12.013   4.114  -1.526  0.00  0.00    +0.008 A 
ENDBRANCH   4  10
BRANCH   1  20
ATOM     20  C   UNL     1      -5.001   2.088  -3.136  0.00  0.00    +0.213 C 
BRANCH  20  22
ATOM     21  N   UNL     1      -2.852   1.454  -2.089  0.00  0.00    -0.304 N 
ATOM     22  C   UNL     1      -4.131   1.131  -2.363  0.00  0.00    +0.232 C 
ATOM     23  O   UNL     1      -4.583   0.070  -1.987  0.00  0.00    -0.274 OA
ATOM     24  H   UNL     1      -2.491   2.303  -2.390  0.00  0.00    +0.149 HD
BRANCH  21  26
ATOM     25  C   UNL     1      -2.226   0.733   0.162  0.00  0.00    +0.036 C 
ATOM     26  C   UNL     1      -2.006   0.523  -1.337  0.00  0.00    +0.136 C 
BRANCH  26  27
ATOM     27  C   UNL     1      -0.559   0.776  -1.673  0.00  0.00    +0.126 A 
ATOM     28  C   UNL     1       0.366  -0.177  -1.849  0.00  0.00    +0.055 A 
ATOM     29  C   UNL     1       1.619   0.520  -2.163  0.00  0.00    +0.020 A 
ATOM     30  C   UNL     1       2.919   0.107  -2.449  0.00  0.00    +0.011 A 
ATOM     31  C   UNL     1       3.885   1.040  -2.704  0.00  0.00    +0.001 A 
ATOM     32  C   UNL     1       3.580   2.393  -2.680  0.00  0.00    +0.004 A 
ATOM     33  C   UNL     1       2.299   2.820  -2.400  0.00  0.00    +0.047 A 
ATOM     34  C   UNL     1       1.303   1.889  -2.136  0.00  0.00    +0.135 A 
ATOM     35  O   UNL     1      -0.008   1.992  -1.837  0.00  0.00    -0.458 OA
ENDBRANCH  26  27
ENDBRANCH  21  26
ENDBRANCH  20  22
ENDBRANCH   1  20
TORSDOF 5
