REMARK  Name = ZINC12822936
REMARK  5 active torsions:
REMARK  status: ('A' for Active; 'I' for Inactive)
REMARK    1  A    between atoms: C_1  and  C_2
REMARK    2  A    between atoms: C_7  and  C_29
REMARK    3  A    between atoms: N_12  and  C_16
REMARK    4  A    between atoms: C_16  and  C_17
REMARK    5  A    between atoms: C_19  and  C_22
REMARK                            x       y       z     vdW  Elec       q    Type
REMARK                         _______ _______ _______ _____ _____    ______ ____
ROOT
ATOM      1  C   UNL     1      -0.019   1.526   0.010  0.00  0.00    +0.010 C 
ATOM      2  C   UNL     1       0.002  -0.004   0.002  0.00  0.00    +0.019 C 
ATOM      3  C   UNL     1      -1.434  -0.534   0.012  0.00  0.00    +0.006 C 
ATOM      4  C   UNL     1      -1.412  -2.064   0.024  0.00  0.00    +0.001 C 
ATOM      5  C   UNL     1      -0.687  -2.556   1.279  0.00  0.00    +0.006 C 
ATOM      6  C   UNL     1       0.752  -2.033   1.273  0.00  0.00    +0.019 C 
ATOM      7  C   UNL     1       0.740  -0.509   1.237  0.00  0.00    +0.118 C 
ATOM      8  C   UNL     1       2.151   0.030   1.266  0.00  0.00    +0.247 C 
ATOM      9  O   UNL     1       3.026  -0.158   0.448  0.00  0.00    -0.273 OA
ATOM     10  N   UNL     1       2.233   0.767   2.394  0.00  0.00    -0.215 N 
ATOM     11  C   UNL     1       1.077   0.763   3.069  0.00  0.00    +0.310 C 
ATOM     12  O   UNL     1       0.904   1.356   4.116  0.00  0.00    -0.252 OA
ATOM     13  N   UNL     1       0.127   0.030   2.458  0.00  0.00    -0.284 N 
ATOM     14  C   UNL     1       1.471  -2.507   2.537  0.00  0.00    +0.010 C 
ATOM     15  H   UNL     1      -0.782  -0.114   2.764  0.00  0.00    +0.151 HD
ENDROOT
BRANCH  10  16
ATOM     16  C   UNL     1       3.436   1.482   2.825  0.00  0.00    +0.216 C 
BRANCH  16  17
ATOM     17  C   UNL     1       3.425   2.876   2.253  0.00  0.00    +0.246 A 
ATOM     18  N   UNL     1       2.911   3.928   2.823  0.00  0.00    -0.190 NA
ATOM     19  C   UNL     1       3.077   5.006   2.035  0.00  0.00    +0.202 A 
ATOM     20  N   UNL     1       3.706   4.636   0.947  0.00  0.00    -0.056 NA
ATOM     21  O   UNL     1       3.948   3.243   1.076  0.00  0.00    -0.336 OA
BRANCH  19  22
ATOM     22  C   UNL     1       2.623   6.384   2.347  0.00  0.00    +0.023 A 
ATOM     23  C   UNL     1       1.966   6.649   3.547  0.00  0.00    +0.014 A 
ATOM     24  C   UNL     1       1.546   7.931   3.833  0.00  0.00    +0.039 A 
ATOM     25  C   UNL     1       1.776   8.955   2.928  0.00  0.00    +0.123 A 
ATOM     26  C   UNL     1       2.429   8.696   1.733  0.00  0.00    +0.039 A 
ATOM     27  C   UNL     1       2.857   7.418   1.442  0.00  0.00    +0.014 A 
ATOM     28  F   UNL     1       1.364  10.210   3.212  0.00  0.00    -0.205 F 
ENDBRANCH  19  22
ENDBRANCH  16  17
ENDBRANCH  10  16
TORSDOF 3
