REMARK  Name = ZINC00532093
REMARK  5 active torsions:
REMARK  status: ('A' for Active; 'I' for Inactive)
REMARK    1  A    between atoms: C_1  and  C_2
REMARK    2  A    between atoms: C_2  and  C_3
REMARK    3  A    between atoms: C_2  and  O_4
REMARK    4  A    between atoms: O_4  and  C_5
REMARK    5  A    between atoms: C_8  and  C_11
REMARK                            x       y       z     vdW  Elec       q    Type
REMARK                         _______ _______ _______ _____ _____    ______ ____
ROOT
ATOM      1  C   UNL     1       6.287  -0.831  -0.944  0.00  0.00    +0.190 C 
ATOM      2  N   UNL     1       6.747  -1.810  -1.943  0.00  0.00    -0.316 N 
ATOM      3  C   UNL     1       6.689  -3.134  -1.579  0.00  0.00    +0.080 A 
ATOM      4  C   UNL     1       6.710  -3.546  -0.242  0.00  0.00    +0.068 A 
ATOM      5  C   UNL     1       6.629  -4.989  -0.020  0.00  0.00    -0.023 A 
ATOM      6  C   UNL     1       6.552  -5.721  -1.147  0.00  0.00    -0.004 A 
ATOM      7  S   UNL     1       6.584  -4.530  -2.466  0.00  0.00    -0.078 S 
ATOM      8  C   UNL     1       6.476  -7.195  -0.855  0.00  0.00    +0.043 C 
ATOM      9  C   UNL     1       6.947  -7.328   0.610  0.00  0.00    +0.010 C 
ATOM     10  C   UNL     1       6.603  -5.936   1.178  0.00  0.00    +0.037 C 
ATOM     11  C   UNL     1       6.819  -2.502   0.802  0.00  0.00    +0.248 C 
ATOM     12  O   UNL     1       7.019  -2.789   1.968  0.00  0.00    -0.270 OA
ATOM     13  N   UNL     1       6.685  -1.220   0.405  0.00  0.00    -0.289 N 
ATOM     14  H   UNL     1       7.075  -1.535  -2.814  0.00  0.00    +0.149 HD
ATOM     15  H   UNL     1       6.863  -0.519   1.052  0.00  0.00    +0.151 HD
ENDROOT
BRANCH   1  19
ATOM     16  C   UNL     1       2.026  -0.553  -1.118  0.00  0.00    +0.121 A 
ATOM     17  C   UNL     1       2.690  -0.309   0.075  0.00  0.00    +0.046 A 
ATOM     18  C   UNL     1       4.067  -0.400   0.129  0.00  0.00    +0.010 A 
ATOM     19  C   UNL     1       4.784  -0.733  -1.005  0.00  0.00    -0.009 A 
ATOM     20  C   UNL     1       4.125  -0.976  -2.196  0.00  0.00    +0.010 A 
ATOM     21  C   UNL     1       2.747  -0.893  -2.253  0.00  0.00    +0.046 A 
BRANCH  16  22
ATOM     22  O   UNL     1       0.671  -0.465  -1.174  0.00  0.00    -0.489 OA
BRANCH  22  24
ATOM     23  C   UNL     1      -0.044   1.273   0.345  0.00  0.00    +0.051 C 
ATOM     24  C   UNL     1      -0.015  -0.229   0.058  0.00  0.00    +0.167 C 
ATOM     25  C   UNL     1      -1.447  -0.757  -0.047  0.00  0.00    +0.051 C 
ENDBRANCH  22  24
ENDBRANCH  16  22
ENDBRANCH   1  19
TORSDOF 3
