REMARK  Name = ZINC39677081
REMARK  9 active torsions:
REMARK  status: ('A' for Active; 'I' for Inactive)
REMARK    1  A    between atoms: C_1  and  C_2
REMARK    2  A    between atoms: C_5  and  C_38
REMARK    3  A    between atoms: C_6  and  C_8
REMARK    4  A    between atoms: C_8  and  C_9
REMARK    5  A    between atoms: C_9  and  N_10
REMARK    6  A    between atoms: C_11  and  C_13
REMARK    7  A    between atoms: C_24  and  C_26
REMARK    8  A    between atoms: C_27  and  C_37
REMARK    9  A    between atoms: C_30  and  C_31
REMARK                            x       y       z     vdW  Elec       q    Type
REMARK                         _______ _______ _______ _____ _____    ______ ____
ROOT
ATOM      1  C   UNL     1       2.701  -5.104   5.948  0.00  0.00    +0.100 C 
ATOM      2  C   UNL     1       1.844  -6.385   5.833  0.00  0.00    +0.121 C 
ATOM      3  N   UNL     1       2.811  -7.453   5.485  0.00  0.00    -0.296 N 
ATOM      4  C   UNL     1       4.011  -7.143   6.299  0.00  0.00    +0.115 C 
ATOM      5  C   UNL     1       4.121  -5.606   6.257  0.00  0.00    -0.004 C 
ATOM      6  C   UNL     1       4.587  -5.073   7.609  0.00  0.00    -0.010 C 
ATOM      7  C   UNL     1       6.024  -5.536   7.867  0.00  0.00    -0.082 C 
ATOM      8  N   UNL     1       6.899  -5.045   6.797  0.00  0.00    +0.379 N 
ATOM      9  C   UNL     1       6.501  -5.636   5.513  0.00  0.00    -0.082 C 
ATOM     10  C   UNL     1       5.085  -5.176   5.155  0.00  0.00    -0.010 C 
ATOM     11  C   UNL     1       2.639  -8.474   4.623  0.00  0.00    +0.252 C 
ATOM     12  O   UNL     1       3.536  -9.276   4.443  0.00  0.00    -0.270 OA
ATOM     13  H   UNL     1       6.827  -4.040   6.740  0.00  0.00    -0.086 HD
ATOM     14  H   UNL     1       7.854  -5.299   7.001  0.00  0.00    -0.086 HD
ENDROOT
BRANCH  11  15
ATOM     15  C   UNL     1       1.365  -8.620   3.898  0.00  0.00    +0.106 A 
ATOM     16  C   UNL     1       1.055  -8.085   2.682  0.00  0.00    +0.147 A 
ATOM     17  O   UNL     1      -0.193  -8.447   2.372  0.00  0.00    -0.359 OA
ATOM     18  N   UNL     1      -0.725  -9.243   3.411  0.00  0.00    -0.077 NA
ATOM     19  C   UNL     1       0.184  -9.375   4.343  0.00  0.00    +0.126 A 
ATOM     20  C   UNL     1       1.964  -7.233   1.835  0.00  0.00    +0.090 C 
BRANCH  19  21
ATOM     21  C   UNL     1       0.048 -10.136   5.609  0.00  0.00    +0.004 A 
ATOM     22  C   UNL     1       1.148 -10.801   6.147  0.00  0.00    +0.010 A 
ATOM     23  C   UNL     1       1.015 -11.508   7.325  0.00  0.00    +0.001 A 
ATOM     24  C   UNL     1      -0.207 -11.557   7.971  0.00  0.00    +0.000 A 
ATOM     25  C   UNL     1      -1.302 -10.899   7.442  0.00  0.00    +0.001 A 
ATOM     26  C   UNL     1      -1.180 -10.184   6.267  0.00  0.00    +0.010 A 
ENDBRANCH  19  21
ENDBRANCH  11  15
BRANCH   1  28
ATOM     27  N   UNL     1       2.937  -3.020   4.637  0.00  0.00    -0.315 N 
ATOM     28  C   UNL     1       2.684  -4.344   4.647  0.00  0.00    +0.218 C 
ATOM     29  O   UNL     1       2.443  -4.923   3.609  0.00  0.00    -0.275 OA
ATOM     30  H   UNL     1       3.130  -2.557   5.467  0.00  0.00    +0.149 HD
BRANCH  27  31
ATOM     31  C   UNL     1       2.921  -2.281   3.372  0.00  0.00    +0.109 C 
BRANCH  31  32
ATOM     32  C   UNL     1       3.237  -0.808   3.639  0.00  0.00    +0.054 C 
BRANCH  32  38
ATOM     33  C   UNL     1       5.669   1.100  -0.297  0.00  0.00    +0.044 C 
ATOM     34  C   UNL     1       4.384   0.866   0.455  0.00  0.00    -0.050 A 
ATOM     35  C   UNL     1       3.191   1.349  -0.048  0.00  0.00    +0.003 A 
ATOM     36  C   UNL     1       2.012   1.135   0.642  0.00  0.00    +0.004 A 
ATOM     37  C   UNL     1       2.027   0.437   1.835  0.00  0.00    -0.047 A 
ATOM     38  C   UNL     1       3.220  -0.047   2.338  0.00  0.00    -0.043 A 
ATOM     39  C   UNL     1       4.399   0.164   1.645  0.00  0.00    +0.007 A 
ATOM     40  C   UNL     1       0.743   0.204   2.588  0.00  0.00    +0.044 C 
ENDBRANCH  32  38
ENDBRANCH  31  32
ENDBRANCH  27  31
ENDBRANCH   1  28
TORSDOF 6
