REMARK  Name = ZINC05055728
REMARK  8 active torsions:
REMARK  status: ('A' for Active; 'I' for Inactive)
REMARK    1  A    between atoms: C_1  and  C_2
REMARK    2  A    between atoms: C_2  and  C_3
REMARK    3  A    between atoms: C_2  and  C_4
REMARK    4  A    between atoms: C_2  and  C_5
REMARK    5  A    between atoms: C_8  and  C_11
REMARK    6  A    between atoms: N_13  and  C_14
REMARK    7  A    between atoms: C_15  and  C_22
REMARK    8  A    between atoms: N_24  and  C_25
REMARK                            x       y       z     vdW  Elec       q    Type
REMARK                         _______ _______ _______ _____ _____    ______ ____
ROOT
ATOM      1  C   UNL     1       1.628   4.444   0.010  0.00  0.00    +0.249 C 
ATOM      2  O   UNL     1       0.413   4.407   0.022  0.00  0.00    -0.270 OA
ATOM      3  N   UNL     1       2.337   3.298  -0.003  0.00  0.00    -0.275 N 
ATOM      4  H   UNL     1       3.307   3.328  -0.012  0.00  0.00    +0.156 HD
ENDROOT
BRANCH   3   5
ATOM      5  C   UNL     1       1.681   2.078  -0.003  0.00  0.00    +0.085 A 
ATOM      6  C   UNL     1       2.230   0.806  -0.015  0.00  0.00    +0.069 A 
ATOM      7  C   UNL     1       1.307  -0.329  -0.013  0.00  0.00    -0.023 A 
ATOM      8  C   UNL     1       0.002  -0.004   0.002  0.00  0.00    -0.004 A 
ATOM      9  S   UNL     1      -0.022   1.772   0.012  0.00  0.00    -0.077 S 
ATOM     10  C   UNL     1      -0.882  -1.222   0.007  0.00  0.00    +0.043 C 
ATOM     11  C   UNL     1       0.051  -2.378   0.429  0.00  0.00    +0.010 C 
ATOM     12  C   UNL     1       1.427  -1.853  -0.025  0.00  0.00    +0.037 C 
BRANCH   6  13
ATOM     13  C   UNL     1       3.682   0.605  -0.030  0.00  0.00    +0.246 C 
ATOM     14  O   UNL     1       4.275   0.528  -1.090  0.00  0.00    -0.270 OA
ATOM     15  N   UNL     1       4.360   0.506   1.131  0.00  0.00    -0.314 N 
ATOM     16  C   UNL     1       5.811   0.305   1.116  0.00  0.00    +0.128 C 
ATOM     17  H   UNL     1       3.888   0.568   1.975  0.00  0.00    +0.149 HD
ENDBRANCH   6  13
ENDBRANCH   3   5
BRANCH   1  21
ATOM     18  C   UNL     1       3.638   8.185   0.010  0.00  0.00    -0.042 A 
ATOM     19  C   UNL     1       2.255   8.147   0.023  0.00  0.00    +0.005 A 
ATOM     20  C   UNL     1       1.596   6.935   0.024  0.00  0.00    +0.013 A 
ATOM     21  C   UNL     1       2.327   5.746   0.010  0.00  0.00    +0.037 A 
ATOM     22  C   UNL     1       3.723   5.792   0.002  0.00  0.00    +0.013 A 
ATOM     23  C   UNL     1       4.369   7.011  -0.004  0.00  0.00    +0.005 A 
BRANCH  18  25
ATOM     24  C   UNL     1       3.969  10.297   1.268  0.00  0.00    +0.015 C 
ATOM     25  C   UNL     1       4.351   9.513   0.011  0.00  0.00    -0.013 C 
ATOM     26  C   UNL     1       5.863   9.280  -0.005  0.00  0.00    +0.015 C 
ATOM     27  C   UNL     1       3.946  10.310  -1.230  0.00  0.00    +0.015 C 
ENDBRANCH  18  25
ENDBRANCH   1  21
TORSDOF 4
