REMARK  Name = ZINC08892872
REMARK  3 active torsions:
REMARK  status: ('A' for Active; 'I' for Inactive)
REMARK    1  A    between atoms: C_5  and  C_7
REMARK    2  A    between atoms: C_10  and  O_30
REMARK    3  A    between atoms: C_12  and  C_23
REMARK                            x       y       z     vdW  Elec       q    Type
REMARK                         _______ _______ _______ _____ _____    ______ ____
ROOT
ATOM      1  C   UNL     1       1.260  -2.085  -0.225  0.00  0.00    +0.047 C 
ATOM      2  C   UNL     1       0.596  -2.501   1.088  0.00  0.00    +0.041 C 
ATOM      3  C   UNL     1       0.624  -4.025   1.216  0.00  0.00    +0.116 C 
ATOM      4  C   UNL     1      -0.132  -4.647   0.040  0.00  0.00    +0.041 C 
ATOM      5  C   UNL     1       0.533  -4.231  -1.273  0.00  0.00    +0.047 C 
ATOM      6  C   UNL     1       0.498  -2.705  -1.401  0.00  0.00    +0.137 C 
ATOM      7  C   UNL     1       1.160  -2.300  -2.689  0.00  0.00    +0.237 C 
ATOM      8  O   UNL     1       2.319  -2.602  -2.875  0.00  0.00    -0.274 OA
ATOM      9  N   UNL     1       0.506  -1.616  -3.638  0.00  0.00    -0.239 N 
ATOM     10  C   UNL     1      -0.777  -1.252  -3.495  0.00  0.00    +0.312 C 
ATOM     11  O   UNL     1      -1.321  -0.633  -4.387  0.00  0.00    -0.252 OA
ATOM     12  N   UNL     1      -1.474  -1.554  -2.389  0.00  0.00    -0.239 N 
ATOM     13  C   UNL     1      -0.929  -2.235  -1.371  0.00  0.00    +0.237 C 
ATOM     14  O   UNL     1      -1.609  -2.481  -0.398  0.00  0.00    -0.274 OA
ATOM     15  H   UNL     1       0.975  -1.377  -4.453  0.00  0.00    +0.159 HD
ATOM     16  H   UNL     1      -2.400  -1.272  -2.325  0.00  0.00    +0.159 HD
ENDROOT
BRANCH   1  21
ATOM     17  C   UNL     1       0.010   1.469  -0.468  0.00  0.00    +0.000 A 
ATOM     18  C   UNL     1       1.196   2.173  -0.571  0.00  0.00    +0.001 A 
ATOM     19  C   UNL     1       2.402   1.499  -0.562  0.00  0.00    +0.020 A 
ATOM     20  C   UNL     1       2.424   0.120  -0.450  0.00  0.00    +0.044 A 
ATOM     21  C   UNL     1       1.238  -0.583  -0.347  0.00  0.00    -0.024 A 
ATOM     22  C   UNL     1       0.031   0.091  -0.356  0.00  0.00    +0.005 A 
ATOM     23 CL   UNL     1       3.939  -0.726  -0.440  0.00  0.00    -0.083 Cl
ENDBRANCH   1  21
BRANCH   5  24
ATOM     24  C   UNL     1       1.964  -4.704  -1.283  0.00  0.00    -0.024 A 
ATOM     25  C   UNL     1       2.842  -4.271  -0.306  0.00  0.00    +0.005 A 
ATOM     26  C   UNL     1       4.154  -4.704  -0.316  0.00  0.00    +0.000 A 
ATOM     27  C   UNL     1       4.590  -5.571  -1.300  0.00  0.00    +0.001 A 
ATOM     28  C   UNL     1       3.713  -6.005  -2.277  0.00  0.00    +0.020 A 
ATOM     29  C   UNL     1       2.398  -5.575  -2.265  0.00  0.00    +0.044 A 
ATOM     30 CL   UNL     1       1.294  -6.125  -3.488  0.00  0.00    -0.083 Cl
ENDBRANCH   5  24
BRANCH   3  31
ATOM     31  O   UNL     1       0.001  -4.413   2.442  0.00  0.00    -0.392 OA
ATOM     32  H   UNL     1      -0.017  -5.368   2.589  0.00  0.00    +0.210 HD
ENDBRANCH   3  31
TORSDOF 3
