REMARK  Name = ZINC12748480
REMARK  5 active torsions:
REMARK  status: ('A' for Active; 'I' for Inactive)
REMARK    1  A    between atoms: C_4  and  C_7
REMARK    2  A    between atoms: C_16  and  C_17
REMARK    3  A    between atoms: C_16  and  N_47
REMARK    4  A    between atoms: N_19  and  C_20
REMARK    5  A    between atoms: C_23  and  N_26
REMARK                            x       y       z     vdW  Elec       q    Type
REMARK                         _______ _______ _______ _____ _____    ______ ____
ROOT
ATOM      1  C   UNL     1       1.234   2.051  -0.348  0.00  0.00    -0.005 C 
ATOM      2  C   UNL     1       1.103   3.555  -0.565  0.00  0.00    -0.047 A 
ATOM      3  C   UNL     1       2.107   4.474  -0.268  0.00  0.00    +0.010 A 
ATOM      4  C   UNL     1       1.905   5.793  -0.492  0.00  0.00    +0.045 A 
ATOM      5  S   UNL     1       0.244   5.806  -1.151  0.00  0.00    -0.101 S 
ATOM      6  C   UNL     1      -0.053   4.062  -1.079  0.00  0.00    -0.010 A 
ATOM      7  C   UNL     1      -1.267   3.288  -1.478  0.00  0.00    +0.024 C 
ATOM      8  C   UNL     1      -0.874   1.803  -1.545  0.00  0.00    -0.072 C 
ATOM      9  N   UNL     1      -0.128   1.469  -0.308  0.00  0.00    +0.393 N 
ATOM     10  H   UNL     1      -0.631   1.860   0.497  0.00  0.00    -0.080 HD
ENDROOT
BRANCH   1  14
ATOM     11  C   UNL     1       3.158   1.306   3.393  0.00  0.00    +0.000 A 
ATOM     12  C   UNL     1       3.877   1.218   2.216  0.00  0.00    +0.000 A 
ATOM     13  C   UNL     1       3.255   1.459   1.005  0.00  0.00    +0.002 A 
ATOM     14  C   UNL     1       1.913   1.788   0.972  0.00  0.00    -0.057 A 
ATOM     15  C   UNL     1       1.194   1.881   2.149  0.00  0.00    +0.002 A 
ATOM     16  C   UNL     1       1.816   1.635   3.359  0.00  0.00    +0.000 A 
ENDBRANCH   1  14
BRANCH   9  17
ATOM     17  C   UNL     1      -0.043   0.004  -0.153  0.00  0.00    +0.020 C 
BRANCH  17  18
ATOM     18  C   UNL     1      -1.428  -0.535   0.098  0.00  0.00    +0.201 C 
ATOM     19  O   UNL     1      -2.377   0.220   0.121  0.00  0.00    -0.278 OA
ATOM     20  N   UNL     1      -1.612  -1.855   0.297  0.00  0.00    -0.287 N 
ATOM     21  H   UNL     1      -0.866  -2.468   0.203  0.00  0.00    +0.155 HD
BRANCH  20  22
ATOM     22  C   UNL     1      -2.879  -2.341   0.639  0.00  0.00    +0.033 A 
ATOM     23  C   UNL     1      -3.731  -1.574   1.421  0.00  0.00    +0.025 A 
ATOM     24  C   UNL     1      -4.983  -2.054   1.752  0.00  0.00    +0.034 A 
ATOM     25  C   UNL     1      -5.383  -3.303   1.315  0.00  0.00    +0.126 A 
ATOM     26  C   UNL     1      -4.535  -4.073   0.540  0.00  0.00    +0.034 A 
ATOM     27  C   UNL     1      -3.284  -3.596   0.201  0.00  0.00    +0.025 A 
BRANCH  25  28
ATOM     28  N   UNL     1      -6.723  -3.818   1.676  0.00  0.00    +0.056 N 
ATOM     29  O   UNL     1      -7.077  -4.918   1.292  0.00  0.00    -0.126 OA
ATOM     30  O   UNL     1      -7.472  -3.141   2.358  0.00  0.00    -0.126 OA
ENDBRANCH  25  28
ENDBRANCH  20  22
ENDBRANCH  17  18
ENDBRANCH   9  17
TORSDOF 5
