REMARK  Name = ZINC44012412
REMARK  6 active torsions:
REMARK  status: ('A' for Active; 'I' for Inactive)
REMARK    1  A    between atoms: C_1  and  O_2
REMARK    2  A    between atoms: O_2  and  C_3
REMARK    3  A    between atoms: N_5  and  C_6
REMARK    4  A    between atoms: C_9  and  N_12
REMARK    5  A    between atoms: C_13  and  C_14
REMARK    6  A    between atoms: C_19  and  O_20
REMARK                            x       y       z     vdW  Elec       q    Type
REMARK                         _______ _______ _______ _____ _____    ______ ____
ROOT
ATOM      1  C   UNL     1       1.183  -2.615  -2.223  0.00  0.00    +0.037 A 
ATOM      2  C   UNL     1       1.771  -1.891  -3.254  0.00  0.00    +0.025 A 
ATOM      3  C   UNL     1       2.293  -2.547  -4.348  0.00  0.00    +0.029 A 
ATOM      4  C   UNL     1       2.232  -3.941  -4.420  0.00  0.00    +0.064 A 
ATOM      5  C   UNL     1       1.641  -4.665  -3.382  0.00  0.00    +0.029 A 
ATOM      6  C   UNL     1       1.124  -4.003  -2.289  0.00  0.00    +0.025 A 
ENDROOT
BRANCH   1   9
ATOM      7  C   UNL     1       0.057  -0.748  -1.272  0.00  0.00    +0.404 C 
ATOM      8  O   UNL     1       0.054  -0.210  -2.362  0.00  0.00    -0.226 OA
ATOM      9  N   UNL     1       0.653  -1.946  -1.115  0.00  0.00    -0.251 N 
ATOM     10  H   UNL     1       0.715  -2.345  -0.233  0.00  0.00    +0.158 HD
BRANCH   7  12
ATOM     11  C   UNL     1      -1.146   1.122  -0.461  0.00  0.00    +0.282 C 
ATOM     12  O   UNL     1      -0.534  -0.147  -0.222  0.00  0.00    -0.453 OA
ENDBRANCH   7  12
ENDBRANCH   1   9
BRANCH   4  13
ATOM     13  N   UNL     1       2.750  -4.595  -5.504  0.00  0.00    -0.255 NA
ATOM     14  C   UNL     1       3.487  -5.656  -5.335  0.00  0.00    +0.123 C 
BRANCH  14  15
ATOM     15  C   UNL     1       4.044  -6.359  -6.500  0.00  0.00    +0.036 A 
ATOM     16  C   UNL     1       4.831  -7.501  -6.323  0.00  0.00    +0.028 A 
ATOM     17  C   UNL     1       5.349  -8.156  -7.421  0.00  0.00    +0.019 A 
ATOM     18  C   UNL     1       5.093  -7.686  -8.699  0.00  0.00    +0.019 A 
ATOM     19  C   UNL     1       4.316  -6.559  -8.888  0.00  0.00    +0.047 A 
ATOM     20  C   UNL     1       3.783  -5.891  -7.797  0.00  0.00    +0.125 A 
ATOM     21 BR   UNL     1       6.413  -9.700  -7.181  0.00  0.00    -0.050 Br
BRANCH  20  22
ATOM     22  O   UNL     1       3.015  -4.787  -7.982  0.00  0.00    -0.506 OA
ATOM     23  H   UNL     1       3.515  -3.959  -7.998  0.00  0.00    +0.292 HD
ENDBRANCH  20  22
ENDBRANCH  14  15
ENDBRANCH   4  13
TORSDOF 5
