REMARK  Name = ZINC09154310
REMARK  5 active torsions:
REMARK  status: ('A' for Active; 'I' for Inactive)
REMARK    1  A    between atoms: C_1  and  C_2
REMARK    2  A    between atoms: C_9  and  C_14
REMARK    3  A    between atoms: C_14  and  O_16
REMARK    4  A    between atoms: O_16  and  C_17
REMARK    5  A    between atoms: C_17  and  C_18
REMARK                            x       y       z     vdW  Elec       q    Type
REMARK                         _______ _______ _______ _____ _____    ______ ____
ROOT
ATOM      1  C   UNL     1       1.235  -2.162  -0.017  0.00  0.00    +0.340 C 
ATOM      2  O   UNL     1       0.189  -2.781  -0.013  0.00  0.00    -0.245 OA
ENDROOT
BRANCH   1  10
ATOM      3  C   UNL     1      -0.777   5.670  -0.624  0.00  0.00    +0.029 C 
ATOM      4  C   UNL     1      -0.382   4.214  -0.875  0.00  0.00    +0.134 C 
ATOM      5  C   UNL     1      -1.459   3.301  -0.355  0.00  0.00    +0.230 C 
ATOM      6  O   UNL     1      -2.590   3.733  -0.284  0.00  0.00    -0.274 OA
ATOM      7  N   UNL     1      -1.240   2.048   0.031  0.00  0.00    -0.284 N 
ATOM      8  C   UNL     1      -0.017   1.381   0.010  0.00  0.00    +0.048 A 
ATOM      9  C   UNL     1       0.002  -0.004   0.002  0.00  0.00    +0.039 A 
ATOM     10  C   UNL     1       1.220  -0.689  -0.009  0.00  0.00    +0.061 A 
ATOM     11  C   UNL     1       2.425   0.021  -0.013  0.00  0.00    +0.016 A 
ATOM     12  C   UNL     1       2.407   1.398  -0.007  0.00  0.00    +0.017 A 
ATOM     13  C   UNL     1       1.196   2.079   0.002  0.00  0.00    +0.030 A 
ATOM     14  S   UNL     1       1.170   3.844  -0.002  0.00  0.00    -0.111 S 
ATOM     15  H   UNL     1      -2.005   1.549   0.358  0.00  0.00    +0.155 HD
ENDBRANCH   1  10
BRANCH   1  16
ATOM     16  O   UNL     1       2.409  -2.824  -0.027  0.00  0.00    -0.453 OA
BRANCH  16  17
ATOM     17  C   UNL     1       2.348  -4.275  -0.034  0.00  0.00    +0.306 C 
BRANCH  17  18
ATOM     18  C   UNL     1       3.746  -4.837  -0.045  0.00  0.00    +0.148 A 
ATOM     19  N   UNL     1       3.900  -6.187  -0.048  0.00  0.00    -0.307 N 
ATOM     20  H   UNL     1       3.123  -6.768  -0.042  0.00  0.00    +0.170 HD
ATOM     21  C   UNL     1       5.148  -6.713  -0.063  0.00  0.00    +0.266 A 
ATOM     22  O   UNL     1       5.320  -7.920  -0.070  0.00  0.00    -0.267 OA
ATOM     23  C   UNL     1       6.232  -5.834  -0.065  0.00  0.00    +0.102 A 
ATOM     24  C   UNL     1       6.045  -4.441  -0.057  0.00  0.00    +0.085 A 
ATOM     25  N   UNL     1       4.741  -4.009  -0.047  0.00  0.00    -0.230 NA
ATOM     26  C   UNL     1       7.219  -3.675  -0.060  0.00  0.00    +0.036 A 
ATOM     27  C   UNL     1       8.426  -4.281  -0.071  0.00  0.00    +0.048 A 
ATOM     28  S   UNL     1       7.996  -6.014  -0.077  0.00  0.00    -0.090 S 
ENDBRANCH  17  18
ENDBRANCH  16  17
ENDBRANCH   1  16
TORSDOF 4
