REMARK  Name = ZINC43407115
REMARK  3 active torsions:
REMARK  status: ('A' for Active; 'I' for Inactive)
REMARK    1  A    between atoms: C_2  and  O_9
REMARK    2  A    between atoms: O_9  and  C_10
REMARK    3  A    between atoms: C_11  and  C_19
REMARK                            x       y       z     vdW  Elec       q    Type
REMARK                         _______ _______ _______ _____ _____    ______ ____
ROOT
ATOM      1  C   UNL     1       2.348   4.094   0.228  0.00  0.00    +0.231 A 
ATOM      2  C   UNL     1       2.366   5.496   0.225  0.00  0.00    +0.074 A 
ATOM      3  C   UNL     1       3.602   6.150   0.196  0.00  0.00    +0.022 A 
ATOM      4  C   UNL     1       4.755   5.384   0.172  0.00  0.00    -0.025 A 
ATOM      5  C   UNL     1       4.661   4.004   0.176  0.00  0.00    +0.048 A 
ATOM      6  N   UNL     1       3.478   3.410   0.209  0.00  0.00    -0.217 NA
ATOM      7  C   UNL     1       6.050   3.401   0.146  0.00  0.00    +0.056 C 
ATOM      8  C   UNL     1       6.978   4.543  -0.319  0.00  0.00    +0.011 C 
ATOM      9  C   UNL     1       6.209   5.801   0.137  0.00  0.00    +0.037 C 
ENDROOT
BRANCH   2  10
ATOM     10  C   UNL     1       1.106   6.266   0.252  0.00  0.00    +0.099 C 
ATOM     11  N   UNL     1       0.896   7.167   1.211  0.00  0.00    -0.387 N 
ATOM     12  N   UNL     1       0.179   6.060  -0.683  0.00  0.00    -0.344 N 
ATOM     13  H   UNL     1       1.536   7.265   1.933  0.00  0.00    +0.157 HD
ATOM     14  H   UNL     1       0.332   5.404  -1.381  0.00  0.00    +0.144 HD
ATOM     15  H   UNL     1      -0.648   6.565  -0.665  0.00  0.00    +0.144 HD
ATOM     16  H   UNL     1       0.104   7.726   1.186  0.00  0.00    +0.157 HD
ENDBRANCH   2  10
BRANCH   1  17
ATOM     17  O   UNL     1       1.165   3.436   0.257  0.00  0.00    -0.437 OA
BRANCH  17  19
ATOM     18  C   UNL     1       0.950   1.289  -0.746  0.00  0.00    +0.066 A 
ATOM     19  C   UNL     1       1.190   2.082   0.367  0.00  0.00    +0.133 A 
ATOM     20  C   UNL     1       1.456   1.490   1.593  0.00  0.00    +0.066 A 
ATOM     21  C   UNL     1       1.481   0.112   1.703  0.00  0.00    +0.046 A 
ATOM     22  C   UNL     1       1.242  -0.677   0.592  0.00  0.00    +0.040 A 
ATOM     23  C   UNL     1       0.976  -0.088  -0.632  0.00  0.00    +0.046 A 
ATOM     24 CL   UNL     1       0.676  -1.080  -2.025  0.00  0.00    -0.083 Cl
ATOM     25 CL   UNL     1       1.814  -0.630   3.237  0.00  0.00    -0.083 Cl
ENDBRANCH  17  19
ENDBRANCH   1  17
TORSDOF 3
