REMARK  Name = ZINC67142120
REMARK  5 active torsions:
REMARK  status: ('A' for Active; 'I' for Inactive)
REMARK    1  A    between atoms: C_15  and  C_17
REMARK    2  A    between atoms: C_17  and  C_18
REMARK    3  A    between atoms: C_18  and  C_19
REMARK    4  A    between atoms: C_19  and  C_20
REMARK    5  A    between atoms: C_20  and  C_21
REMARK                            x       y       z     vdW  Elec       q    Type
REMARK                         _______ _______ _______ _____ _____    ______ ____
ROOT
ATOM      1  C   UNL     1      -0.016   1.362   0.009  0.00  0.00    +0.001 A 
ATOM      2  C   UNL     1       1.170   2.083   0.002  0.00  0.00    +0.002 A 
ATOM      3  C   UNL     1       2.385   1.435  -0.013  0.00  0.00    +0.026 A 
ATOM      4  C   UNL     1       2.428   0.045  -0.021  0.00  0.00    +0.047 A 
ATOM      5  C   UNL     1       1.223  -0.683  -0.014  0.00  0.00    +0.005 A 
ATOM      6  C   UNL     1       0.002  -0.004   0.002  0.00  0.00    +0.010 A 
ATOM      7  C   UNL     1       1.608  -2.089  -0.027  0.00  0.00    -0.002 A 
ATOM      8  C   UNL     1       2.954  -2.141  -0.043  0.00  0.00    +0.023 A 
ATOM      9  N   UNL     1       3.458  -0.870  -0.036  0.00  0.00    -0.358 N 
ATOM     10  H   UNL     1       4.402  -0.646  -0.041  0.00  0.00    +0.166 HD
ATOM     11  C   UNL     1       3.751  -3.425  -0.071  0.00  0.00    +0.072 C 
ATOM     12  C   UNL     1       2.849  -4.580   0.379  0.00  0.00    +0.114 C 
ATOM     13  N   UNL     1       1.552  -4.475  -0.305  0.00  0.00    -0.297 N 
ATOM     14  C   UNL     1       0.708  -3.300  -0.021  0.00  0.00    +0.145 C 
ATOM     15  C   UNL     1       1.146  -5.426  -1.169  0.00  0.00    +0.216 C 
ATOM     16  O   UNL     1       0.073  -5.323  -1.725  0.00  0.00    -0.276 OA
ENDROOT
BRANCH  15  17
ATOM     17  C   UNL     1       2.025  -6.619  -1.445  0.00  0.00    +0.096 C 
BRANCH  17  18
ATOM     18  C   UNL     1       1.335  -7.539  -2.454  0.00  0.00    +0.009 C 
BRANCH  18  19
ATOM     19  C   UNL     1       2.228  -8.749  -2.734  0.00  0.00    +0.002 C 
BRANCH  19  20
ATOM     20  C   UNL     1       1.538  -9.670  -3.743  0.00  0.00    +0.016 C 
BRANCH  20  21
ATOM     21  C   UNL     1       2.430 -10.880  -4.023  0.00  0.00    +0.069 C 
ATOM     22  C   UNL     1       1.786 -11.813  -5.071  0.00  0.00    +0.108 C 
ATOM     23  C   UNL     1       1.961 -13.303  -4.758  0.00  0.00    +0.105 C 
ATOM     24  C   UNL     1       2.738 -13.575  -3.452  0.00  0.00    +0.093 C 
ATOM     25  S   UNL     1       2.522 -11.991  -2.551  0.00  0.00    -0.154 S 
ATOM     26  N   UNL     1       0.585 -13.799  -4.602  0.00  0.00    -0.294 N 
ATOM     27  C   UNL     1      -0.269 -12.783  -4.788  0.00  0.00    +0.300 C 
ATOM     28  O   UNL     1      -1.476 -12.909  -4.717  0.00  0.00    -0.253 OA
ATOM     29  N   UNL     1       0.328 -11.622  -5.053  0.00  0.00    -0.294 N 
ATOM     30  H   UNL     1       0.335 -14.713  -4.397  0.00  0.00    +0.151 HD
ATOM     31  H   UNL     1      -0.132 -10.783  -5.212  0.00  0.00    +0.151 HD
ENDBRANCH  20  21
ENDBRANCH  19  20
ENDBRANCH  18  19
ENDBRANCH  17  18
ENDBRANCH  15  17
TORSDOF 5
