REMARK  Name = ZINC13388264
REMARK  8 active torsions:
REMARK  status: ('A' for Active; 'I' for Inactive)
REMARK    1  A    between atoms: C_1  and  C_2
REMARK    2  A    between atoms: C_8  and  N_10
REMARK    3  A    between atoms: N_10  and  C_11
REMARK    4  A    between atoms: N_16  and  C_19
REMARK    5  A    between atoms: C_22  and  N_25
REMARK    6  A    between atoms: C_29  and  N_33
REMARK    7  A    between atoms: N_33  and  C_34
REMARK    8  A    between atoms: C_40  and  C_42
REMARK                            x       y       z     vdW  Elec       q    Type
REMARK                         _______ _______ _______ _____ _____    ______ ____
ROOT
ATOM      1  C   UNL     1       4.980  -3.270   2.635  0.00  0.00    +0.044 A 
ATOM      2  C   UNL     1       4.125  -4.350   2.465  0.00  0.00    +0.026 A 
ATOM      3  C   UNL     1       4.569  -5.630   2.732  0.00  0.00    +0.026 A 
ATOM      4  C   UNL     1       5.870  -5.837   3.169  0.00  0.00    +0.044 A 
ATOM      5  C   UNL     1       6.725  -4.756   3.338  0.00  0.00    +0.026 A 
ATOM      6  C   UNL     1       6.283  -3.477   3.067  0.00  0.00    +0.026 A 
ENDROOT
BRANCH   1  11
ATOM      7  C   UNL     1       4.313   0.112   1.346  0.00  0.00    +0.026 C 
ATOM      8  C   UNL     1       3.333   0.020   2.533  0.00  0.00    +0.090 C 
ATOM      9  C   UNL     1       3.581  -1.365   3.090  0.00  0.00    +0.225 C 
ATOM     10  O   UNL     1       3.010  -1.851   4.043  0.00  0.00    -0.275 OA
ATOM     11  N   UNL     1       4.529  -1.969   2.364  0.00  0.00    -0.212 N 
ATOM     12  C   UNL     1       5.012  -1.230   1.353  0.00  0.00    +0.213 C 
ATOM     13  O   UNL     1       5.870  -1.579   0.571  0.00  0.00    -0.277 OA
BRANCH   7  14
ATOM     14  N   UNL     1       5.279   1.199   1.556  0.00  0.00    +0.389 N 
ATOM     15  H   UNL     1       6.017   1.130   0.872  0.00  0.00    -0.084 HD
ATOM     16  H   UNL     1       5.672   1.125   2.483  0.00  0.00    -0.084 HD
BRANCH  14  23
ATOM     17  C   UNL     1       6.040   3.449   3.217  0.00  0.00    +0.006 C 
ATOM     18  C   UNL     1       5.568   3.621   1.772  0.00  0.00    -0.028 C 
ATOM     19  C   UNL     1       4.859   4.969   1.624  0.00  0.00    +0.002 C 
ATOM     20  C   UNL     1       4.388   5.141   0.179  0.00  0.00    +0.000 C 
ATOM     21  C   UNL     1       3.418   4.013  -0.179  0.00  0.00    -0.002 C 
ATOM     22  C   UNL     1       4.127   2.665  -0.031  0.00  0.00    -0.015 C 
ATOM     23  C   UNL     1       4.599   2.493   1.414  0.00  0.00    -0.068 C 
ENDBRANCH  14  23
ENDBRANCH   7  14
ENDBRANCH   1  11
BRANCH   4  24
ATOM     24  N   UNL     1       6.321  -7.137   3.441  0.00  0.00    -0.212 N 
ATOM     25  C   UNL     1       5.831  -7.879   4.442  0.00  0.00    +0.225 C 
ATOM     26  O   UNL     1       4.964  -7.531   5.215  0.00  0.00    -0.275 OA
ATOM     27  C   UNL     1       6.531  -9.220   4.456  0.00  0.00    +0.090 C 
ATOM     28  C   UNL     1       7.521  -9.124   3.277  0.00  0.00    +0.026 C 
ATOM     29  C   UNL     1       7.272  -7.740   2.717  0.00  0.00    +0.213 C 
ATOM     30  O   UNL     1       7.845  -7.254   1.766  0.00  0.00    -0.277 OA
BRANCH  28  31
ATOM     31  N   UNL     1       7.224 -10.149   2.268  0.00  0.00    +0.389 N 
ATOM     32  H   UNL     1       6.255 -10.080   1.993  0.00  0.00    -0.084 HD
ATOM     33  H   UNL     1       7.814 -10.008   1.461  0.00  0.00    -0.084 HD
BRANCH  31  34
ATOM     34  C   UNL     1       7.479 -11.481   2.833  0.00  0.00    -0.068 C 
ATOM     35  C   UNL     1       8.975 -11.640   3.109  0.00  0.00    -0.015 C 
ATOM     36  C   UNL     1       9.241 -13.027   3.698  0.00  0.00    -0.002 C 
ATOM     37  C   UNL     1       8.788 -14.098   2.704  0.00  0.00    +0.000 C 
ATOM     38  C   UNL     1       7.292 -13.939   2.428  0.00  0.00    +0.002 C 
ATOM     39  C   UNL     1       7.027 -12.552   1.839  0.00  0.00    -0.028 C 
ATOM     40  C   UNL     1       7.806 -12.396   0.532  0.00  0.00    +0.006 C 
ENDBRANCH  31  34
ENDBRANCH  28  31
ENDBRANCH   4  24
TORSDOF 6
