REMARK  Name = ZINC32124995
REMARK  9 active torsions:
REMARK  status: ('A' for Active; 'I' for Inactive)
REMARK    1  A    between atoms: C_10  and  N_11
REMARK    2  A    between atoms: C_12  and  C_14
REMARK    3  A    between atoms: C_14  and  N_15
REMARK    4  A    between atoms: C_19  and  C_20
REMARK    5  A    between atoms: C_23  and  S_29
REMARK    6  A    between atoms: C_24  and  N_26
REMARK    7  A    between atoms: S_29  and  C_30
REMARK    8  A    between atoms: C_30  and  C_31
REMARK    9  A    between atoms: C_31  and  O_32
REMARK                            x       y       z     vdW  Elec       q    Type
REMARK                         _______ _______ _______ _____ _____    ______ ____
ROOT
ATOM      1  N   UNL     1       1.036   2.029  -1.004  0.00  0.00    -0.219 N 
ATOM      2  C   UNL     1       0.173   1.190  -0.455  0.00  0.00    +0.261 C 
ATOM      3  O   UNL     1      -0.930   1.555  -0.092  0.00  0.00    -0.269 OA
ATOM      4  C   UNL     1       0.613  -0.211  -0.310  0.00  0.00    +0.080 C 
ATOM      5  C   UNL     1      -0.050  -1.276   0.210  0.00  0.00    +0.028 C 
ATOM      6  S   UNL     1       2.257  -0.120  -1.006  0.00  0.00    -0.026 S 
ATOM      7  C   UNL     1       2.256   1.620  -1.409  0.00  0.00    +0.286 C 
ATOM      8  O   UNL     1       3.140   2.276  -1.925  0.00  0.00    -0.262 OA
ENDROOT
BRANCH   5   9
ATOM      9  C   UNL     1       0.512  -2.625   0.076  0.00  0.00    -0.022 A 
ATOM     10  C   UNL     1      -0.072  -3.700   0.760  0.00  0.00    +0.009 A 
ATOM     11  C   UNL     1       0.454  -4.954   0.633  0.00  0.00    +0.017 A 
ATOM     12  C   UNL     1       1.569  -5.166  -0.175  0.00  0.00    +0.038 A 
ATOM     13  C   UNL     1       2.153  -4.100  -0.856  0.00  0.00    +0.140 A 
ATOM     14  C   UNL     1       1.630  -2.844  -0.739  0.00  0.00    +0.041 A 
BRANCH  13  15
ATOM     15  N   UNL     1       3.337  -4.331  -1.714  0.00  0.00    +0.058 N 
ATOM     16  O   UNL     1       3.848  -3.400  -2.310  0.00  0.00    -0.126 OA
ATOM     17  O   UNL     1       3.801  -5.452  -1.822  0.00  0.00    -0.126 OA
ENDBRANCH  13  15
BRANCH  12  18
ATOM     18  S   UNL     1       2.244  -6.786  -0.335  0.00  0.00    -0.121 S 
BRANCH  18  19
ATOM     19  C   UNL     1       1.174  -7.812   0.711  0.00  0.00    +0.102 C 
BRANCH  19  20
ATOM     20  C   UNL     1       1.654  -9.264   0.662  0.00  0.00    +0.167 C 
BRANCH  20  21
ATOM     21  O   UNL     1       0.811 -10.072   1.486  0.00  0.00    -0.394 OA
ATOM     22  H   UNL     1       1.002 -11.151   1.576  0.00  0.00    +0.209 HD
ENDBRANCH  20  21
ENDBRANCH  19  20
ENDBRANCH  18  19
ENDBRANCH  12  18
ENDBRANCH   5   9
BRANCH   1  23
ATOM     23  C   UNL     1       0.659   3.434  -1.175  0.00  0.00    +0.213 C 
BRANCH  23  25
ATOM     24  N   UNL     1       0.807   5.537   0.118  0.00  0.00    -0.284 N 
ATOM     25  C   UNL     1       1.057   4.214   0.051  0.00  0.00    +0.235 C 
ATOM     26  O   UNL     1       1.602   3.652   0.977  0.00  0.00    -0.274 OA
ATOM     27  H   UNL     1       0.254   6.034  -0.692  0.00  0.00    +0.155 HD
BRANCH  24  37
ATOM     28  C   UNL     1      -0.688   9.801   2.368  0.00  0.00    +0.001 A 
ATOM     29  C   UNL     1      -1.147   9.079   1.268  0.00  0.00    +0.001 A 
ATOM     30  C   UNL     1      -0.529   7.930   0.877  0.00  0.00    +0.010 A 
ATOM     31  C   UNL     1       0.585   7.463   1.592  0.00  0.00    +0.003 A 
ATOM     32  C   UNL     1       1.052   8.196   2.710  0.00  0.00    -0.016 A 
ATOM     33  C   UNL     1       0.390   9.379   3.083  0.00  0.00    +0.008 A 
ATOM     34  C   UNL     1       2.168   7.730   3.426  0.00  0.00    +0.008 A 
ATOM     35  C   UNL     1       2.791   6.582   3.041  0.00  0.00    +0.002 A 
ATOM     36  C   UNL     1       2.338   5.850   1.948  0.00  0.00    +0.024 A 
ATOM     37  C   UNL     1       1.250   6.276   1.217  0.00  0.00    +0.041 A 
ENDBRANCH  24  37
ENDBRANCH  23  25
ENDBRANCH   1  23
TORSDOF 9
