REMARK  Name = ZINC21134126
REMARK  15 active torsions:
REMARK  status: ('A' for Active; 'I' for Inactive)
REMARK    1  A    between atoms: C_1  and  C_2
REMARK    2  A    between atoms: C_2  and  C_3
REMARK    3  A    between atoms: C_3  and  C_4
REMARK    4  A    between atoms: C_4  and  N_5
REMARK    5  A    between atoms: N_5  and  C_6
REMARK    6  A    between atoms: C_7  and  N_19
REMARK    7  A    between atoms: N_8  and  C_15
REMARK    8  A    between atoms: C_15  and  C_16
REMARK    9  A    between atoms: C_16  and  C_17
REMARK   10  A    between atoms: C_16  and  C_18
REMARK   11  A    between atoms: C_20  and  C_22
REMARK   12  A    between atoms: C_22  and  N_23
REMARK   13  A    between atoms: N_23  and  C_24
REMARK   14  A    between atoms: N_23  and  C_25
REMARK   15  A    between atoms: C_25  and  C_26
REMARK                            x       y       z     vdW  Elec       q    Type
REMARK                         _______ _______ _______ _____ _____    ______ ____
ROOT
ATOM      1  N   UNL     1       1.097   1.818  -0.055  0.00  0.00    -0.266 N 
ATOM      2  C   UNL     1      -0.013   1.077  -0.253  0.00  0.00    +0.203 C 
ATOM      3  O   UNL     1       0.082  -0.115  -0.460  0.00  0.00    -0.277 OA
ENDROOT
BRANCH   1   4
ATOM      4  C   UNL     1       2.361   1.193   0.008  0.00  0.00    +0.140 A 
ATOM      5  C   UNL     1       2.648   0.290   1.012  0.00  0.00    +0.127 A 
ATOM      6  N   UNL     1       3.889  -0.302   1.047  0.00  0.00    -0.280 N 
ATOM      7  C   UNL     1       4.811  -0.006   0.114  0.00  0.00    +0.331 A 
ATOM      8  O   UNL     1       5.902  -0.541   0.163  0.00  0.00    -0.246 OA
ATOM      9  N   UNL     1       4.550   0.871  -0.872  0.00  0.00    -0.273 N 
ATOM     10  H   UNL     1       5.320   1.102  -1.621  0.00  0.00    +0.173 HD
ATOM     11  C   UNL     1       3.348   1.475  -0.955  0.00  0.00    +0.277 A 
ATOM     12  O   UNL     1       3.119   2.265  -1.855  0.00  0.00    -0.266 OA
BRANCH   5  13
ATOM     13  N   UNL     1       1.705  -0.012   1.965  0.00  0.00    -0.343 N 
ATOM     14  H   UNL     1       1.941  -0.733   2.762  0.00  0.00    +0.144 HD
ATOM     15  H   UNL     1       0.715   0.466   1.931  0.00  0.00    +0.144 HD
ENDBRANCH   5  13
BRANCH   6  16
ATOM     16  C   UNL     1       4.207  -1.263   2.106  0.00  0.00    +0.131 C 
BRANCH  16  17
ATOM     17  C   UNL     1       3.827  -2.672   1.648  0.00  0.00    +0.003 C 
ATOM     18  C   UNL     1       4.703  -3.075   0.460  0.00  0.00    +0.009 C 
ATOM     19  C   UNL     1       4.043  -3.658   2.798  0.00  0.00    +0.009 C 
ENDBRANCH  16  17
ENDBRANCH   6  16
ENDBRANCH   1   4
BRANCH   1  20
ATOM     20  C   UNL     1       0.991   3.271   0.094  0.00  0.00    +0.114 C 
BRANCH  20  21
ATOM     21  C   UNL     1       0.861   3.624   1.577  0.00  0.00    +0.019 C 
BRANCH  21  23
ATOM     22  C   UNL     1       0.620   5.494   3.216  0.00  0.00    +0.004 C 
ATOM     23  C   UNL     1       0.750   5.142   1.733  0.00  0.00    -0.002 C 
ENDBRANCH  21  23
ENDBRANCH  20  21
ENDBRANCH   1  20
BRANCH   2  24
ATOM     24  C   UNL     1      -1.370   1.731  -0.224  0.00  0.00    +0.019 C 
BRANCH  24  25
ATOM     25  N   UNL     1      -2.406   0.719  -0.471  0.00  0.00    +0.386 N 
ATOM     26  C   UNL     1      -2.464  -0.255   0.628  0.00  0.00    -0.095 C 
ATOM     27  H   UNL     1      -2.138   0.177  -1.389  0.00  0.00    -0.081 HD
BRANCH  25  28
ATOM     28  C   UNL     1      -3.716   1.348  -0.685  0.00  0.00    -0.043 C 
BRANCH  28  29
ATOM     29  C   UNL     1      -4.697   0.314  -1.174  0.00  0.00    -0.064 A 
ATOM     30  C   UNL     1      -4.847   0.091  -2.530  0.00  0.00    +0.003 A 
ATOM     31  C   UNL     1      -5.742  -0.862  -2.979  0.00  0.00    +0.015 A 
ATOM     32  C   UNL     1      -6.497  -1.584  -2.071  0.00  0.00    +0.018 A 
ATOM     33  C   UNL     1      -6.350  -1.356  -0.715  0.00  0.00    +0.015 A 
ATOM     34  C   UNL     1      -5.450  -0.408  -0.267  0.00  0.00    +0.003 A 
ATOM     35 BR   UNL     1      -7.727  -2.882  -2.685  0.00  0.00    -0.050 Br
ENDBRANCH  28  29
ENDBRANCH  25  28
ENDBRANCH  24  25
ENDBRANCH   2  24
TORSDOF 11
