REMARK  Name = ZINC12321967
REMARK  2 active torsions:
REMARK  status: ('A' for Active; 'I' for Inactive)
REMARK    1  A    between atoms: C_23  and  C_25
REMARK    2  A    between atoms: N_27  and  C_28
REMARK                            x       y       z     vdW  Elec       q    Type
REMARK                         _______ _______ _______ _____ _____    ______ ____
ROOT
ATOM      1  C   UNL     1      14.494   5.007   1.555  0.00  0.00    +0.000 A 
ATOM      2  C   UNL     1      13.676   4.895   2.664  0.00  0.00    +0.000 A 
ATOM      3  C   UNL     1      12.515   4.153   2.590  0.00  0.00    +0.005 A 
ATOM      4  C   UNL     1      12.163   3.517   1.408  0.00  0.00    -0.027 A 
ATOM      5  C   UNL     1      12.976   3.632   0.302  0.00  0.00    -0.041 A 
ATOM      6  C   UNL     1      14.144   4.377   0.378  0.00  0.00    +0.004 A 
ATOM      7  C   UNL     1      12.633   2.965  -1.006  0.00  0.00    +0.054 C 
ATOM      8  C   UNL     1      11.577   1.883  -0.778  0.00  0.00    +0.113 C 
ATOM      9  N   UNL     1      10.469   2.467  -0.004  0.00  0.00    -0.296 N 
ATOM     10  C   UNL     1      10.890   2.712   1.379  0.00  0.00    +0.143 C 
ATOM     11  C   UNL     1       9.363   1.661  -0.046  0.00  0.00    +0.200 A 
ATOM     12  N   UNL     1       8.207   2.089   0.530  0.00  0.00    -0.295 N 
ATOM     13  H   UNL     1       8.170   2.960   0.954  0.00  0.00    +0.172 HD
ATOM     14  C   UNL     1       7.110   1.301   0.510  0.00  0.00    +0.258 A 
ATOM     15  O   UNL     1       6.069   1.669   1.031  0.00  0.00    -0.267 OA
ATOM     16  C   UNL     1       7.192   0.054  -0.119  0.00  0.00    +0.069 A 
ATOM     17  C   UNL     1       8.385  -0.328  -0.705  0.00  0.00    +0.138 A 
ATOM     18  N   UNL     1       9.444   0.489  -0.641  0.00  0.00    -0.200 NA
ATOM     19  N   UNL     1       8.484  -1.544  -1.358  0.00  0.00    -0.270 N 
ATOM     20  C   UNL     1       7.383  -2.245  -1.679  0.00  0.00    +0.219 C 
ATOM     21  O   UNL     1       7.497  -3.355  -2.154  0.00  0.00    -0.275 OA
ATOM     22  C   UNL     1       6.011  -1.667  -1.456  0.00  0.00    +0.114 C 
ATOM     23  C   UNL     1       5.997  -0.860  -0.157  0.00  0.00    +0.122 C 
ATOM     24  H   UNL     1       9.359  -1.894  -1.587  0.00  0.00    +0.156 HD
ENDROOT
BRANCH  23  25
ATOM     25  C   UNL     1       4.735  -0.039  -0.090  0.00  0.00    +0.225 C 
ATOM     26  O   UNL     1       4.448   0.708  -1.002  0.00  0.00    -0.275 OA
ATOM     27  N   UNL     1       3.925  -0.134   0.983  0.00  0.00    -0.285 N 
ATOM     28  H   UNL     1       4.190  -0.673   1.745  0.00  0.00    +0.155 HD
BRANCH  27  29
ATOM     29  C   UNL     1       2.701   0.545   0.999  0.00  0.00    +0.033 A 
ATOM     30  C   UNL     1       1.990   0.724  -0.181  0.00  0.00    +0.025 A 
ATOM     31  C   UNL     1       0.783   1.395  -0.163  0.00  0.00    +0.022 A 
ATOM     32  C   UNL     1       0.281   1.888   1.029  0.00  0.00    +0.041 A 
ATOM     33  C   UNL     1       0.988   1.710   2.206  0.00  0.00    +0.022 A 
ATOM     34  C   UNL     1       2.196   1.041   2.193  0.00  0.00    +0.025 A 
ATOM     35 CL   UNL     1      -1.233   2.736   1.047  0.00  0.00    -0.084 Cl
ENDBRANCH  27  29
ENDBRANCH  23  25
TORSDOF 2
