REMARK  Name = ZINC41091132
REMARK  9 active torsions:
REMARK  status: ('A' for Active; 'I' for Inactive)
REMARK    1  A    between atoms: C_3  and  S_13
REMARK    2  A    between atoms: C_6  and  C_7
REMARK    3  A    between atoms: S_13  and  N_16
REMARK    4  A    between atoms: N_16  and  C_17
REMARK    5  A    between atoms: C_17  and  C_18
REMARK    6  A    between atoms: C_18  and  N_19
REMARK    7  A    between atoms: N_19  and  S_20
REMARK    8  A    between atoms: S_20  and  C_23
REMARK    9  A    between atoms: C_26  and  C_29
REMARK                            x       y       z     vdW  Elec       q    Type
REMARK                         _______ _______ _______ _____ _____    ______ ____
ROOT
ATOM      1  C   UNL     1       4.670   1.412   2.405  0.00  0.00    +0.122 C 
ENDROOT
BRANCH   1   2
ATOM      2  N   UNL     1       4.327   2.556   1.555  0.00  0.00    -0.189 NA
ATOM      3  H   UNL     1       4.356   3.455   1.917  0.00  0.00    +0.148 HD
BRANCH   2   4
ATOM      4  S   UNL     1       3.891   2.312  -0.024  0.00  0.00    +0.058 S 
ATOM      5  O   UNL     1       4.872   1.453  -0.588  0.00  0.00    -0.153 OA
ATOM      6  O   UNL     1       3.597   3.593  -0.566  0.00  0.00    -0.153 OA
BRANCH   4   9
ATOM      7  C   UNL     1      -0.017   1.378   0.010  0.00  0.00    +0.006 A 
ATOM      8  C   UNL     1       1.171   2.086   0.002  0.00  0.00    +0.029 A 
ATOM      9  C   UNL     1       2.377   1.411  -0.013  0.00  0.00    +0.105 A 
ATOM     10  C   UNL     1       2.396   0.029  -0.020  0.00  0.00    +0.029 A 
ATOM     11  C   UNL     1       1.208  -0.679  -0.012  0.00  0.00    +0.006 A 
ATOM     12  C   UNL     1       0.002  -0.004   0.002  0.00  0.00    -0.044 A 
BRANCH  12  13
ATOM     13  C   UNL     1      -1.293  -0.775   0.011  0.00  0.00    +0.019 C 
ATOM     14  C   UNL     1      -1.349  -1.663   1.256  0.00  0.00    +0.008 C 
ATOM     15  C   UNL     1      -2.664  -2.446   1.265  0.00  0.00    +0.001 C 
ATOM     16  C   UNL     1      -2.745  -3.320   0.011  0.00  0.00    +0.000 C 
ATOM     17  C   UNL     1      -2.688  -2.432  -1.234  0.00  0.00    +0.001 C 
ATOM     18  C   UNL     1      -1.374  -1.649  -1.242  0.00  0.00    +0.008 C 
ENDBRANCH  12  13
ENDBRANCH   4   9
ENDBRANCH   2   4
ENDBRANCH   1   2
BRANCH   1  19
ATOM     19  C   UNL     1       5.383   1.909   3.664  0.00  0.00    +0.122 C 
BRANCH  19  20
ATOM     20  N   UNL     1       5.726   0.766   4.514  0.00  0.00    -0.189 NA
ATOM     21  H   UNL     1       5.314  -0.098   4.354  0.00  0.00    +0.148 HD
BRANCH  20  22
ATOM     22  S   UNL     1       6.816   0.948   5.747  0.00  0.00    +0.058 S 
ATOM     23  O   UNL     1       6.913  -0.314   6.393  0.00  0.00    -0.153 OA
ATOM     24  O   UNL     1       7.945   1.611   5.196  0.00  0.00    -0.153 OA
BRANCH  22  25
ATOM     25  C   UNL     1       6.101   2.057   6.915  0.00  0.00    +0.105 A 
ATOM     26  C   UNL     1       6.312   3.418   6.794  0.00  0.00    +0.029 A 
ATOM     27  C   UNL     1       5.752   4.288   7.710  0.00  0.00    +0.006 A 
ATOM     28  C   UNL     1       4.979   3.797   8.747  0.00  0.00    -0.044 A 
ATOM     29  C   UNL     1       4.768   2.437   8.867  0.00  0.00    +0.006 A 
ATOM     30  C   UNL     1       5.325   1.567   7.948  0.00  0.00    +0.029 A 
BRANCH  28  31
ATOM     31  C   UNL     1       4.369   4.746   9.746  0.00  0.00    +0.019 C 
ATOM     32  C   UNL     1       4.886   4.413  11.147  0.00  0.00    +0.008 C 
ATOM     33  C   UNL     1       4.266   5.376  12.162  0.00  0.00    +0.001 C 
ATOM     34  C   UNL     1       2.743   5.236  12.133  0.00  0.00    +0.000 C 
ATOM     35  C   UNL     1       2.226   5.569  10.733  0.00  0.00    +0.001 C 
ATOM     36  C   UNL     1       2.846   4.606   9.718  0.00  0.00    +0.008 C 
ENDBRANCH  28  31
ENDBRANCH  22  25
ENDBRANCH  20  22
ENDBRANCH  19  20
ENDBRANCH   1  19
TORSDOF 9
