REMARK  Name = ZINC31823449
REMARK  8 active torsions:
REMARK  status: ('A' for Active; 'I' for Inactive)
REMARK    1  A    between atoms: C_1  and  C_2
REMARK    2  A    between atoms: C_3  and  C_27
REMARK    3  A    between atoms: C_7  and  N_26
REMARK    4  A    between atoms: C_9  and  S_11
REMARK    5  A    between atoms: S_11  and  C_12
REMARK    6  A    between atoms: C_12  and  C_14
REMARK    7  A    between atoms: C_12  and  C_15
REMARK    8  A    between atoms: C_23  and  C_25
REMARK                            x       y       z     vdW  Elec       q    Type
REMARK                         _______ _______ _______ _____ _____    ______ ____
ROOT
ATOM      1  C   UNL     1      -3.393   3.857   9.689  0.00  0.00    +0.045 C 
ATOM      2  C   UNL     1      -3.748   2.407   9.481  0.00  0.00    -0.028 A 
ATOM      3  C   UNL     1      -4.427   1.734  10.420  0.00  0.00    -0.008 A 
ATOM      4  S   UNL     1      -4.595   0.101   9.723  0.00  0.00    -0.073 S 
ATOM      5  C   UNL     1      -3.749   0.368   8.188  0.00  0.00    +0.115 A 
ATOM      6  C   UNL     1      -3.357   1.723   8.259  0.00  0.00    +0.050 A 
ATOM      7  C   UNL     1      -2.642   2.214   7.132  0.00  0.00    +0.129 A 
ATOM      8  N   UNL     1      -2.395   1.402   6.118  0.00  0.00    -0.207 NA
ATOM      9  C   UNL     1      -2.793   0.136   6.115  0.00  0.00    +0.192 A 
ATOM     10  N   UNL     1      -3.467  -0.376   7.136  0.00  0.00    -0.214 NA
ATOM     11  C   UNL     1      -4.927   2.236  11.750  0.00  0.00    +0.052 C 
ENDROOT
BRANCH   7  12
ATOM     12  N   UNL     1      -2.210   3.527   7.097  0.00  0.00    -0.343 N 
ATOM     13  H   UNL     1      -1.658   3.902   6.223  0.00  0.00    +0.144 HD
ATOM     14  H   UNL     1      -2.419   4.198   7.944  0.00  0.00    +0.144 HD
ENDBRANCH   7  12
BRANCH   9  15
ATOM     15  S   UNL     1      -2.424  -0.883   4.725  0.00  0.00    -0.073 S 
BRANCH  15  16
ATOM     16  C   UNL     1      -1.536   0.307   3.690  0.00  0.00    +0.137 C 
ATOM     17  C   UNL     1      -0.235   0.715   4.385  0.00  0.00    +0.029 C 
BRANCH  16  18
ATOM     18  C   UNL     1      -1.218  -0.324   2.359  0.00  0.00    +0.229 C 
ATOM     19  O   UNL     1      -1.218  -1.531   2.245  0.00  0.00    -0.274 OA
ATOM     20  N   UNL     1      -0.933   0.454   1.296  0.00  0.00    -0.298 N 
ATOM     21  C   UNL     1      -0.621  -0.148  -0.008  0.00  0.00    +0.127 C 
ATOM     22  C   UNL     1      -1.573   0.434  -1.061  0.00  0.00    +0.126 C 
ATOM     23  N   UNL     1      -1.570   1.899  -0.938  0.00  0.00    -0.299 N 
ATOM     24  C   UNL     1      -1.886   2.500   0.365  0.00  0.00    +0.126 C 
ATOM     25  C   UNL     1      -0.934   1.918   1.418  0.00  0.00    +0.127 C 
ATOM     26  C   UNL     1      -1.283   2.676  -2.001  0.00  0.00    +0.213 C 
ATOM     27  O   UNL     1      -0.902   2.171  -3.036  0.00  0.00    -0.276 OA
ATOM     28  C   UNL     1      -1.435   4.172  -1.903  0.00  0.00    +0.109 C 
ENDBRANCH  16  18
ENDBRANCH  15  16
ENDBRANCH   9  15
TORSDOF 4
