REMARK  Name = ZINC00350860
REMARK  8 active torsions:
REMARK  status: ('A' for Active; 'I' for Inactive)
REMARK    1  A    between atoms: C_1  and  C_2
REMARK    2  A    between atoms: C_6  and  N_8
REMARK    3  A    between atoms: N_10  and  C_22
REMARK    4  A    between atoms: C_11  and  C_14
REMARK    5  A    between atoms: C_17  and  O_20
REMARK    6  A    between atoms: O_20  and  C_21
REMARK    7  A    between atoms: C_22  and  C_23
REMARK    8  A    between atoms: C_23  and  O_24
REMARK                            x       y       z     vdW  Elec       q    Type
REMARK                         _______ _______ _______ _____ _____    ______ ____
ROOT
ATOM      1  N   UNL     1       0.843   4.989   0.160  0.00  0.00    -0.224 NA
ATOM      2  C   UNL     1       0.409   3.748   0.037  0.00  0.00    +0.174 A 
ATOM      3  N   UNL     1      -0.847   3.240   0.269  0.00  0.00    -0.317 N 
ATOM      4  C   UNL     1      -1.063   1.905   0.064  0.00  0.00    +0.058 A 
ATOM      5  C   UNL     1      -0.045   1.120  -0.345  0.00  0.00    +0.075 A 
ATOM      6  S   UNL     1       1.299   2.287  -0.474  0.00  0.00    -0.057 S 
ENDROOT
BRANCH   1  12
ATOM      7  C   UNL     1       4.476   6.297  -2.848  0.00  0.00    +0.044 C 
ATOM      8  C   UNL     1       3.971   5.913  -1.481  0.00  0.00    -0.048 A 
ATOM      9  C   UNL     1       4.849   5.846  -0.414  0.00  0.00    +0.003 A 
ATOM     10  C   UNL     1       4.393   5.494   0.845  0.00  0.00    +0.002 A 
ATOM     11  C   UNL     1       3.058   5.213   1.044  0.00  0.00    +0.028 A 
ATOM     12  C   UNL     1       2.167   5.272  -0.030  0.00  0.00    +0.067 A 
ATOM     13  C   UNL     1       2.634   5.629  -1.298  0.00  0.00    +0.031 A 
ENDBRANCH   1  12
BRANCH   4  14
ATOM     14  C   UNL     1      -2.403   1.324   0.295  0.00  0.00    -0.001 A 
ATOM     15  C   UNL     1      -2.530   0.086   0.927  0.00  0.00    +0.013 A 
ATOM     16  C   UNL     1      -3.782  -0.450   1.145  0.00  0.00    +0.046 A 
ATOM     17  C   UNL     1      -4.915   0.235   0.727  0.00  0.00    +0.120 A 
ATOM     18  C   UNL     1      -4.793   1.464   0.094  0.00  0.00    +0.046 A 
ATOM     19  C   UNL     1      -3.545   2.010  -0.123  0.00  0.00    +0.013 A 
BRANCH  17  20
ATOM     20  O   UNL     1      -6.146  -0.298   0.940  0.00  0.00    -0.495 OA
ATOM     21  C   UNL     1      -6.200  -1.566   1.597  0.00  0.00    +0.277 C 
ENDBRANCH  17  20
ENDBRANCH   4  14
BRANCH   3  22
ATOM     22  C   UNL     1      -1.935   4.112   0.720  0.00  0.00    +0.152 C 
BRANCH  22  23
ATOM     23  C   UNL     1      -1.378   5.169   1.676  0.00  0.00    +0.177 C 
BRANCH  23  24
ATOM     24  O   UNL     1      -2.438   6.019   2.116  0.00  0.00    -0.393 OA
ATOM     25  H   UNL     1      -2.157   6.715   2.727  0.00  0.00    +0.209 HD
ENDBRANCH  23  24
ENDBRANCH  22  23
ENDBRANCH   3  22
TORSDOF 6
