REMARK  Name = ZINC62365290
REMARK  3 active torsions:
REMARK  status: ('A' for Active; 'I' for Inactive)
REMARK    1  A    between atoms: C_4  and  S_8
REMARK    2  A    between atoms: S_8  and  C_9
REMARK    3  A    between atoms: C_10  and  N_16
REMARK                            x       y       z     vdW  Elec       q    Type
REMARK                         _______ _______ _______ _____ _____    ______ ____
ROOT
ATOM      1  C   UNL     1       3.484  -2.523   0.103  0.00  0.00    +0.127 A 
ATOM      2  C   UNL     1       4.465  -3.516   0.233  0.00  0.00    +0.095 A 
ATOM      3  C   UNL     1       4.051  -4.837   0.344  0.00  0.00    +0.154 A 
ATOM      4  N   UNL     1       2.753  -5.110   0.322  0.00  0.00    -0.222 NA
ATOM      5  C   UNL     1       1.859  -4.151   0.199  0.00  0.00    +0.224 A 
ATOM      6  N   UNL     1       2.204  -2.882   0.096  0.00  0.00    -0.227 NA
ATOM      7 CL   UNL     1       5.216  -6.113   0.507  0.00  0.00    -0.060 Cl
ENDROOT
BRANCH   2   8
ATOM      8  N   UNL     1       5.826  -3.185   0.251  0.00  0.00    -0.354 N 
ATOM      9  H   UNL     1       6.100  -2.258   0.172  0.00  0.00    +0.142 HD
ATOM     10  H   UNL     1       6.494  -3.882   0.342  0.00  0.00    +0.142 HD
ENDBRANCH   2   8
BRANCH   1  11
ATOM     11  S   UNL     1       3.940  -0.828  -0.042  0.00  0.00    -0.066 S 
BRANCH  11  15
ATOM     12  C   UNL     1       0.010   1.302  -0.782  0.00  0.00    +0.021 A 
ATOM     13  C   UNL     1       0.619   0.602  -1.808  0.00  0.00    +0.022 A 
ATOM     14  C   UNL     1       1.817  -0.049  -1.586  0.00  0.00    +0.055 A 
ATOM     15  C   UNL     1       2.412   0.001  -0.329  0.00  0.00    +0.034 A 
ATOM     16  C   UNL     1       1.798   0.705   0.698  0.00  0.00    +0.036 A 
ATOM     17  C   UNL     1       0.598   1.354   0.469  0.00  0.00    +0.042 A 
ATOM     18 CL   UNL     1      -0.170   2.234   1.753  0.00  0.00    -0.084 Cl
ATOM     19 CL   UNL     1       2.580  -0.928  -2.873  0.00  0.00    -0.082 Cl
ENDBRANCH  11  15
ENDBRANCH   1  11
TORSDOF 3
