REMARK  Name = ZINC21334529
REMARK  7 active torsions:
REMARK  status: ('A' for Active; 'I' for Inactive)
REMARK    1  A    between atoms: C_1  and  C_2
REMARK    2  A    between atoms: C_5  and  C_29
REMARK    3  A    between atoms: N_8  and  C_10
REMARK    4  A    between atoms: C_10  and  C_11
REMARK    5  A    between atoms: N_13  and  C_14
REMARK    6  A    between atoms: C_18  and  S_20
REMARK    7  A    between atoms: S_20  and  N_23
REMARK                            x       y       z     vdW  Elec       q    Type
REMARK                         _______ _______ _______ _____ _____    ______ ____
ROOT
ATOM      1  C   UNL     1      -0.993   2.009   0.022  0.00  0.00    +0.035 A 
ATOM      2  C   UNL     1      -0.803   3.155   0.784  0.00  0.00    +0.023 A 
ATOM      3  C   UNL     1      -1.822   4.079   0.903  0.00  0.00    +0.004 A 
ATOM      4  C   UNL     1      -3.034   3.859   0.275  0.00  0.00    +0.029 A 
ATOM      5  C   UNL     1      -3.228   2.716  -0.479  0.00  0.00    +0.114 A 
ATOM      6  C   UNL     1      -2.211   1.791  -0.607  0.00  0.00    +0.052 A 
ENDROOT
BRANCH   1   9
ATOM      7  C   UNL     1       1.324   1.484  -0.116  0.00  0.00    +0.201 C 
ATOM      8  O   UNL     1       1.581   2.669  -0.106  0.00  0.00    -0.278 OA
ATOM      9  N   UNL     1       0.040   1.073  -0.105  0.00  0.00    -0.287 N 
ATOM     10  H   UNL     1      -0.196   0.003  -0.197  0.00  0.00    +0.155 HD
BRANCH   7  11
ATOM     11  C   UNL     1       2.439   0.470  -0.141  0.00  0.00    +0.019 C 
BRANCH  11  17
ATOM     12  C   UNL     1       5.223   3.291  -3.053  0.00  0.00    +0.005 C 
ATOM     13  C   UNL     1       5.110   2.636  -1.675  0.00  0.00    -0.031 C 
ATOM     14  C   UNL     1       6.315   1.720  -1.443  0.00  0.00    +0.003 C 
ATOM     15  C   UNL     1       6.163   1.023  -0.088  0.00  0.00    -0.031 C 
ATOM     16  C   UNL     1       4.847   0.241  -0.066  0.00  0.00    -0.075 C 
ATOM     17  N   UNL     1       3.726   1.162  -0.292  0.00  0.00    +0.386 N 
ATOM     18  C   UNL     1       3.825   1.807  -1.607  0.00  0.00    -0.075 C 
ATOM     19  C   UNL     1       7.333   0.060   0.125  0.00  0.00    +0.005 C 
ATOM     20  H   UNL     1       3.780   1.950   0.473  0.00  0.00    -0.081 HD
ENDBRANCH  11  17
ENDBRANCH   7  11
ENDBRANCH   1   9
BRANCH   5  21
ATOM     21  S   UNL     1      -4.775   2.440  -1.276  0.00  0.00    +0.100 S 
ATOM     22  O   UNL     1      -5.376   3.716  -1.449  0.00  0.00    -0.146 OA
ATOM     23  O   UNL     1      -4.519   1.565  -2.366  0.00  0.00    -0.146 OA
BRANCH  21  24
ATOM     24  N   UNL     1      -5.732   1.606  -0.214  0.00  0.00    -0.118 NA
ATOM     25  C   UNL     1      -6.935   1.271  -0.552  0.00  0.00    +0.117 C 
ATOM     26  C   UNL     1      -7.585   1.586  -1.881  0.00  0.00    +0.074 C 
ATOM     27  C   UNL     1      -8.801   0.631  -1.946  0.00  0.00    +0.026 C 
ATOM     28  C   UNL     1      -9.091   0.380  -0.450  0.00  0.00    +0.103 C 
ATOM     29  N   UNL     1      -7.812   0.584   0.240  0.00  0.00    -0.331 N 
ATOM     30  H   UNL     1      -7.671   0.199   1.261  0.00  0.00    +0.147 HD
ENDBRANCH  21  24
ENDBRANCH   5  21
TORSDOF 5
