REMARK  Name = ZINC18526683
REMARK  9 active torsions:
REMARK  status: ('A' for Active; 'I' for Inactive)
REMARK    1  A    between atoms: C_1  and  N_2
REMARK    2  A    between atoms: N_2  and  C_3
REMARK    3  A    between atoms: C_3  and  C_4
REMARK    4  A    between atoms: C_7  and  C_9
REMARK    5  A    between atoms: C_16  and  C_18
REMARK    6  A    between atoms: C_18  and  S_19
REMARK    7  A    between atoms: S_19  and  C_20
REMARK    8  A    between atoms: C_23  and  C_26
REMARK    9  A    between atoms: N_24  and  N_25
REMARK                            x       y       z     vdW  Elec       q    Type
REMARK                         _______ _______ _______ _____ _____    ______ ____
ROOT
ATOM      1  C   UNL     1      -0.021  -4.166  -5.339  0.00  0.00    +0.132 C 
ATOM      2  N   UNL     1      -0.048  -2.815  -5.904  0.00  0.00    -0.297 N 
ATOM      3  C   UNL     1      -0.051  -1.742  -5.088  0.00  0.00    +0.226 C 
ATOM      4  O   UNL     1      -0.073  -0.624  -5.556  0.00  0.00    -0.275 OA
ENDROOT
BRANCH   2   5
ATOM      5  C   UNL     1      -0.072  -2.629  -7.357  0.00  0.00    +0.181 C 
BRANCH   5   6
ATOM      6  C   UNL     1       1.340  -2.546  -7.877  0.00  0.00    +0.123 A 
ATOM      7  C   UNL     1       2.089  -3.589  -8.287  0.00  0.00    +0.047 A 
ATOM      8  C   UNL     1       3.335  -3.069  -8.690  0.00  0.00    +0.050 A 
ATOM      9  C   UNL     1       3.277  -1.723  -8.502  0.00  0.00    +0.135 A 
ATOM     10  O   UNL     1       2.059  -1.420  -8.014  0.00  0.00    -0.458 OA
BRANCH   9  11
ATOM     11  C   UNL     1       4.361  -0.760  -8.790  0.00  0.00    +0.017 A 
ATOM     12  C   UNL     1       5.581  -1.209  -9.297  0.00  0.00    +0.013 A 
ATOM     13  C   UNL     1       6.587  -0.305  -9.568  0.00  0.00    +0.021 A 
ATOM     14  C   UNL     1       6.391   1.045  -9.328  0.00  0.00    +0.041 A 
ATOM     15  C   UNL     1       5.184   1.496  -8.820  0.00  0.00    +0.021 A 
ATOM     16  C   UNL     1       4.169   0.602  -8.550  0.00  0.00    +0.013 A 
ATOM     17 CL   UNL     1       7.664   2.176  -9.665  0.00  0.00    -0.084 Cl
ENDBRANCH   9  11
ENDBRANCH   5   6
ENDBRANCH   2   5
BRANCH   3  18
ATOM     18  C   UNL     1      -0.025  -1.933  -3.593  0.00  0.00    +0.173 C 
BRANCH  18  19
ATOM     19  S   UNL     1      -0.035  -0.317  -2.779  0.00  0.00    -0.075 S 
BRANCH  19  20
ATOM     20  C   UNL     1      -0.003  -0.825  -1.092  0.00  0.00    +0.209 A 
ATOM     21  N   UNL     1       0.024  -2.062  -0.651  0.00  0.00    -0.121 NA
ATOM     22  N   UNL     1       0.036  -2.074   0.634  0.00  0.00    -0.126 NA
ATOM     23  C   UNL     1       0.024  -0.842   1.095  0.00  0.00    +0.188 A 
ATOM     24  N   UNL     1       0.002  -0.004   0.002  0.00  0.00    -0.223 N 
BRANCH  23  25
ATOM     25  C   UNL     1       0.032  -0.437   2.509  0.00  0.00    +0.058 A 
ATOM     26  C   UNL     1      -0.229  -1.190   3.626  0.00  0.00    +0.019 A 
ATOM     27  C   UNL     1      -0.155  -0.587   4.862  0.00  0.00    +0.008 A 
ATOM     28  C   UNL     1       0.160   0.732   4.937  0.00  0.00    +0.046 A 
ATOM     29  S   UNL     1       0.375   1.165   3.218  0.00  0.00    -0.093 S 
ENDBRANCH  23  25
BRANCH  24  30
ATOM     30  N   UNL     1      -0.016   1.362   0.009  0.00  0.00    -0.295 N 
ATOM     31  H   UNL     1       0.920   1.736   0.003  0.00  0.00    +0.163 HD
ATOM     32  H   UNL     1      -0.555   1.720  -0.765  0.00  0.00    +0.163 HD
ENDBRANCH  24  30
ENDBRANCH  19  20
ENDBRANCH  18  19
ENDBRANCH   3  18
TORSDOF 8
