REMARK  Name = ZINC15731134
REMARK  7 active torsions:
REMARK  status: ('A' for Active; 'I' for Inactive)
REMARK    1  A    between atoms: C_1  and  C_2
REMARK    2  A    between atoms: C_5  and  C_27
REMARK    3  A    between atoms: C_6  and  C_8
REMARK    4  A    between atoms: C_8  and  N_9
REMARK    5  A    between atoms: N_9  and  S_10
REMARK    6  A    between atoms: S_10  and  C_13
REMARK    7  A    between atoms: C_22  and  C_26
REMARK                            x       y       z     vdW  Elec       q    Type
REMARK                         _______ _______ _______ _____ _____    ______ ____
ROOT
ATOM      1  S   UNL     1      -6.002   4.409   1.749  0.00  0.00    +0.059 S 
ATOM      2  O   UNL     1      -5.950   5.828   1.697  0.00  0.00    -0.153 OA
ATOM      3  O   UNL     1      -6.400   3.620   0.636  0.00  0.00    -0.153 OA
ENDROOT
BRANCH   1   4
ATOM      4  C   UNL     1      -7.088   3.994   3.074  0.00  0.00    +0.107 A 
ATOM      5  C   UNL     1      -7.737   2.772   3.085  0.00  0.00    +0.030 A 
ATOM      6  C   UNL     1      -8.575   2.464   4.129  0.00  0.00    +0.018 A 
ATOM      7  C   UNL     1      -8.801   3.361   5.183  0.00  0.00    +0.029 A 
ATOM      8  C   UNL     1      -8.154   4.587   5.173  0.00  0.00    +0.049 A 
ATOM      9  C   UNL     1      -7.299   4.884   4.099  0.00  0.00    +0.053 A 
ATOM     10  N   UNL     1      -8.259   5.582   6.110  0.00  0.00    -0.284 N 
ATOM     11  C   UNL     1      -8.697   5.803   7.299  0.00  0.00    +0.221 C 
ATOM     12  O   UNL     1      -8.312   6.834   7.809  0.00  0.00    -0.275 OA
ATOM     13  C   UNL     1      -9.605   4.979   8.142  0.00  0.00    +0.082 C 
ATOM     14  C   UNL     1      -9.347   3.508   7.991  0.00  0.00    +0.087 C 
ATOM     15  S   UNL     1      -9.900   2.832   6.433  0.00  0.00    -0.123 S 
ATOM     16  C   UNL     1      -9.411   5.369   9.608  0.00  0.00    +0.018 C 
ATOM     17  H   UNL     1      -7.872   6.397   5.755  0.00  0.00    +0.155 HD
ENDBRANCH   1   4
BRANCH   1  18
ATOM     18  N   UNL     1      -4.488   3.895   2.178  0.00  0.00    -0.186 NA
ATOM     19  H   UNL     1      -3.778   4.541   2.320  0.00  0.00    +0.148 HD
BRANCH  18  20
ATOM     20  C   UNL     1      -4.219   2.464   2.343  0.00  0.00    +0.141 C 
BRANCH  20  26
ATOM     21  C   UNL     1      -0.013   1.086   0.008  0.00  0.00    +0.044 C 
ATOM     22  C   UNL     1      -0.718   1.572   1.248  0.00  0.00    -0.050 A 
ATOM     23  C   UNL     1       0.001   1.806   2.405  0.00  0.00    +0.003 A 
ATOM     24  C   UNL     1      -0.646   2.251   3.543  0.00  0.00    +0.004 A 
ATOM     25  C   UNL     1      -2.012   2.464   3.522  0.00  0.00    -0.046 A 
ATOM     26  C   UNL     1      -2.731   2.231   2.365  0.00  0.00    -0.029 A 
ATOM     27  C   UNL     1      -2.083   1.789   1.226  0.00  0.00    +0.008 A 
ATOM     28  C   UNL     1      -2.717   2.951   4.762  0.00  0.00    +0.044 C 
ENDBRANCH  20  26
ENDBRANCH  18  20
ENDBRANCH   1  18
TORSDOF 4
