REMARK  Name = ZINC06577572
REMARK  10 active torsions:
REMARK  status: ('A' for Active; 'I' for Inactive)
REMARK    1  A    between atoms: C_1  and  C_2
REMARK    2  A    between atoms: C_3  and  S_12
REMARK    3  A    between atoms: C_4  and  C_7
REMARK    4  A    between atoms: C_8  and  N_9
REMARK    5  A    between atoms: N_9  and  C_10
REMARK    6  A    between atoms: N_9  and  C_11
REMARK    7  A    between atoms: S_12  and  N_15
REMARK    8  A    between atoms: C_19  and  C_22
REMARK    9  A    between atoms: N_24  and  C_25
REMARK   10  A    between atoms: C_31  and  C_33
REMARK                            x       y       z     vdW  Elec       q    Type
REMARK                         _______ _______ _______ _____ _____    ______ ____
ROOT
ATOM      1  N   UNL     1       1.569  -0.084  -3.283  0.00  0.00    -0.176 NA
ATOM      2  C   UNL     1       2.270   1.193  -3.090  0.00  0.00    +0.109 C 
ATOM      3  C   UNL     1       2.860   1.639  -4.432  0.00  0.00    +0.018 C 
ATOM      4  C   UNL     1       3.737   0.519  -4.996  0.00  0.00    +0.015 C 
ATOM      5  C   UNL     1       2.885  -0.729  -5.234  0.00  0.00    +0.091 C 
ATOM      6  C   UNL     1       2.297  -1.203  -3.896  0.00  0.00    +0.122 C 
ENDROOT
BRANCH   5   7
ATOM      7  C   UNL     1       3.743  -1.820  -5.821  0.00  0.00    +0.218 C 
ATOM      8  O   UNL     1       3.869  -2.874  -5.233  0.00  0.00    -0.275 OA
ATOM      9  N   UNL     1       4.370  -1.625  -6.997  0.00  0.00    -0.312 N 
ATOM     10  H   UNL     1       4.269  -0.782  -7.467  0.00  0.00    +0.149 HD
BRANCH   9  11
ATOM     11  C   UNL     1       5.204  -2.686  -7.567  0.00  0.00    +0.076 C 
ATOM     12  C   UNL     1       6.611  -2.604  -6.972  0.00  0.00    +0.022 C 
ATOM     13  C   UNL     1       7.225  -1.241  -7.299  0.00  0.00    +0.002 C 
ATOM     14  C   UNL     1       7.303  -1.068  -8.817  0.00  0.00    +0.000 C 
ATOM     15  C   UNL     1       5.896  -1.150  -9.413  0.00  0.00    +0.005 C 
ATOM     16  C   UNL     1       5.282  -2.513  -9.086  0.00  0.00    +0.006 C 
ATOM     17  C   UNL     1       3.875  -2.595  -9.681  0.00  0.00    +0.009 C 
ENDBRANCH   9  11
ENDBRANCH   5   7
BRANCH   1  18
ATOM     18  S   UNL     1      -0.008  -0.261  -2.810  0.00  0.00    +0.066 S 
ATOM     19  O   UNL     1      -0.548  -1.321  -3.587  0.00  0.00    -0.153 OA
ATOM     20  O   UNL     1      -0.577   1.042  -2.798  0.00  0.00    -0.153 OA
BRANCH  18  23
ATOM     21  C   UNL     1      -0.018   1.503   0.010  0.00  0.00    +0.071 C 
ATOM     22  C   UNL     1       0.002  -0.004   0.002  0.00  0.00    +0.107 A 
ATOM     23  C   UNL     1       0.008  -0.819  -1.139  0.00  0.00    +0.174 A 
ATOM     24  C   UNL     1       0.028  -2.118  -0.728  0.00  0.00    +0.188 A 
ATOM     25  O   UNL     1       0.034  -2.120   0.619  0.00  0.00    -0.353 OA
ATOM     26  N   UNL     1       0.023  -0.773   1.055  0.00  0.00    -0.081 NA
BRANCH  24  27
ATOM     27  C   UNL     1       0.039  -3.304  -1.598  0.00  0.00    +0.064 C 
ATOM     28  C   UNL     1       0.058  -4.521  -1.063  0.00  0.00    +0.056 C 
BRANCH  28  29
ATOM     29  N   UNL     1       0.069  -5.648  -1.890  0.00  0.00    -0.404 NA
ATOM     30  C   UNL     1       1.281  -6.437  -1.627  0.00  0.00    +0.106 C 
ATOM     31  C   UNL     1      -1.118  -6.469  -1.616  0.00  0.00    +0.106 C 
ATOM     32  H   UNL     1       0.061  -5.357  -2.856  0.00  0.00    +0.125 HD
ENDBRANCH  28  29
ENDBRANCH  24  27
ENDBRANCH  18  23
ENDBRANCH   1  18
TORSDOF 6
