REMARK  Name = ZINC66553810
REMARK  8 active torsions:
REMARK  status: ('A' for Active; 'I' for Inactive)
REMARK    1  A    between atoms: C_1  and  C_2
REMARK    2  A    between atoms: C_3  and  C_13
REMARK    3  A    between atoms: C_5  and  C_7
REMARK    4  A    between atoms: C_13  and  N_14
REMARK    5  A    between atoms: C_15  and  C_17
REMARK    6  A    between atoms: C_17  and  N_25
REMARK    7  A    between atoms: C_18  and  C_19
REMARK    8  A    between atoms: C_26  and  C_28
REMARK                            x       y       z     vdW  Elec       q    Type
REMARK                         _______ _______ _______ _____ _____    ______ ____
ROOT
ATOM      1  N   UNL     1       1.516  -0.777  -3.510  0.00  0.00    -0.306 N 
ATOM      2  C   UNL     1       1.659   0.024  -4.585  0.00  0.00    +0.259 C 
ATOM      3  O   UNL     1       0.684   0.346  -5.237  0.00  0.00    -0.269 OA
ATOM      4  H   UNL     1       2.294  -1.034  -2.990  0.00  0.00    +0.149 HD
ENDROOT
BRANCH   2   5
ATOM      5  C   UNL     1       2.993   0.509  -4.968  0.00  0.00    +0.096 C 
ATOM      6  C   UNL     1       3.136   1.313  -6.046  0.00  0.00    +0.036 C 
BRANCH   6   7
ATOM      7  C   UNL     1       4.481   1.672  -6.523  0.00  0.00    -0.023 A 
ATOM      8  C   UNL     1       5.585   0.892  -6.165  0.00  0.00    +0.008 A 
ATOM      9  C   UNL     1       6.843   1.234  -6.616  0.00  0.00    +0.001 A 
ATOM     10  C   UNL     1       7.013   2.347  -7.421  0.00  0.00    +0.000 A 
ATOM     11  C   UNL     1       5.926   3.124  -7.780  0.00  0.00    +0.001 A 
ATOM     12  C   UNL     1       4.661   2.792  -7.341  0.00  0.00    +0.008 A 
ENDBRANCH   6   7
BRANCH   5  13
ATOM     13  N   UNL     1       4.114   0.139  -4.218  0.00  0.00    -0.282 N 
ATOM     14  C   UNL     1       4.417  -1.165  -4.057  0.00  0.00    +0.214 C 
ATOM     15  O   UNL     1       3.659  -2.018  -4.468  0.00  0.00    -0.276 OA
ATOM     16  C   UNL     1       5.696  -1.562  -3.365  0.00  0.00    +0.109 C 
ATOM     17  H   UNL     1       4.674   0.820  -3.814  0.00  0.00    +0.155 HD
ENDBRANCH   5  13
ENDBRANCH   2   5
BRANCH   1  18
ATOM     18  C   UNL     1       0.187  -1.260  -3.128  0.00  0.00    +0.149 C 
BRANCH  18  21
ATOM     19  C   UNL     1       0.023  -0.354  -0.189  0.00  0.00    +0.066 C 
ATOM     20  C   UNL     1       0.238  -1.791  -0.588  0.00  0.00    +0.051 A 
ATOM     21  C   UNL     1       0.302  -2.130  -1.903  0.00  0.00    +0.030 A 
ATOM     22  S   UNL     1       0.560  -3.896  -1.776  0.00  0.00    -0.070 S 
ATOM     23  C   UNL     1       0.554  -3.989   0.009  0.00  0.00    +0.109 A 
ATOM     24  N   UNL     1       0.369  -2.717   0.333  0.00  0.00    -0.244 NA
BRANCH  23  25
ATOM     25  C   UNL     1       0.717  -5.167   0.888  0.00  0.00    +0.007 A 
ATOM     26  C   UNL     1       0.914  -6.432   0.334  0.00  0.00    +0.010 A 
ATOM     27  C   UNL     1       1.065  -7.527   1.159  0.00  0.00    +0.001 A 
ATOM     28  C   UNL     1       1.021  -7.373   2.534  0.00  0.00    +0.000 A 
ATOM     29  C   UNL     1       0.826  -6.121   3.089  0.00  0.00    +0.001 A 
ATOM     30  C   UNL     1       0.680  -5.017   2.275  0.00  0.00    +0.010 A 
ENDBRANCH  23  25
ENDBRANCH  18  21
ENDBRANCH   1  18
TORSDOF 6
