REMARK  Name = ZINC13639987
REMARK  7 active torsions:
REMARK  status: ('A' for Active; 'I' for Inactive)
REMARK    1  A    between atoms: C_4  and  C_7
REMARK    2  A    between atoms: C_7  and  N_8
REMARK    3  A    between atoms: N_8  and  S_9
REMARK    4  A    between atoms: S_9  and  C_12
REMARK    5  A    between atoms: C_25  and  C_28
REMARK    6  A    between atoms: C_31  and  O_35
REMARK    7  A    between atoms: C_33  and  O_34
REMARK                            x       y       z     vdW  Elec       q    Type
REMARK                         _______ _______ _______ _____ _____    ______ ____
ROOT
ATOM      1  C   UNL     1       3.393  -6.711   0.359  0.00  0.00    +0.106 A 
ATOM      2  C   UNL     1       3.931  -5.943   1.375  0.00  0.00    +0.030 A 
ATOM      3  C   UNL     1       3.611  -4.603   1.464  0.00  0.00    +0.025 A 
ATOM      4  C   UNL     1       2.751  -4.031   0.534  0.00  0.00    +0.031 A 
ATOM      5  C   UNL     1       2.210  -4.797  -0.487  0.00  0.00    -0.018 A 
ATOM      6  C   UNL     1       2.539  -6.143  -0.565  0.00  0.00    +0.034 A 
ATOM      7  C   UNL     1       1.282  -4.225  -1.511  0.00  0.00    +0.049 C 
ATOM      8  C   UNL     1      -0.146  -4.649  -1.258  0.00  0.00    -0.023 C 
ATOM      9  C   UNL     1      -0.969  -3.674  -1.556  0.00  0.00    -0.030 C 
ATOM     10  C   UNL     1      -0.202  -2.465  -2.054  0.00  0.00    +0.033 C 
ATOM     11  C   UNL     1       1.227  -2.685  -1.484  0.00  0.00    +0.029 C 
ATOM     12  C   UNL     1       1.225  -2.187  -0.036  0.00  0.00    +0.108 C 
ATOM     13  N   UNL     1       2.434  -2.672   0.638  0.00  0.00    -0.336 N 
ATOM     14  H   UNL     1       3.000  -2.067   1.142  0.00  0.00    +0.147 HD
ENDROOT
BRANCH  12  15
ATOM     15  C   UNL     1       1.209  -0.680  -0.020  0.00  0.00    +0.015 A 
ATOM     16  C   UNL     1       0.057  -0.006   0.336  0.00  0.00    +0.012 A 
ATOM     17  C   UNL     1       0.039   1.376   0.351  0.00  0.00    +0.046 A 
ATOM     18  C   UNL     1       1.179   2.089   0.009  0.00  0.00    +0.120 A 
ATOM     19  C   UNL     1       2.336   1.415  -0.349  0.00  0.00    +0.091 A 
ATOM     20  C   UNL     1       2.351   0.029  -0.364  0.00  0.00    +0.125 A 
BRANCH  20  21
ATOM     21  O   UNL     1       3.484  -0.635  -0.714  0.00  0.00    -0.506 OA
ATOM     22  H   UNL     1       4.107  -0.761   0.015  0.00  0.00    +0.292 HD
ENDBRANCH  20  21
BRANCH  18  23
ATOM     23  O   UNL     1       1.161   3.448   0.025  0.00  0.00    -0.507 OA
ATOM     24  H   UNL     1       0.897   3.848  -0.816  0.00  0.00    +0.292 HD
ENDBRANCH  18  23
ENDBRANCH  12  15
BRANCH   1  25
ATOM     25  S   UNL     1       3.797  -8.422   0.244  0.00  0.00    +0.059 S 
ATOM     26  O   UNL     1       4.185  -8.836   1.546  0.00  0.00    -0.153 OA
ATOM     27  O   UNL     1       2.737  -9.043  -0.469  0.00  0.00    -0.153 OA
BRANCH  25  28
ATOM     28  N   UNL     1       5.145  -8.543  -0.712  0.00  0.00    -0.186 NA
ATOM     29  H   UNL     1       5.093  -8.994  -1.569  0.00  0.00    +0.148 HD
BRANCH  28  30
ATOM     30  C   UNL     1       6.415  -7.968  -0.262  0.00  0.00    +0.141 C 
BRANCH  30  34
ATOM     31  C   UNL     1       9.603  -9.521  -2.645  0.00  0.00    +0.000 A 
ATOM     32  C   UNL     1       8.950  -8.365  -3.032  0.00  0.00    +0.000 A 
ATOM     33  C   UNL     1       7.919  -7.862  -2.261  0.00  0.00    +0.005 A 
ATOM     34  C   UNL     1       7.540  -8.516  -1.103  0.00  0.00    -0.032 A 
ATOM     35  C   UNL     1       8.195  -9.669  -0.714  0.00  0.00    +0.005 A 
ATOM     36  C   UNL     1       9.224 -10.174  -1.487  0.00  0.00    +0.000 A 
ENDBRANCH  30  34
ENDBRANCH  28  30
ENDBRANCH  25  28
ENDBRANCH   1  25
TORSDOF 7
