REMARK  Name = ZINC67382924
REMARK  5 active torsions:
REMARK  status: ('A' for Active; 'I' for Inactive)
REMARK    1  A    between atoms: C_1  and  C_2
REMARK    2  A    between atoms: N_4  and  C_5
REMARK    3  A    between atoms: C_5  and  C_6
REMARK    4  A    between atoms: N_11  and  C_13
REMARK    5  A    between atoms: C_13  and  N_14
REMARK                            x       y       z     vdW  Elec       q    Type
REMARK                         _______ _______ _______ _____ _____    ______ ____
ROOT
ATOM      1  N   UNL     1      -0.402  -6.578  -5.405  0.00  0.00    -0.280 N 
ATOM      2  C   UNL     1      -1.593  -6.685  -6.070  0.00  0.00    +0.068 A 
ATOM      3  C   UNL     1      -2.954  -6.472  -5.871  0.00  0.00    +0.028 A 
ATOM      4  C   UNL     1      -3.845  -6.736  -6.897  0.00  0.00    +0.003 A 
ATOM      5  C   UNL     1      -3.453  -7.211  -8.143  0.00  0.00    +0.012 A 
ATOM      6  C   UNL     1      -2.099  -7.434  -8.373  0.00  0.00    +0.034 A 
ATOM      7  C   UNL     1      -1.232  -7.160  -7.324  0.00  0.00    +0.038 A 
ATOM      8  C   UNL     1       0.210  -7.321  -7.345  0.00  0.00    +0.102 A 
ATOM      9  N   UNL     1       0.597  -6.940  -6.153  0.00  0.00    -0.172 NA
ATOM     10  C   UNL     1       0.796  -7.823  -8.601  0.00  0.00    +0.014 A 
ATOM     11  C   UNL     1       2.171  -8.012  -8.716  0.00  0.00    +0.011 A 
ATOM     12  C   UNL     1       2.707  -8.481  -9.896  0.00  0.00    +0.001 A 
ATOM     13  C   UNL     1       1.884  -8.767 -10.975  0.00  0.00    +0.001 A 
ATOM     14  C   UNL     1       0.523  -8.589 -10.884  0.00  0.00    +0.012 A 
ATOM     15  C   UNL     1      -0.046  -8.114  -9.697  0.00  0.00    +0.032 A 
ATOM     16  C   UNL     1      -1.513  -7.931  -9.625  0.00  0.00    +0.194 C 
ATOM     17  O   UNL     1      -2.219  -8.189 -10.583  0.00  0.00    -0.287 OA
ENDROOT
BRANCH   1  18
ATOM     18  C   UNL     1      -0.269  -6.109  -4.024  0.00  0.00    +0.069 C 
BRANCH  18  23
ATOM     19  C   UNL     1       0.013  -2.639  -2.622  0.00  0.00    -0.010 C 
ATOM     20  C   UNL     1       1.310  -2.214  -3.317  0.00  0.00    +0.001 C 
ATOM     21  C   UNL     1       1.328  -2.788  -4.737  0.00  0.00    -0.018 C 
ATOM     22  C   UNL     1       1.178  -4.309  -4.668  0.00  0.00    -0.076 C 
ATOM     23  N   UNL     1      -0.093  -4.650  -4.018  0.00  0.00    +0.393 N 
ATOM     24  C   UNL     1      -0.090  -4.165  -2.632  0.00  0.00    -0.071 C 
ATOM     25  H   UNL     1      -0.854  -4.219  -4.521  0.00  0.00    -0.079 HD
BRANCH  19  26
ATOM     26  C   UNL     1       0.020  -2.136  -1.177  0.00  0.00    +0.105 C 
BRANCH  26  30
ATOM     27  C   UNL     1      -0.018   1.503   0.010  0.00  0.00    +0.109 C 
ATOM     28  C   UNL     1       0.002  -0.004   0.002  0.00  0.00    +0.210 C 
ATOM     29  O   UNL     1       0.020  -0.616   1.049  0.00  0.00    -0.276 OA
ATOM     30  N   UNL     1       0.000  -0.672  -1.169  0.00  0.00    -0.315 N 
ATOM     31  H   UNL     1      -0.015  -0.182  -2.006  0.00  0.00    +0.149 HD
ENDBRANCH  26  30
ENDBRANCH  19  26
ENDBRANCH  18  23
ENDBRANCH   1  18
TORSDOF 4
