REMARK  Name = ZINC09944569
REMARK  10 active torsions:
REMARK  status: ('A' for Active; 'I' for Inactive)
REMARK    1  A    between atoms: C_1  and  C_2
REMARK    2  A    between atoms: C_2  and  C_3
REMARK    3  A    between atoms: C_2  and  C_4
REMARK    4  A    between atoms: C_2  and  C_5
REMARK    5  A    between atoms: C_12  and  C_14
REMARK    6  A    between atoms: C_17  and  S_22
REMARK    7  A    between atoms: N_18  and  C_19
REMARK    8  A    between atoms: C_19  and  C_20
REMARK    9  A    between atoms: S_22  and  C_23
REMARK   10  A    between atoms: C_23  and  C_24
REMARK                            x       y       z     vdW  Elec       q    Type
REMARK                         _______ _______ _______ _____ _____    ______ ____
ROOT
ATOM      1  C   UNL     1      -3.188   0.680  -2.404  0.00  0.00    +0.172 A 
ATOM      2  N   UNL     1      -4.044   1.311  -3.177  0.00  0.00    -0.128 NA
ATOM      3  N   UNL     1      -4.608   2.262  -2.522  0.00  0.00    -0.122 NA
ATOM      4  C   UNL     1      -4.153   2.295  -1.290  0.00  0.00    +0.193 A 
ATOM      5  N   UNL     1      -3.229   1.294  -1.172  0.00  0.00    -0.298 N 
ENDROOT
BRANCH   1  12
ATOM      6  C   UNL     1      -0.773  -4.537  -4.874  0.00  0.00    -0.001 C 
ATOM      7  C   UNL     1       0.630  -4.142  -4.405  0.00  0.00    +0.009 C 
ATOM      8  C   UNL     1       0.519  -3.475  -3.026  0.00  0.00    +0.043 C 
ATOM      9  C   UNL     1      -0.574  -2.456  -3.084  0.00  0.00    -0.006 A 
ATOM     10  C   UNL     1      -1.536  -2.324  -4.041  0.00  0.00    -0.036 A 
ATOM     11  C   UNL     1      -2.450  -1.293  -3.869  0.00  0.00    +0.023 A 
ATOM     12  C   UNL     1      -2.346  -0.466  -2.783  0.00  0.00    +0.057 A 
ATOM     13  S   UNL     1      -0.924  -1.147  -1.941  0.00  0.00    -0.090 S 
ATOM     14  C   UNL     1      -1.579  -3.286  -5.226  0.00  0.00    +0.040 C 
BRANCH   6  16
ATOM     15  C   UNL     1       0.044  -4.668  -7.232  0.00  0.00    +0.011 C 
ATOM     16  C   UNL     1      -0.662  -5.433  -6.110  0.00  0.00    -0.035 C 
ATOM     17  C   UNL     1       0.144  -6.685  -5.761  0.00  0.00    +0.011 C 
ATOM     18  C   UNL     1      -2.062  -5.840  -6.572  0.00  0.00    +0.011 C 
ENDBRANCH   6  16
ENDBRANCH   1  12
BRANCH   5  19
ATOM     19  C   UNL     1      -2.451   0.944   0.019  0.00  0.00    +0.152 C 
BRANCH  19  20
ATOM     20  C   UNL     1      -1.156   1.715   0.017  0.00  0.00    -0.013 C 
ATOM     21  C   UNL     1      -0.013   1.076   0.008  0.00  0.00    +0.005 C 
ENDBRANCH  19  20
ENDBRANCH   5  19
BRANCH   4  22
ATOM     22  S   UNL     1      -4.639   3.423  -0.027  0.00  0.00    -0.077 S 
BRANCH  22  23
ATOM     23  C   UNL     1      -5.859   4.405  -0.935  0.00  0.00    +0.173 C 
BRANCH  23  24
ATOM     24  C   UNL     1      -6.427   5.465  -0.027  0.00  0.00    +0.231 C 
ATOM     25  O   UNL     1      -6.045   5.548   1.121  0.00  0.00    -0.274 OA
ATOM     26  N   UNL     1      -7.360   6.320  -0.490  0.00  0.00    -0.240 N 
ATOM     27  C   UNL     1      -7.868   7.268   0.322  0.00  0.00    +0.303 C 
ATOM     28  O   UNL     1      -7.485   7.352   1.472  0.00  0.00    -0.253 OA
ATOM     29  N   UNL     1      -8.801   8.123  -0.142  0.00  0.00    -0.313 N 
ATOM     30  H   UNL     1      -7.666   6.253  -1.409  0.00  0.00    +0.159 HD
ATOM     31  H   UNL     1      -9.107   8.057  -1.060  0.00  0.00    +0.146 HD
ATOM     32  H   UNL     1      -9.166   8.806   0.443  0.00  0.00    +0.146 HD
ENDBRANCH  23  24
ENDBRANCH  22  23
ENDBRANCH   4  22
TORSDOF 7
