REMARK  Name = ZINC55682487
REMARK  5 active torsions:
REMARK  status: ('A' for Active; 'I' for Inactive)
REMARK    1  A    between atoms: C_1  and  O_2
REMARK    2  A    between atoms: O_2  and  C_3
REMARK    3  A    between atoms: C_6  and  N_10
REMARK    4  A    between atoms: N_10  and  S_11
REMARK    5  A    between atoms: S_11  and  C_14
REMARK                            x       y       z     vdW  Elec       q    Type
REMARK                         _______ _______ _______ _____ _____    ______ ____
ROOT
ATOM      1  S   UNL     1      -6.018  -2.050  -1.057  0.00  0.00    +0.072 S 
ATOM      2  O   UNL     1      -7.175  -2.853  -0.866  0.00  0.00    -0.150 OA
ATOM      3  O   UNL     1      -6.048  -0.633  -0.955  0.00  0.00    -0.150 OA
ENDROOT
BRANCH   1   4
ATOM      4  C   UNL     1      -5.403  -2.427  -2.664  0.00  0.00    +0.109 A 
ATOM      5  C   UNL     1      -4.530  -1.556  -3.291  0.00  0.00    +0.030 A 
ATOM      6  C   UNL     1      -4.046  -1.848  -4.551  0.00  0.00    +0.025 A 
ATOM      7  C   UNL     1      -4.437  -3.018  -5.189  0.00  0.00    +0.037 A 
ATOM      8  C   UNL     1      -5.314  -3.890  -4.557  0.00  0.00    -0.024 A 
ATOM      9  C   UNL     1      -5.791  -3.595  -3.295  0.00  0.00    +0.034 A 
ATOM     10  C   UNL     1      -5.738  -5.159  -5.249  0.00  0.00    +0.046 C 
ATOM     11  C   UNL     1      -5.827  -4.915  -6.756  0.00  0.00    +0.101 C 
ATOM     12  C   UNL     1      -4.580  -4.224  -7.238  0.00  0.00    +0.218 C 
ATOM     13  O   UNL     1      -4.136  -4.485  -8.336  0.00  0.00    -0.275 OA
ATOM     14  N   UNL     1      -3.951  -3.320  -6.464  0.00  0.00    -0.285 N 
ATOM     15  H   UNL     1      -3.155  -2.875  -6.794  0.00  0.00    +0.155 HD
ENDBRANCH   1   4
BRANCH   1  16
ATOM     16  N   UNL     1      -4.890  -2.579   0.035  0.00  0.00    -0.216 N 
ATOM     17  H   UNL     1      -4.455  -1.946   0.627  0.00  0.00    +0.174 HD
BRANCH  16  21
ATOM     18  C   UNL     1      -3.922  -6.630   0.238  0.00  0.00    +0.190 A 
ATOM     19  C   UNL     1      -2.914  -5.676   0.225  0.00  0.00    +0.169 A 
ATOM     20  C   UNL     1      -3.235  -4.332   0.158  0.00  0.00    +0.066 A 
ATOM     21  C   UNL     1      -4.565  -3.938   0.102  0.00  0.00    +0.054 A 
ATOM     22  C   UNL     1      -5.573  -4.893   0.115  0.00  0.00    +0.066 A 
ATOM     23  C   UNL     1      -5.252  -6.237   0.177  0.00  0.00    +0.169 A 
ATOM     24  F   UNL     1      -6.232  -7.166   0.185  0.00  0.00    -0.201 F 
ATOM     25  F   UNL     1      -1.620  -6.059   0.278  0.00  0.00    -0.201 F 
BRANCH  18  27
ATOM     26  C   UNL     1      -3.414  -8.637  -0.936  0.00  0.00    +0.277 C 
ATOM     27  O   UNL     1      -3.606  -7.953   0.304  0.00  0.00    -0.490 OA
ENDBRANCH  18  27
ENDBRANCH  16  21
ENDBRANCH   1  16
TORSDOF 4
