REMARK  Name = ZINC04849735
REMARK  5 active torsions:
REMARK  status: ('A' for Active; 'I' for Inactive)
REMARK    1  A    between atoms: C_6  and  C_7
REMARK    2  A    between atoms: C_7  and  C_9
REMARK    3  A    between atoms: C_7  and  N_55
REMARK    4  A    between atoms: N_13  and  C_14
REMARK    5  A    between atoms: C_22  and  C_25
REMARK                            x       y       z     vdW  Elec       q    Type
REMARK                         _______ _______ _______ _____ _____    ______ ____
ROOT
ATOM      1  C   UNL     1      -1.332   2.114   0.020  0.00  0.00    +0.033 C 
ENDROOT
BRANCH   1   7
ATOM      2  C   UNL     1       1.135   2.131  -0.403  0.00  0.00    +0.004 A 
ATOM      3  C   UNL     1       2.321   1.485  -0.694  0.00  0.00    +0.020 A 
ATOM      4  C   UNL     1       2.336   0.113  -0.873  0.00  0.00    +0.041 A 
ATOM      5  C   UNL     1       1.162  -0.611  -0.761  0.00  0.00    +0.020 A 
ATOM      6  C   UNL     1      -0.024   0.037  -0.470  0.00  0.00    +0.004 A 
ATOM      7  C   UNL     1      -0.037   1.407  -0.291  0.00  0.00    -0.054 A 
ATOM      8 CL   UNL     1       3.826  -0.699  -1.238  0.00  0.00    -0.084 Cl
ENDBRANCH   1   7
BRANCH   1  14
ATOM      9  C   UNL     1      -0.646   2.370   2.327  0.00  0.00    -0.077 C 
ATOM     10  C   UNL     1      -0.298   3.400   3.405  0.00  0.00    -0.006 C 
ATOM     11  C   UNL     1      -1.542   4.233   3.727  0.00  0.00    +0.071 C 
ATOM     12  C   UNL     1      -2.043   4.904   2.446  0.00  0.00    -0.006 C 
ATOM     13  C   UNL     1      -2.341   3.831   1.396  0.00  0.00    -0.077 C 
ATOM     14  N   UNL     1      -1.099   3.080   1.113  0.00  0.00    +0.389 N 
ATOM     15  H   UNL     1      -0.369   3.742   0.822  0.00  0.00    -0.080 HD
BRANCH  11  16
ATOM     16  C   UNL     1      -1.192   5.289   4.745  0.00  0.00    +0.213 C 
ATOM     17  O   UNL     1      -1.330   6.462   4.473  0.00  0.00    -0.276 OA
ATOM     18  N   UNL     1      -0.726   4.928   5.957  0.00  0.00    -0.329 N 
ATOM     19  H   UNL     1      -0.616   3.989   6.174  0.00  0.00    +0.145 HD
ATOM     20  H   UNL     1      -0.501   5.607   6.612  0.00  0.00    +0.145 HD
ENDBRANCH  11  16
ENDBRANCH   1  14
BRANCH   1  21
ATOM     21  C   UNL     1      -1.803   2.860  -1.202  0.00  0.00    +0.143 A 
ATOM     22  N   UNL     1      -1.303   3.974  -1.679  0.00  0.00    -0.115 NA
ATOM     23  N   UNL     1      -1.976   4.293  -2.731  0.00  0.00    -0.023 NA
ATOM     24  N   UNL     1      -2.896   3.416  -2.932  0.00  0.00    -0.044 NA
ATOM     25  N   UNL     1      -2.822   2.516  -2.010  0.00  0.00    -0.227 N 
BRANCH  25  26
ATOM     26  C   UNL     1      -3.686   1.341  -1.870  0.00  0.00    +0.111 C 
ATOM     27  C   UNL     1      -3.565   0.467  -3.120  0.00  0.00    +0.027 C 
ATOM     28  C   UNL     1      -4.467  -0.760  -2.974  0.00  0.00    +0.002 C 
ATOM     29  C   UNL     1      -5.919  -0.309  -2.805  0.00  0.00    +0.000 C 
ATOM     30  C   UNL     1      -6.040   0.565  -1.555  0.00  0.00    +0.002 C 
ATOM     31  C   UNL     1      -5.138   1.792  -1.702  0.00  0.00    +0.027 C 
ENDBRANCH  25  26
ENDBRANCH   1  21
TORSDOF 5
