REMARK  Name = ZINC52888443
REMARK  5 active torsions:
REMARK  status: ('A' for Active; 'I' for Inactive)
REMARK    1  A    between atoms: C_3  and  C_20
REMARK    2  A    between atoms: C_6  and  C_7
REMARK    3  A    between atoms: C_9  and  C_12
REMARK    4  A    between atoms: C_12  and  S_13
REMARK    5  A    between atoms: S_13  and  C_14
REMARK                            x       y       z     vdW  Elec       q    Type
REMARK                         _______ _______ _______ _____ _____    ______ ____
ROOT
ATOM      1  C   UNL     1      -1.267  -0.760   0.011  0.00  0.00    +0.109 A 
ATOM      2  N   UNL     1      -1.466  -2.071   0.011  0.00  0.00    -0.243 NA
ATOM      3  C   UNL     1      -2.675  -2.577   0.019  0.00  0.00    +0.059 A 
ATOM      4  C   UNL     1      -3.756  -1.750   0.028  0.00  0.00    +0.071 A 
ATOM      5  S   UNL     1      -2.949  -0.153   0.031  0.00  0.00    -0.075 S 
ENDROOT
BRANCH   1  11
ATOM      6  C   UNL     1      -0.017   1.393   0.010  0.00  0.00    +0.011 A 
ATOM      7  C   UNL     1       1.165   2.097   0.002  0.00  0.00    +0.014 A 
ATOM      8  C   UNL     1       2.385   1.415  -0.013  0.00  0.00    +0.037 A 
ATOM      9  C   UNL     1       2.404   0.018  -0.021  0.00  0.00    +0.014 A 
ATOM     10  C   UNL     1       1.221  -0.686  -0.013  0.00  0.00    +0.011 A 
ATOM     11  C   UNL     1       0.002  -0.004   0.002  0.00  0.00    +0.007 A 
BRANCH   8  12
ATOM     12  C   UNL     1       3.654   2.171  -0.022  0.00  0.00    +0.242 C 
ATOM     13  O   UNL     1       3.637   3.386  -0.015  0.00  0.00    -0.270 OA
ATOM     14  N   UNL     1       4.830   1.513  -0.036  0.00  0.00    -0.325 N 
ATOM     15  H   UNL     1       4.843   0.543  -0.042  0.00  0.00    +0.145 HD
ATOM     16  H   UNL     1       5.663   2.009  -0.042  0.00  0.00    +0.145 HD
ENDBRANCH   8  12
ENDBRANCH   1  11
BRANCH   3  17
ATOM     17  C   UNL     1      -2.868  -4.072   0.019  0.00  0.00    +0.132 C 
BRANCH  17  18
ATOM     18  S   UNL     1      -2.934  -4.673   1.729  0.00  0.00    -0.091 S 
BRANCH  18  19
ATOM     19  C   UNL     1      -3.160  -6.412   1.561  0.00  0.00    +0.160 A 
ATOM     20  N   UNL     1      -3.256  -7.141   0.465  0.00  0.00    -0.133 NA
ATOM     21  N   UNL     1      -3.432  -8.502   0.561  0.00  0.00    -0.125 NA
ATOM     22  C   UNL     1      -3.504  -9.072   1.748  0.00  0.00    +0.180 A 
ATOM     23  S   UNL     1      -3.312  -7.662   2.828  0.00  0.00    -0.025 S 
ATOM     24  N   UNL     1      -3.677 -10.412   2.072  0.00  0.00    -0.336 N 
ATOM     25  H   UNL     1      -3.764 -11.074   1.368  0.00  0.00    +0.144 HD
ATOM     26  H   UNL     1      -3.712 -10.686   3.002  0.00  0.00    +0.144 HD
ENDBRANCH  18  19
ENDBRANCH  17  18
ENDBRANCH   3  17
TORSDOF 5
