REMARK  Name = ZINC39665120
REMARK  8 active torsions:
REMARK  status: ('A' for Active; 'I' for Inactive)
REMARK    1  A    between atoms: C_1  and  C_2
REMARK    2  A    between atoms: C_2  and  C_4
REMARK    3  A    between atoms: C_2  and  O_32
REMARK    4  A    between atoms: C_4  and  N_5
REMARK    5  A    between atoms: C_6  and  C_8
REMARK    6  A    between atoms: C_19  and  C_21
REMARK    7  A    between atoms: C_25  and  C_27
REMARK    8  A    between atoms: O_32  and  C_33
REMARK                            x       y       z     vdW  Elec       q    Type
REMARK                         _______ _______ _______ _____ _____    ______ ____
ROOT
ATOM      1  C   UNL     1       0.910  -3.874  -2.329  0.00  0.00    +0.100 C 
ATOM      2  C   UNL     1       1.524  -4.497  -1.055  0.00  0.00    +0.121 C 
ATOM      3  N   UNL     1       2.185  -5.737  -1.526  0.00  0.00    -0.296 N 
ATOM      4  C   UNL     1       2.791  -5.360  -2.826  0.00  0.00    +0.115 C 
ATOM      5  C   UNL     1       1.745  -4.442  -3.488  0.00  0.00    -0.004 C 
ATOM      6  C   UNL     1       2.438  -3.312  -4.244  0.00  0.00    -0.010 C 
ATOM      7  C   UNL     1       3.214  -3.896  -5.427  0.00  0.00    -0.082 C 
ATOM      8  N   UNL     1       2.291  -4.611  -6.316  0.00  0.00    +0.379 N 
ATOM      9  C   UNL     1       1.699  -5.753  -5.609  0.00  0.00    -0.082 C 
ATOM     10  C   UNL     1       0.858  -5.247  -4.433  0.00  0.00    -0.010 C 
ATOM     11  C   UNL     1       2.226  -6.936  -0.912  0.00  0.00    +0.247 C 
ATOM     12  O   UNL     1       1.586  -7.121   0.104  0.00  0.00    -0.270 OA
ATOM     13  H   UNL     1       1.558  -3.984  -6.612  0.00  0.00    -0.086 HD
ATOM     14  H   UNL     1       2.794  -4.942  -7.125  0.00  0.00    -0.086 HD
ENDROOT
BRANCH  11  15
ATOM     15  C   UNL     1       3.050  -8.026  -1.475  0.00  0.00    +0.038 A 
ATOM     16  C   UNL     1       4.150  -7.728  -2.282  0.00  0.00    +0.016 A 
ATOM     17  C   UNL     1       4.915  -8.748  -2.804  0.00  0.00    +0.039 A 
ATOM     18  C   UNL     1       4.594 -10.069  -2.529  0.00  0.00    +0.135 A 
ATOM     19  C   UNL     1       3.503 -10.370  -1.728  0.00  0.00    +0.091 A 
ATOM     20  C   UNL     1       2.735  -9.357  -1.196  0.00  0.00    +0.028 A 
ATOM     21  F   UNL     1       5.347 -11.066  -3.044  0.00  0.00    -0.205 F 
BRANCH  19  22
ATOM     22  C   UNL     1       3.161 -11.808  -1.434  0.00  0.00    +0.420 C 
ATOM     23  F   UNL     1       2.030 -11.859  -0.612  0.00  0.00    -0.166 F 
ATOM     24  F   UNL     1       2.896 -12.479  -2.633  0.00  0.00    -0.166 F 
ATOM     25  F   UNL     1       4.237 -12.421  -0.785  0.00  0.00    -0.166 F 
ENDBRANCH  19  22
ENDBRANCH  11  15
BRANCH   1  27
ATOM     26  N   UNL     1       0.096  -1.607  -2.893  0.00  0.00    -0.312 N 
ATOM     27  C   UNL     1       1.025  -2.372  -2.285  0.00  0.00    +0.218 C 
ATOM     28  O   UNL     1       1.953  -1.851  -1.704  0.00  0.00    -0.275 OA
ATOM     29  H   UNL     1      -0.647  -2.024  -3.357  0.00  0.00    +0.149 HD
BRANCH  26  30
ATOM     30  C   UNL     1       0.207  -0.147  -2.851  0.00  0.00    +0.148 C 
BRANCH  30  32
ATOM     31  C   UNL     1      -0.783   1.994  -3.674  0.00  0.00    +0.053 C 
ATOM     32  C   UNL     1      -0.966   0.476  -3.610  0.00  0.00    +0.187 C 
BRANCH  32  33
ATOM     33  O   UNL     1      -2.187   0.171  -2.934  0.00  0.00    -0.488 OA
BRANCH  33  34
ATOM     34  C   UNL     1      -3.323   0.175  -3.680  0.00  0.00    +0.121 A 
ATOM     35  C   UNL     1      -3.252   0.362  -5.053  0.00  0.00    +0.045 A 
ATOM     36  C   UNL     1      -4.408   0.366  -5.809  0.00  0.00    +0.004 A 
ATOM     37  C   UNL     1      -5.635   0.183  -5.199  0.00  0.00    +0.000 A 
ATOM     38  C   UNL     1      -5.709  -0.003  -3.831  0.00  0.00    +0.004 A 
ATOM     39  C   UNL     1      -4.555  -0.013  -3.071  0.00  0.00    +0.045 A 
ENDBRANCH  33  34
ENDBRANCH  32  33
ENDBRANCH  30  32
ENDBRANCH  26  30
ENDBRANCH   1  27
TORSDOF 7
