REMARK  Name = ZINC39659728
REMARK  6 active torsions:
REMARK  status: ('A' for Active; 'I' for Inactive)
REMARK    1  A    between atoms: C_1  and  C_2
REMARK    2  A    between atoms: C_2  and  C_3
REMARK    3  A    between atoms: C_3  and  C_4
REMARK    4  A    between atoms: C_4  and  C_5
REMARK    5  A    between atoms: C_9  and  C_18
REMARK    6  A    between atoms: N_20  and  C_21
REMARK                            x       y       z     vdW  Elec       q    Type
REMARK                         _______ _______ _______ _____ _____    ______ ____
ROOT
ATOM      1  C   UNL     1       1.227  -2.580   2.243  0.00  0.00    +0.216 C 
ATOM      2  O   UNL     1       1.614  -1.714   2.998  0.00  0.00    -0.276 OA
ATOM      3  N   UNL     1       1.465  -3.876   2.526  0.00  0.00    -0.300 N 
ATOM      4  C   UNL     1       1.081  -5.066   1.730  0.00  0.00    +0.121 C 
ATOM      5  C   UNL     1       2.293  -6.018   1.840  0.00  0.00    +0.100 C 
ATOM      6  C   UNL     1       3.003  -5.600   3.138  0.00  0.00    -0.004 C 
ATOM      7  C   UNL     1       2.178  -4.434   3.701  0.00  0.00    +0.115 C 
ATOM      8  C   UNL     1       4.425  -5.134   2.836  0.00  0.00    -0.010 C 
ATOM      9  C   UNL     1       5.130  -4.778   4.148  0.00  0.00    -0.082 C 
ATOM     10  N   UNL     1       5.155  -5.953   5.027  0.00  0.00    +0.379 N 
ATOM     11  C   UNL     1       3.785  -6.338   5.387  0.00  0.00    -0.082 C 
ATOM     12  C   UNL     1       3.023  -6.760   4.128  0.00  0.00    -0.010 C 
ATOM     13  H   UNL     1       5.603  -6.720   4.548  0.00  0.00    -0.086 HD
ATOM     14  H   UNL     1       5.673  -5.734   5.864  0.00  0.00    -0.086 HD
ENDROOT
BRANCH   5  15
ATOM     15  C   UNL     1       3.209  -5.840   0.657  0.00  0.00    +0.218 C 
ATOM     16  O   UNL     1       3.295  -4.760   0.113  0.00  0.00    -0.275 OA
ATOM     17  N   UNL     1       3.933  -6.883   0.203  0.00  0.00    -0.312 N 
ATOM     18  H   UNL     1       3.864  -7.747   0.638  0.00  0.00    +0.149 HD
BRANCH  17  19
ATOM     19  C   UNL     1       4.824  -6.710  -0.948  0.00  0.00    +0.073 C 
ATOM     20  C   UNL     1       6.173  -6.168  -0.471  0.00  0.00    +0.022 C 
ATOM     21  C   UNL     1       7.217  -6.359  -1.573  0.00  0.00    +0.002 C 
ATOM     22  C   UNL     1       7.001  -5.312  -2.667  0.00  0.00    +0.000 C 
ATOM     23  C   UNL     1       5.793  -5.707  -3.520  0.00  0.00    +0.000 C 
ATOM     24  C   UNL     1       5.858  -7.203  -3.835  0.00  0.00    +0.000 C 
ATOM     25  C   UNL     1       4.708  -7.923  -3.128  0.00  0.00    +0.002 C 
ATOM     26  C   UNL     1       5.030  -8.059  -1.639  0.00  0.00    +0.022 C 
ENDBRANCH  17  19
ENDBRANCH   5  15
BRANCH   1  27
ATOM     27  C   UNL     1       0.479  -2.208   0.988  0.00  0.00    +0.096 C 
BRANCH  27  28
ATOM     28  C   UNL     1       0.344  -0.686   0.907  0.00  0.00    +0.009 C 
BRANCH  28  30
ATOM     29  C   UNL     1      -0.549   1.213  -0.447  0.00  0.00    +0.004 C 
ATOM     30  C   UNL     1      -0.414  -0.309  -0.366  0.00  0.00    -0.003 C 
ENDBRANCH  28  30
ENDBRANCH  27  28
ENDBRANCH   1  27
TORSDOF 5
