REMARK  Name = ZINC04854597
REMARK  2 active torsions:
REMARK  status: ('A' for Active; 'I' for Inactive)
REMARK    1  A    between atoms: C_4  and  N_8
REMARK    2  A    between atoms: C_19  and  C_21
REMARK                            x       y       z     vdW  Elec       q    Type
REMARK                         _______ _______ _______ _____ _____    ______ ____
ROOT
ATOM      1  N   UNL     1      -5.079   3.844  -1.338  0.00  0.00    -0.265 N 
ATOM      2  C   UNL     1      -3.744   3.861  -1.516  0.00  0.00    +0.307 C 
ATOM      3  O   UNL     1      -3.262   4.477  -2.447  0.00  0.00    -0.252 OA
ATOM      4  N   UNL     1      -2.942   3.195  -0.662  0.00  0.00    -0.271 N 
ATOM      5  C   UNL     1      -3.489   2.536   0.533  0.00  0.00    +0.132 C 
ATOM      6  C   UNL     1      -3.277   1.023   0.420  0.00  0.00    +0.140 C 
ATOM      7  N   UNL     1      -1.899   0.759  -0.008  0.00  0.00    -0.347 N 
ATOM      8  C   UNL     1      -1.217  -0.412   0.110  0.00  0.00    +0.086 A 
ATOM      9  C   UNL     1       0.012  -0.241  -0.422  0.00  0.00    +0.019 A 
ATOM     10  C   UNL     1       0.094   1.091  -0.878  0.00  0.00    +0.025 A 
ATOM     11  C   UNL     1      -1.081   1.679  -0.606  0.00  0.00    +0.044 A 
ATOM     12  C   UNL     1      -1.486   3.107  -0.891  0.00  0.00    +0.161 C 
ATOM     13  H   UNL     1      -5.459   3.421  -0.552  0.00  0.00    +0.157 HD
ENDROOT
BRANCH   1  17
ATOM     14  C   UNL     1      -7.583   5.610  -4.170  0.00  0.00    +0.006 A 
ATOM     15  C   UNL     1      -7.868   4.344  -3.692  0.00  0.00    +0.040 A 
ATOM     16  C   UNL     1      -7.040   3.756  -2.752  0.00  0.00    +0.147 A 
ATOM     17  C   UNL     1      -5.921   4.438  -2.290  0.00  0.00    +0.106 A 
ATOM     18  C   UNL     1      -5.641   5.712  -2.769  0.00  0.00    +0.147 A 
ATOM     19  C   UNL     1      -6.470   6.292  -3.712  0.00  0.00    +0.040 A 
ATOM     20  F   UNL     1      -4.558   6.381  -2.318  0.00  0.00    -0.203 F 
ATOM     21  F   UNL     1      -7.319   2.519  -2.285  0.00  0.00    -0.203 F 
ENDBRANCH   1  17
BRANCH  12  22
ATOM     22  C   UNL     1      -0.748   4.043   0.032  0.00  0.00    +0.016 A 
ATOM     23  C   UNL     1       0.352   4.795  -0.216  0.00  0.00    +0.013 A 
ATOM     24  C   UNL     1       0.861   5.591   0.792  0.00  0.00    +0.008 A 
ATOM     25  C   UNL     1       0.246   5.596   2.000  0.00  0.00    +0.045 A 
ATOM     26  S   UNL     1      -1.102   4.456   1.732  0.00  0.00    -0.099 S 
ENDBRANCH  12  22
TORSDOF 2
