REMARK  Name = ZINC39668880
REMARK  4 active torsions:
REMARK  status: ('A' for Active; 'I' for Inactive)
REMARK    1  A    between atoms: C_10  and  C_12
REMARK    2  A    between atoms: C_12  and  N_13
REMARK    3  A    between atoms: C_14  and  C_16
REMARK    4  A    between atoms: C_27  and  C_29
REMARK                            x       y       z     vdW  Elec       q    Type
REMARK                         _______ _______ _______ _____ _____    ______ ____
ROOT
ATOM      1  C   UNL     1       8.383  -0.793   1.494  0.00  0.00    +0.100 C 
ATOM      2  C   UNL     1       8.355  -2.250   2.009  0.00  0.00    +0.121 C 
ATOM      3  N   UNL     1       9.652  -2.426   2.705  0.00  0.00    -0.296 N 
ATOM      4  C   UNL     1       9.871  -1.139   3.408  0.00  0.00    +0.115 C 
ATOM      5  C   UNL     1       9.379  -0.068   2.415  0.00  0.00    -0.004 C 
ATOM      6  C   UNL     1       8.679   1.062   3.163  0.00  0.00    -0.010 C 
ATOM      7  C   UNL     1       9.701   1.806   4.028  0.00  0.00    -0.082 C 
ATOM      8  N   UNL     1      10.767   2.344   3.174  0.00  0.00    +0.379 N 
ATOM      9  C   UNL     1      11.496   1.244   2.530  0.00  0.00    -0.082 C 
ATOM     10  C   UNL     1      10.550   0.477   1.602  0.00  0.00    -0.010 C 
ATOM     11  C   UNL     1      10.452  -3.511   2.699  0.00  0.00    +0.249 C 
ATOM     12  O   UNL     1      11.494  -3.502   3.325  0.00  0.00    -0.270 OA
ATOM     13  H   UNL     1      10.362   2.938   2.466  0.00  0.00    -0.086 HD
ATOM     14  H   UNL     1      11.407   2.885   3.738  0.00  0.00    -0.086 HD
ENDROOT
BRANCH  11  15
ATOM     15  C   UNL     1      10.062  -4.711   1.931  0.00  0.00    +0.073 A 
ATOM     16  C   UNL     1      10.460  -4.853   0.599  0.00  0.00    +0.054 A 
ATOM     17  C   UNL     1      10.093  -5.978  -0.112  0.00  0.00    +0.021 A 
ATOM     18  C   UNL     1       9.332  -6.964   0.491  0.00  0.00    +0.003 A 
ATOM     19  C   UNL     1       8.934  -6.830   1.809  0.00  0.00    +0.021 A 
ATOM     20  C   UNL     1       9.299  -5.714   2.535  0.00  0.00    +0.054 A 
ATOM     21 CL   UNL     1       8.804  -5.552   4.191  0.00  0.00    -0.083 Cl
ATOM     22 CL   UNL     1      11.415  -3.617  -0.160  0.00  0.00    -0.083 Cl
ENDBRANCH  11  15
BRANCH   1  24
ATOM     23  N   UNL     1       6.646   0.802   0.749  0.00  0.00    -0.312 N 
ATOM     24  C   UNL     1       7.016  -0.171   1.606  0.00  0.00    +0.218 C 
ATOM     25  O   UNL     1       6.247  -0.545   2.466  0.00  0.00    -0.275 OA
ATOM     26  H   UNL     1       7.261   1.102   0.061  0.00  0.00    +0.149 HD
BRANCH  23  27
ATOM     27  C   UNL     1       5.317   1.408   0.858  0.00  0.00    +0.140 C 
BRANCH  27  37
ATOM     28  C   UNL     1       1.432   4.492   0.388  0.00  0.00    +0.000 A 
ATOM     29  C   UNL     1       2.257   4.201   1.459  0.00  0.00    +0.000 A 
ATOM     30  C   UNL     1       3.455   3.549   1.248  0.00  0.00    +0.006 A 
ATOM     31  C   UNL     1       3.835   3.182  -0.034  0.00  0.00    -0.014 A 
ATOM     32  C   UNL     1       3.011   3.468  -1.102  0.00  0.00    -0.040 A 
ATOM     33  C   UNL     1       1.809   4.126  -0.889  0.00  0.00    +0.004 A 
ATOM     34  C   UNL     1       3.383   3.074  -2.508  0.00  0.00    +0.063 C 
ATOM     35  C   UNL     1       4.878   2.757  -2.578  0.00  0.00    +0.165 C 
ATOM     36  O   UNL     1       5.203   1.860  -1.510  0.00  0.00    -0.370 OA
ATOM     37  C   UNL     1       5.153   2.477  -0.224  0.00  0.00    +0.165 C 
ENDBRANCH  27  37
ENDBRANCH  23  27
ENDBRANCH   1  24
TORSDOF 4
