REMARK  Name = ZINC13633929
REMARK  5 active torsions:
REMARK  status: ('A' for Active; 'I' for Inactive)
REMARK    1  A    between atoms: C_4  and  S_10
REMARK    2  A    between atoms: C_5  and  N_7
REMARK    3  A    between atoms: S_10  and  C_11
REMARK    4  A    between atoms: C_25  and  N_32
REMARK    5  A    between atoms: CA_28  and  C_30
REMARK                            x       y       z     vdW  Elec       q    Type
REMARK                         _______ _______ _______ _____ _____    ______ ____
ROOT
ATOM      1  C   UNL     1       2.197  -0.670   0.052  0.00  0.00    +0.070 C 
ATOM      2  C   UNL     1       3.471  -1.521  -0.084  0.00  0.00    +0.022 C 
ATOM      3  C   UNL     1       3.521  -2.446   1.152  0.00  0.00    +0.030 C 
ATOM      4  C   UNL     1       2.062  -2.517   1.639  0.00  0.00    +0.045 C 
ATOM      5  C   UNL     1       1.521  -1.095   1.372  0.00  0.00    +0.101 C 
ATOM      6 CL   UNL     1       1.993   0.020   2.708  0.00  0.00    -0.120 Cl
ATOM      7  C   UNL     1       1.988  -2.824   3.106  0.00  0.00    -0.019 A 
ATOM      8  C   UNL     1       0.739  -3.084   3.655  0.00  0.00    +0.006 A 
ATOM      9  C   UNL     1       0.608  -3.368   4.999  0.00  0.00    +0.003 A 
ATOM     10  C   UNL     1       1.726  -3.395   5.813  0.00  0.00    +0.034 A 
ATOM     11  C   UNL     1       2.970  -3.140   5.277  0.00  0.00    +0.147 A 
ATOM     12  C   UNL     1       3.107  -2.854   3.919  0.00  0.00    +0.062 A 
ATOM     13  N   UNL     1       4.389  -2.607   3.430  0.00  0.00    -0.329 N 
ATOM     14  CA  UNL     1       4.372  -1.769   2.229  0.00  0.00    +0.188 C 
ATOM     15  H   UNL     1       4.977  -2.203   4.144  0.00  0.00    +0.147 HD
ENDROOT
BRANCH  14  16
ATOM     16  C   UNL     1       5.779  -1.590   1.720  0.00  0.00    +0.376 C 
ATOM     17  O   UNL     1       6.645  -2.365   2.053  0.00  0.00    -0.244 OA
ATOM     18  OXT UNL     1       6.071  -0.570   0.898  0.00  0.00    -0.244 OA
ENDBRANCH  14  16
BRANCH  11  19
ATOM     19  N   UNL     1       4.166  -3.170   6.148  0.00  0.00    +0.058 N 
ATOM     20  O   UNL     1       5.217  -3.616   5.723  0.00  0.00    -0.126 OA
ATOM     21  O   UNL     1       4.100  -2.750   7.289  0.00  0.00    -0.126 OA
ENDBRANCH  11  19
BRANCH   1  22
ATOM     22  S   UNL     1       2.629   1.090   0.113  0.00  0.00    -0.118 S 
BRANCH  22  26
ATOM     23  C   UNL     1      -1.378   3.198   0.227  0.00  0.00    +0.002 A 
ATOM     24  C   UNL     1      -1.327   1.817   0.170  0.00  0.00    +0.001 A 
ATOM     25  C   UNL     1      -0.107   1.171   0.141  0.00  0.00    +0.017 A 
ATOM     26  C   UNL     1       1.070   1.910   0.157  0.00  0.00    +0.038 A 
ATOM     27  C   UNL     1       1.014   3.298   0.208  0.00  0.00    +0.140 A 
ATOM     28  C   UNL     1      -0.209   3.937   0.243  0.00  0.00    +0.034 A 
BRANCH  27  29
ATOM     29  N   UNL     1       2.265   4.090   0.227  0.00  0.00    +0.058 N 
ATOM     30  O   UNL     1       2.215   5.306   0.272  0.00  0.00    -0.126 OA
ATOM     31  O   UNL     1       3.343   3.525   0.197  0.00  0.00    -0.126 OA
ENDBRANCH  27  29
ENDBRANCH  22  26
ENDBRANCH   1  22
TORSDOF 5
