REMARK  Name = ZINC05605293
REMARK  6 active torsions:
REMARK  status: ('A' for Active; 'I' for Inactive)
REMARK    1  A    between atoms: C_1  and  C_2
REMARK    2  A    between atoms: C_2  and  C_3
REMARK    3  A    between atoms: C_3  and  C_5
REMARK    4  A    between atoms: C_6  and  C_29
REMARK    5  A    between atoms: C_10  and  C_12
REMARK    6  A    between atoms: C_17  and  N_18
REMARK                            x       y       z     vdW  Elec       q    Type
REMARK                         _______ _______ _______ _____ _____    ______ ____
ROOT
ATOM      1  C   UNL     1       1.432   8.688  -0.161  0.00  0.00    +0.024 C 
ATOM      2  C   UNL     1       0.087   8.672  -0.182  0.00  0.00    +0.012 C 
ATOM      3  N   UNL     1      -0.643   7.518  -0.099  0.00  0.00    -0.317 N 
ATOM      4  C   UNL     1       0.018   6.320  -0.265  0.00  0.00    +0.047 C 
ATOM      5  C   UNL     1       1.383   6.236  -0.244  0.00  0.00    +0.033 C 
ATOM      6  C   UNL     1       2.267   7.441  -0.032  0.00  0.00    +0.092 C 
ATOM      7  C   UNL     1       1.774   4.897  -0.445  0.00  0.00    +0.193 C 
ATOM      8  O   UNL     1       2.916   4.481  -0.484  0.00  0.00    -0.287 OA
ATOM      9  C   UNL     1       0.535   4.083  -0.601  0.00  0.00    +0.031 A 
ATOM     10  C   UNL     1      -0.550   4.975  -0.486  0.00  0.00    +0.007 A 
ATOM     11  C   UNL     1      -1.843   4.493  -0.591  0.00  0.00    +0.010 A 
ATOM     12  C   UNL     1      -2.063   3.138  -0.814  0.00  0.00    +0.001 A 
ATOM     13  C   UNL     1      -1.000   2.268  -0.921  0.00  0.00    +0.001 A 
ATOM     14  C   UNL     1       0.305   2.740  -0.817  0.00  0.00    +0.012 A 
ATOM     15  C   UNL     1      -0.647   9.982  -0.303  0.00  0.00    +0.061 C 
ATOM     16  H   UNL     1      -1.725   7.564   0.096  0.00  0.00    +0.152 HD
ENDROOT
BRANCH   6  17
ATOM     17  C   UNL     1       2.877   7.383   1.344  0.00  0.00    -0.005 A 
ATOM     18  C   UNL     1       2.071   7.481   2.463  0.00  0.00    +0.007 A 
ATOM     19  C   UNL     1       2.631   7.428   3.726  0.00  0.00    +0.000 A 
ATOM     20  C   UNL     1       3.998   7.276   3.870  0.00  0.00    +0.002 A 
ATOM     21  C   UNL     1       4.804   7.177   2.751  0.00  0.00    +0.033 A 
ATOM     22  C   UNL     1       4.243   7.226   1.488  0.00  0.00    +0.130 A 
BRANCH  22  23
ATOM     23  N   UNL     1       5.106   7.115   0.291  0.00  0.00    +0.057 N 
ATOM     24  O   UNL     1       4.727   6.476  -0.675  0.00  0.00    -0.126 OA
ATOM     25  O   UNL     1       6.194   7.662   0.271  0.00  0.00    -0.126 OA
ENDBRANCH  22  23
ENDBRANCH   6  17
BRANCH   1  26
ATOM     26  C   UNL     1       2.088   9.925  -0.264  0.00  0.00    +0.161 C 
ATOM     27  O   UNL     1       1.442  10.949  -0.370  0.00  0.00    -0.292 OA
BRANCH  26  29
ATOM     28  C   UNL     1       4.050  11.438  -0.371  0.00  0.00    +0.012 C 
ATOM     29  C   UNL     1       3.594   9.983  -0.244  0.00  0.00    +0.076 C 
ENDBRANCH  26  29
ENDBRANCH   1  26
TORSDOF 4
