REMARK  Name = ZINC04454677
REMARK  3 active torsions:
REMARK  status: ('A' for Active; 'I' for Inactive)
REMARK    1  A    between atoms: N_14  and  C_15
REMARK    2  A    between atoms: N_23  and  C_24
REMARK    3  A    between atoms: C_24  and  C_25
REMARK                            x       y       z     vdW  Elec       q    Type
REMARK                         _______ _______ _______ _____ _____    ______ ____
ROOT
ATOM      1  C   UNL     1      -5.786   5.070   4.078  0.00  0.00    +0.203 A 
ATOM      2  N   UNL     1      -4.841   5.698   3.414  0.00  0.00    -0.230 NA
ATOM      3  C   UNL     1      -4.052   4.965   2.634  0.00  0.00    +0.116 A 
ATOM      4  C   UNL     1      -4.174   3.566   2.483  0.00  0.00    +0.076 A 
ATOM      5  C   UNL     1      -3.222   2.931   1.589  0.00  0.00    -0.020 A 
ATOM      6  C   UNL     1      -2.322   3.745   0.989  0.00  0.00    +0.013 A 
ATOM      7  S   UNL     1      -2.692   5.374   1.586  0.00  0.00    -0.072 S 
ATOM      8  C   UNL     1      -1.245   3.345   0.026  0.00  0.00    +0.152 C 
ATOM      9  N   UNL     1      -1.191   1.870   0.018  0.00  0.00    -0.280 N 
ATOM     10  C   UNL     1      -2.471   1.147   0.014  0.00  0.00    +0.114 C 
ATOM     11  C   UNL     1      -3.216   1.428   1.325  0.00  0.00    +0.056 C 
ATOM     12  C   UNL     1      -0.014   1.212   0.009  0.00  0.00    +0.303 C 
ATOM     13  O   UNL     1       0.002  -0.004   0.002  0.00  0.00    -0.253 OA
ATOM     14  N   UNL     1       1.143   1.901   0.001  0.00  0.00    -0.296 N 
ATOM     15  C   UNL     1      -5.219   2.920   3.225  0.00  0.00    +0.262 A 
ATOM     16  O   UNL     1      -5.410   1.718   3.165  0.00  0.00    -0.267 OA
ATOM     17  N   UNL     1      -5.981   3.732   3.997  0.00  0.00    -0.296 N 
ATOM     18  H   UNL     1       1.130   2.871   0.007  0.00  0.00    +0.151 HD
ENDROOT
BRANCH  14  19
ATOM     19  C   UNL     1       2.422   1.186  -0.015  0.00  0.00    +0.074 C 
ATOM     20  C   UNL     1       2.819   0.820   1.417  0.00  0.00    +0.022 C 
ATOM     21  C   UNL     1       4.155   0.073   1.400  0.00  0.00    +0.002 C 
ATOM     22  C   UNL     1       5.232   0.968   0.785  0.00  0.00    +0.000 C 
ATOM     23  C   UNL     1       4.835   1.335  -0.647  0.00  0.00    +0.002 C 
ATOM     24  C   UNL     1       3.499   2.082  -0.630  0.00  0.00    +0.022 C 
ENDBRANCH  14  19
BRANCH  17  25
ATOM     25  C   UNL     1      -7.065   3.135   4.780  0.00  0.00    +0.157 C 
BRANCH  25  26
ATOM     26  C   UNL     1      -6.536   2.729   6.157  0.00  0.00    +0.138 C 
ATOM     27  C   UNL     1      -7.641   1.995   6.947  0.00  0.00    +0.035 C 
ATOM     28  C   UNL     1      -7.437   2.544   8.386  0.00  0.00    +0.031 C 
ATOM     29  C   UNL     1      -6.983   3.995   8.085  0.00  0.00    +0.160 C 
ATOM     30  O   UNL     1      -6.174   3.897   6.903  0.00  0.00    -0.375 OA
ENDBRANCH  25  26
ENDBRANCH  17  25
TORSDOF 3
