REMARK  Name = ZINC13565002
REMARK  5 active torsions:
REMARK  status: ('A' for Active; 'I' for Inactive)
REMARK    1  A    between atoms: C_1  and  C_2
REMARK    2  A    between atoms: C_3  and  C_21
REMARK    3  A    between atoms: C_8  and  C_10
REMARK    4  A    between atoms: C_10  and  N_11
REMARK    5  A    between atoms: C_30  and  C_32
REMARK                            x       y       z     vdW  Elec       q    Type
REMARK                         _______ _______ _______ _____ _____    ______ ____
ROOT
ATOM      1  C   UNL     1      -0.049   1.355  -0.251  0.00  0.00    +0.054 C 
ATOM      2  C   UNL     1      -0.043  -0.150  -0.169  0.00  0.00    +0.016 A 
ATOM      3  C   UNL     1      -1.085  -1.018   0.008  0.00  0.00    +0.083 A 
ATOM      4  N   UNL     1      -0.846  -2.320   0.048  0.00  0.00    -0.224 NA
ATOM      5  C   UNL     1       0.379  -2.796  -0.079  0.00  0.00    +0.165 A 
ATOM      6  S   UNL     1       1.326  -1.294  -0.285  0.00  0.00    -0.057 S 
ATOM      7  N   UNL     1       0.816  -4.115  -0.061  0.00  0.00    -0.264 N 
ATOM      8  C   UNL     1       2.126  -4.393  -0.210  0.00  0.00    +0.233 C 
ATOM      9  O   UNL     1       2.924  -3.492  -0.359  0.00  0.00    -0.274 OA
ATOM     10  H   UNL     1       0.177  -4.836   0.058  0.00  0.00    +0.157 HD
ENDROOT
BRANCH   3  11
ATOM     11  C   UNL     1      -2.469  -0.506   0.153  0.00  0.00    +0.002 A 
ATOM     12  C   UNL     1      -3.312  -1.031   1.132  0.00  0.00    +0.012 A 
ATOM     13  C   UNL     1      -4.596  -0.554   1.265  0.00  0.00    +0.024 A 
ATOM     14  C   UNL     1      -5.067   0.457   0.423  0.00  0.00    +0.040 A 
ATOM     15  C   UNL     1      -4.225   0.976  -0.549  0.00  0.00    -0.024 A 
ATOM     16  C   UNL     1      -2.934   0.506  -0.684  0.00  0.00    +0.015 A 
ATOM     17  C   UNL     1      -4.973   2.045  -1.313  0.00  0.00    +0.056 C 
ATOM     18  C   UNL     1      -6.365   2.084  -0.661  0.00  0.00    +0.118 C 
ATOM     19  N   UNL     1      -6.323   1.070   0.396  0.00  0.00    -0.267 N 
ATOM     20  C   UNL     1      -7.345   0.772   1.222  0.00  0.00    +0.251 C 
ATOM     21  O   UNL     1      -7.181  -0.015   2.133  0.00  0.00    -0.270 OA
BRANCH  20  22
ATOM     22  C   UNL     1      -8.667   1.403   1.019  0.00  0.00    +0.040 A 
ATOM     23  C   UNL     1      -8.819   2.424   0.079  0.00  0.00    +0.013 A 
ATOM     24  C   UNL     1     -10.055   3.009  -0.107  0.00  0.00    +0.004 A 
ATOM     25  C   UNL     1     -11.143   2.587   0.636  0.00  0.00    +0.038 A 
ATOM     26  C   UNL     1     -11.000   1.574   1.571  0.00  0.00    +0.124 A 
ATOM     27  C   UNL     1      -9.768   0.976   1.762  0.00  0.00    +0.051 A 
ATOM     28  F   UNL     1     -12.067   1.167   2.292  0.00  0.00    -0.205 F 
ENDBRANCH  20  22
ENDBRANCH   3  11
BRANCH   8  29
ATOM     29  C   UNL     1       2.600  -5.824  -0.191  0.00  0.00    +0.181 C 
BRANCH  29  30
ATOM     30  N   UNL     1       4.057  -5.859  -0.371  0.00  0.00    -0.289 NA
ATOM     31  C   UNL     1       4.530  -7.238  -0.573  0.00  0.00    +0.090 C 
ATOM     32  C   UNL     1       5.960  -7.187  -1.112  0.00  0.00    +0.051 C 
ATOM     33  C   UNL     1       6.803  -6.285  -0.248  0.00  0.00    -0.042 A 
ATOM     34  C   UNL     1       8.184  -6.379  -0.344  0.00  0.00    +0.004 A 
ATOM     35  C   UNL     1       8.993  -5.568   0.426  0.00  0.00    +0.000 A 
ATOM     36  C   UNL     1       8.425  -4.658   1.297  0.00  0.00    +0.000 A 
ATOM     37  C   UNL     1       7.051  -4.565   1.395  0.00  0.00    +0.005 A 
ATOM     38  C   UNL     1       6.236  -5.380   0.623  0.00  0.00    -0.030 A 
ATOM     39  C   UNL     1       4.743  -5.250   0.773  0.00  0.00    +0.120 C 
ENDBRANCH  29  30
ENDBRANCH   8  29
TORSDOF 4
