REMARK  Name = ZINC01099049
REMARK  5 active torsions:
REMARK  status: ('A' for Active; 'I' for Inactive)
REMARK    1  A    between atoms: C_1  and  C_2
REMARK    2  A    between atoms: N_7  and  C_8
REMARK    3  A    between atoms: C_8  and  C_10
REMARK    4  A    between atoms: C_8  and  C_17
REMARK    5  A    between atoms: C_26  and  O_27
REMARK                            x       y       z     vdW  Elec       q    Type
REMARK                         _______ _______ _______ _____ _____    ______ ____
ROOT
ATOM      1  C   UNL     1      -2.888  -3.146  -0.001  0.00  0.00    +0.136 C 
ENDROOT
BRANCH   1   2
ATOM      2  C   UNL     1      -3.510  -4.431   0.480  0.00  0.00    +0.021 A 
ATOM      3  C   UNL     1      -2.739  -5.590   0.529  0.00  0.00    +0.010 A 
ATOM      4  C   UNL     1      -3.270  -6.767   0.960  0.00  0.00    +0.010 A 
ATOM      5  C   UNL     1      -4.615  -6.818   1.361  0.00  0.00    +0.004 A 
ATOM      6  C   UNL     1      -5.200  -8.017   1.812  0.00  0.00    +0.011 A 
ATOM      7  C   UNL     1      -6.513  -7.992   2.187  0.00  0.00    +0.020 A 
ATOM      8  C   UNL     1      -7.234  -6.802   2.115  0.00  0.00    +0.111 A 
ATOM      9  N   UNL     1      -6.686  -5.688   1.695  0.00  0.00    -0.251 NA
ATOM     10  C   UNL     1      -5.406  -5.644   1.314  0.00  0.00    +0.113 A 
ATOM     11  C   UNL     1      -4.819  -4.441   0.868  0.00  0.00    +0.148 A 
BRANCH  11  12
ATOM     12  O   UNL     1      -5.555  -3.300   0.818  0.00  0.00    -0.504 OA
ATOM     13  H   UNL     1      -6.011  -3.162  -0.023  0.00  0.00    +0.292 HD
ENDBRANCH  11  12
ENDBRANCH   1   2
BRANCH   1  20
ATOM     14  C   UNL     1      -0.470   1.705   0.685  0.00  0.00    +0.089 C 
ATOM     15  C   UNL     1      -0.323   0.205   0.640  0.00  0.00    +0.136 A 
ATOM     16  C   UNL     1      -1.311  -0.677   0.413  0.00  0.00    +0.090 A 
ATOM     17  C   UNL     1      -0.756  -1.977   0.454  0.00  0.00    +0.162 A 
ATOM     18  N   UNL     1       0.524  -1.859   0.699  0.00  0.00    -0.063 NA
ATOM     19  O   UNL     1       0.819  -0.479   0.816  0.00  0.00    -0.358 OA
ATOM     20  N   UNL     1      -1.448  -3.169   0.267  0.00  0.00    -0.315 N 
ATOM     21  H   UNL     1      -0.977  -4.016   0.314  0.00  0.00    +0.148 HD
ENDBRANCH   1  20
BRANCH   1  22
ATOM     22  C   UNL     1      -3.121  -3.000  -1.483  0.00  0.00    -0.023 A 
ATOM     23  C   UNL     1      -2.323  -3.687  -2.379  0.00  0.00    +0.007 A 
ATOM     24  C   UNL     1      -2.536  -3.554  -3.738  0.00  0.00    +0.020 A 
ATOM     25  C   UNL     1      -3.548  -2.732  -4.202  0.00  0.00    +0.041 A 
ATOM     26  C   UNL     1      -4.346  -2.044  -3.305  0.00  0.00    +0.020 A 
ATOM     27  C   UNL     1      -4.136  -2.183  -1.946  0.00  0.00    +0.007 A 
ATOM     28 CL   UNL     1      -3.815  -2.563  -5.909  0.00  0.00    -0.084 Cl
ENDBRANCH   1  22
TORSDOF 4
