REMARK  Name = ZINC32380319
REMARK  4 active torsions:
REMARK  status: ('A' for Active; 'I' for Inactive)
REMARK    1  A    between atoms: C_4  and  C_7
REMARK    2  A    between atoms: C_7  and  C_9
REMARK    3  A    between atoms: C_7  and  N_15
REMARK    4  A    between atoms: C_16  and  C_18
REMARK                            x       y       z     vdW  Elec       q    Type
REMARK                         _______ _______ _______ _____ _____    ______ ____
ROOT
ATOM      1  N   UNL     1       3.611  -1.865  -0.930  0.00  0.00    -0.303 N 
ATOM      2  C   UNL     1       3.825  -1.716  -2.253  0.00  0.00    +0.265 C 
ATOM      3  O   UNL     1       4.099  -0.621  -2.705  0.00  0.00    -0.268 OA
ATOM      4  H   UNL     1       3.392  -2.738  -0.569  0.00  0.00    +0.150 HD
ENDROOT
BRANCH   2   5
ATOM      5  C   UNL     1       3.724  -2.882  -3.152  0.00  0.00    +0.153 A 
ATOM      6  C   UNL     1       3.961  -2.731  -4.597  0.00  0.00    +0.020 A 
ATOM      7  C   UNL     1       4.284  -1.512  -5.184  0.00  0.00    +0.011 A 
ATOM      8  C   UNL     1       4.491  -1.451  -6.545  0.00  0.00    +0.001 A 
ATOM      9  C   UNL     1       4.380  -2.589  -7.334  0.00  0.00    +0.001 A 
ATOM     10  C   UNL     1       4.060  -3.806  -6.772  0.00  0.00    +0.014 A 
ATOM     11  C   UNL     1       3.848  -3.890  -5.400  0.00  0.00    +0.050 A 
ATOM     12  C   UNL     1       3.503  -5.146  -4.720  0.00  0.00    +0.272 A 
ATOM     13  O   UNL     1       3.390  -6.183  -5.347  0.00  0.00    -0.266 OA
ATOM     14  N   UNL     1       3.316  -5.123  -3.384  0.00  0.00    -0.242 N 
ATOM     15  H   UNL     1       3.089  -5.955  -2.938  0.00  0.00    +0.192 HD
ATOM     16  N   UNL     1       3.428  -4.066  -2.673  0.00  0.00    -0.166 NA
ENDBRANCH   2   5
BRANCH   1  17
ATOM     17  C   UNL     1       3.711  -0.707  -0.038  0.00  0.00    +0.107 C 
BRANCH  17  21
ATOM     18  C   UNL     1      -0.017   1.378   0.010  0.00  0.00    +0.000 A 
ATOM     19  C   UNL     1       1.171   2.086   0.002  0.00  0.00    +0.000 A 
ATOM     20  C   UNL     1       2.377   1.411  -0.013  0.00  0.00    +0.005 A 
ATOM     21  C   UNL     1       2.396   0.029  -0.020  0.00  0.00    -0.027 A 
ATOM     22  C   UNL     1       1.208  -0.679  -0.012  0.00  0.00    +0.005 A 
ATOM     23  C   UNL     1       0.002  -0.004   0.002  0.00  0.00    +0.000 A 
ENDBRANCH  17  21
BRANCH  17  24
ATOM     24  C   UNL     1       4.049  -1.182   1.377  0.00  0.00    +0.014 C 
ATOM     25  C   UNL     1       4.153   0.027   2.309  0.00  0.00    +0.006 C 
ATOM     26  C   UNL     1       4.491  -0.448   3.724  0.00  0.00    +0.000 C 
ATOM     27  C   UNL     1       5.826  -1.195   3.707  0.00  0.00    +0.000 C 
ATOM     28  C   UNL     1       5.722  -2.403   2.774  0.00  0.00    +0.000 C 
ATOM     29  C   UNL     1       5.384  -1.929   1.359  0.00  0.00    +0.006 C 
ENDBRANCH  17  24
ENDBRANCH   1  17
TORSDOF 4
