REMARK  Name = ZINC40093322
REMARK  12 active torsions:
REMARK  status: ('A' for Active; 'I' for Inactive)
REMARK    1  A    between atoms: C_1  and  C_2
REMARK    2  A    between atoms: C_4  and  C_12
REMARK    3  A    between atoms: C_7  and  O_8
REMARK    4  A    between atoms: O_8  and  C_9
REMARK    5  A    between atoms: C_9  and  C_10
REMARK    6  A    between atoms: C_9  and  C_11
REMARK    7  A    between atoms: C_12  and  C_14
REMARK    8  A    between atoms: N_18  and  C_28
REMARK    9  A    between atoms: C_19  and  C_21
REMARK   10  A    between atoms: C_24  and  O_27
REMARK   11  A    between atoms: C_28  and  C_29
REMARK   12  A    between atoms: C_29  and  O_30
REMARK                            x       y       z     vdW  Elec       q    Type
REMARK                         _______ _______ _______ _____ _____    ______ ____
ROOT
ATOM      1  C   UNL     1       1.461  -4.219  -1.696  0.00  0.00    +0.076 C 
ATOM      2  C   UNL     1       1.818  -5.076  -2.681  0.00  0.00    +0.249 C 
ATOM      3  C   UNL     1       2.612  -6.179  -2.101  0.00  0.00    +0.288 C 
ATOM      4  O   UNL     1       3.078  -7.108  -2.730  0.00  0.00    -0.266 OA
ATOM      5  N   UNL     1       2.742  -6.002  -0.774  0.00  0.00    -0.281 N 
ATOM      6  C   UNL     1       2.042  -4.764  -0.412  0.00  0.00    +0.145 C 
ATOM      7  O   UNL     1       1.498  -4.943  -3.989  0.00  0.00    -0.282 OA
ENDROOT
BRANCH   6   8
ATOM      8  C   UNL     1       3.009  -3.772   0.181  0.00  0.00    -0.022 A 
ATOM      9  C   UNL     1       4.140  -3.406  -0.523  0.00  0.00    +0.009 A 
ATOM     10  C   UNL     1       5.029  -2.497   0.019  0.00  0.00    +0.046 A 
ATOM     11  C   UNL     1       4.784  -1.952   1.271  0.00  0.00    +0.117 A 
ATOM     12  C   UNL     1       3.647  -2.321   1.975  0.00  0.00    +0.046 A 
ATOM     13  C   UNL     1       2.759  -3.226   1.427  0.00  0.00    +0.009 A 
BRANCH  11  14
ATOM     14  O   UNL     1       5.656  -1.058   1.806  0.00  0.00    -0.507 OA
ATOM     15  H   UNL     1       5.461  -0.137   1.585  0.00  0.00    +0.292 HD
ENDBRANCH  11  14
ENDBRANCH   6   8
BRANCH   1  16
ATOM     16  C   UNL     1       0.668  -2.994  -1.847  0.00  0.00    +0.195 C 
ATOM     17  O   UNL     1       1.117  -2.052  -2.473  0.00  0.00    -0.287 OA
BRANCH  16  21
ATOM     18  C   UNL     1      -3.393  -0.319  -0.745  0.00  0.00    +0.047 C 
ATOM     19  C   UNL     1      -2.631  -1.618  -0.707  0.00  0.00    -0.008 A 
ATOM     20  C   UNL     1      -1.380  -1.698  -1.275  0.00  0.00    +0.018 A 
ATOM     21  C   UNL     1      -0.674  -2.904  -1.240  0.00  0.00    +0.023 A 
ATOM     22  C   UNL     1      -1.243  -4.025  -0.627  0.00  0.00    +0.015 A 
ATOM     23  C   UNL     1      -2.495  -3.937  -0.062  0.00  0.00    +0.046 A 
ATOM     24  C   UNL     1      -3.192  -2.734  -0.095  0.00  0.00    +0.124 A 
BRANCH  24  25
ATOM     25  O   UNL     1      -4.423  -2.649   0.468  0.00  0.00    -0.489 OA
BRANCH  25  26
ATOM     26  C   UNL     1      -4.942  -3.835   1.074  0.00  0.00    +0.167 C 
ATOM     27  C   UNL     1      -4.427  -3.941   2.511  0.00  0.00    +0.051 C 
ATOM     28  C   UNL     1      -6.471  -3.776   1.083  0.00  0.00    +0.051 C 
ENDBRANCH  25  26
ENDBRANCH  24  25
ENDBRANCH  16  21
ENDBRANCH   1  16
BRANCH   5  29
ATOM     29  C   UNL     1       3.460  -6.887   0.147  0.00  0.00    +0.137 C 
BRANCH  29  30
ATOM     30  C   UNL     1       4.954  -6.556   0.111  0.00  0.00    +0.175 C 
BRANCH  30  31
ATOM     31  O   UNL     1       5.168  -5.259   0.669  0.00  0.00    -0.393 OA
ATOM     32  H   UNL     1       6.095  -4.983   0.679  0.00  0.00    +0.209 HD
ENDBRANCH  30  31
ENDBRANCH  29  30
ENDBRANCH   5  29
TORSDOF 9
