REMARK  Name = ZINC14467179
REMARK  4 active torsions:
REMARK  status: ('A' for Active; 'I' for Inactive)
REMARK    1  A    between atoms: C_2  and  N_27
REMARK    2  A    between atoms: C_4  and  O_26
REMARK    3  A    between atoms: C_14  and  C_17
REMARK    4  A    between atoms: C_22  and  O_23
REMARK                            x       y       z     vdW  Elec       q    Type
REMARK                         _______ _______ _______ _____ _____    ______ ____
ROOT
ATOM      1  C   UNL     1      -1.508   2.959  -2.773  0.00  0.00    +0.039 A 
ATOM      2  C   UNL     1      -2.772   2.401  -2.813  0.00  0.00    +0.130 A 
ATOM      3  C   UNL     1      -3.100   1.387  -1.933  0.00  0.00    +0.080 A 
ATOM      4  C   UNL     1      -2.173   0.938  -1.013  0.00  0.00    +0.140 A 
ATOM      5  C   UNL     1      -0.891   1.499  -0.958  0.00  0.00    +0.074 A 
ATOM      6  C   UNL     1      -0.573   2.514  -1.861  0.00  0.00    -0.014 A 
ATOM      7  C   UNL     1       0.792   3.084  -1.807  0.00  0.00    +0.049 C 
ATOM      8  C   UNL     1       1.088   4.485  -2.194  0.00  0.00    -0.023 C 
ATOM      9  C   UNL     1       2.098   4.924  -1.451  0.00  0.00    -0.030 C 
ATOM     10  C   UNL     1       2.534   3.841  -0.440  0.00  0.00    +0.033 C 
ATOM     11  C   UNL     1       1.240   3.029  -0.313  0.00  0.00    +0.029 C 
ATOM     12  C   UNL     1       1.355   1.551  -0.003  0.00  0.00    +0.109 C 
ATOM     13  N   UNL     1      -0.012   1.005   0.008  0.00  0.00    -0.334 N 
ATOM     14  H   UNL     1       0.002  -0.004   0.002  0.00  0.00    +0.147 HD
ENDROOT
BRANCH  12  15
ATOM     15  C   UNL     1       2.175   0.864  -1.064  0.00  0.00    +0.017 A 
ATOM     16  C   UNL     1       1.552   0.286  -2.153  0.00  0.00    +0.029 A 
ATOM     17  C   UNL     1       2.304  -0.341  -3.130  0.00  0.00    +0.043 A 
ATOM     18  C   UNL     1       3.682  -0.400  -3.014  0.00  0.00    +0.043 A 
ATOM     19  C   UNL     1       4.309   0.172  -1.923  0.00  0.00    +0.084 A 
ATOM     20  C   UNL     1       3.556   0.806  -0.944  0.00  0.00    +0.140 A 
ATOM     21 CL   UNL     1       6.037   0.098  -1.777  0.00  0.00    -0.080 Cl
ATOM     22 CL   UNL     1       1.519  -1.060  -4.501  0.00  0.00    -0.083 Cl
BRANCH  20  23
ATOM     23  O   UNL     1       4.170   1.370   0.129  0.00  0.00    -0.505 OA
ATOM     24  H   UNL     1       4.278   0.771   0.880  0.00  0.00    +0.292 HD
ENDBRANCH  20  23
ENDBRANCH  12  15
BRANCH   2  25
ATOM     25  N   UNL     1      -3.768   2.887  -3.794  0.00  0.00    +0.057 N 
ATOM     26  O   UNL     1      -4.881   2.393  -3.826  0.00  0.00    -0.126 OA
ATOM     27  O   UNL     1      -3.475   3.780  -4.568  0.00  0.00    -0.126 OA
ENDBRANCH   2  25
BRANCH   4  28
ATOM     28  O   UNL     1      -2.508  -0.059  -0.151  0.00  0.00    -0.505 OA
ATOM     29  H   UNL     1      -2.893   0.252   0.680  0.00  0.00    +0.292 HD
ENDBRANCH   4  28
TORSDOF 4
