REMARK  Name = ZINC38676064
REMARK  7 active torsions:
REMARK  status: ('A' for Active; 'I' for Inactive)
REMARK    1  A    between atoms: C_1  and  C_2
REMARK    2  A    between atoms: C_3  and  C_24
REMARK    3  A    between atoms: C_4  and  C_8
REMARK    4  A    between atoms: C_11  and  O_15
REMARK    5  A    between atoms: C_13  and  O_14
REMARK    6  A    between atoms: O_15  and  C_16
REMARK    7  A    between atoms: C_16  and  C_17
REMARK                            x       y       z     vdW  Elec       q    Type
REMARK                         _______ _______ _______ _____ _____    ______ ____
ROOT
ATOM      1  C   UNL     1      -0.966  -2.938  -1.248  0.00  0.00    +0.022 A 
ATOM      2  C   UNL     1      -0.098  -3.060  -2.317  0.00  0.00    +0.013 A 
ATOM      3  C   UNL     1      -0.491  -3.737  -3.455  0.00  0.00    +0.046 A 
ATOM      4  C   UNL     1      -1.760  -4.296  -3.529  0.00  0.00    +0.124 A 
ATOM      5  C   UNL     1      -2.632  -4.175  -2.459  0.00  0.00    +0.091 A 
ATOM      6  C   UNL     1      -2.233  -3.500  -1.315  0.00  0.00    +0.126 A 
ENDROOT
BRANCH   1  10
ATOM      7  C   UNL     1      -0.018   1.503   0.010  0.00  0.00    +0.068 C 
ATOM      8  C   UNL     1       0.002  -0.004   0.002  0.00  0.00    +0.064 C 
ATOM      9  C   UNL     1      -1.100  -0.790   0.003  0.00  0.00    +0.011 C 
ATOM     10  C   UNL     1      -0.534  -2.200  -0.008  0.00  0.00    +0.164 C 
ATOM     11  N   UNL     1       0.920  -1.969  -0.014  0.00  0.00    -0.297 N 
ATOM     12  N   UNL     1       1.113  -0.752  -0.013  0.00  0.00    -0.182 NA
ATOM     13  H   UNL     1       1.606  -2.655  -0.021  0.00  0.00    +0.183 HD
BRANCH   9  14
ATOM     14  C   UNL     1      -2.513  -0.376   0.013  0.00  0.00    -0.018 A 
ATOM     15  C   UNL     1      -3.323  -0.670   1.113  0.00  0.00    +0.008 A 
ATOM     16  C   UNL     1      -4.646  -0.279   1.115  0.00  0.00    +0.001 A 
ATOM     17  C   UNL     1      -5.171   0.402   0.031  0.00  0.00    +0.000 A 
ATOM     18  C   UNL     1      -4.375   0.697  -1.062  0.00  0.00    +0.001 A 
ATOM     19  C   UNL     1      -3.049   0.318  -1.076  0.00  0.00    +0.008 A 
ENDBRANCH   9  14
ENDBRANCH   1  10
BRANCH   6  20
ATOM     20  O   UNL     1      -3.084  -3.385  -0.262  0.00  0.00    -0.506 OA
ATOM     21  H   UNL     1      -3.647  -2.599  -0.294  0.00  0.00    +0.292 HD
ENDBRANCH   6  20
BRANCH   4  22
ATOM     22  O   UNL     1      -2.146  -4.961  -4.649  0.00  0.00    -0.487 OA
BRANCH  22  23
ATOM     23  C   UNL     1      -1.196  -5.046  -5.713  0.00  0.00    +0.267 C 
BRANCH  23  24
ATOM     24  C   UNL     1      -1.796  -5.813  -6.863  0.00  0.00    +0.025 A 
ATOM     25  C   UNL     1      -3.087  -6.300  -6.770  0.00  0.00    +0.010 A 
ATOM     26  C   UNL     1      -3.638  -7.003  -7.825  0.00  0.00    +0.001 A 
ATOM     27  C   UNL     1      -2.900  -7.221  -8.973  0.00  0.00    +0.003 A 
ATOM     28  C   UNL     1      -1.609  -6.735  -9.068  0.00  0.00    +0.039 A 
ATOM     29  C   UNL     1      -1.058  -6.026  -8.014  0.00  0.00    +0.130 A 
ATOM     30  F   UNL     1       0.202  -5.546  -8.108  0.00  0.00    -0.205 F 
ENDBRANCH  23  24
ENDBRANCH  22  23
ENDBRANCH   4  22
TORSDOF 6
