REMARK  Name = ZINC20436911
REMARK  5 active torsions:
REMARK  status: ('A' for Active; 'I' for Inactive)
REMARK    1  A    between atoms: C_4  and  N_11
REMARK    2  A    between atoms: C_5  and  C_7
REMARK    3  A    between atoms: C_12  and  C_14
REMARK    4  A    between atoms: C_14  and  N_15
REMARK    5  A    between atoms: N_15  and  C_16
REMARK                            x       y       z     vdW  Elec       q    Type
REMARK                         _______ _______ _______ _____ _____    ______ ____
ROOT
ATOM      1  N   UNL     1       2.379   1.021  -0.020  0.00  0.00    -0.273 N 
ATOM      2  C   UNL     1       2.907   0.562   1.166  0.00  0.00    +0.136 C 
ATOM      3  N   UNL     1       3.977  -0.212   1.330  0.00  0.00    -0.362 N 
ATOM      4  C   UNL     1       4.401  -0.444   2.673  0.00  0.00    +0.117 C 
ATOM      5  C   UNL     1       5.365  -1.536   3.103  0.00  0.00    +0.191 C 
ATOM      6  S   UNL     1       5.148  -1.481   4.925  0.00  0.00    -0.028 S 
ATOM      7  O   UNL     1       6.291  -0.870   5.508  0.00  0.00    -0.174 OA
ATOM      8  O   UNL     1       4.725  -2.757   5.386  0.00  0.00    -0.174 OA
ATOM      9  C   UNL     1       3.719  -0.300   5.012  0.00  0.00    +0.182 C 
ATOM     10  C   UNL     1       3.136  -0.549   3.609  0.00  0.00    +0.099 C 
ATOM     11  S   UNL     1       2.304   0.886   2.830  0.00  0.00    -0.085 S 
ATOM     12  H   UNL     1       4.487  -0.638   0.453  0.00  0.00    +0.162 HD
ENDROOT
BRANCH   1  13
ATOM     13  C   UNL     1       2.917   0.591  -1.239  0.00  0.00    +0.036 A 
ATOM     14  C   UNL     1       2.827  -0.745  -1.606  0.00  0.00    +0.026 A 
ATOM     15  C   UNL     1       3.355  -1.167  -2.811  0.00  0.00    +0.040 A 
ATOM     16  C   UNL     1       3.982  -0.259  -3.648  0.00  0.00    +0.124 A 
ATOM     17  C   UNL     1       4.078   1.072  -3.281  0.00  0.00    +0.040 A 
ATOM     18  C   UNL     1       3.547   1.499  -2.079  0.00  0.00    +0.026 A 
ATOM     19  F   UNL     1       4.502  -0.674  -4.824  0.00  0.00    -0.205 F 
ENDBRANCH   1  13
BRANCH   1  20
ATOM     20  C   UNL     1       1.254   1.959  -0.007  0.00  0.00    +0.208 C 
BRANCH  20  22
ATOM     21  N   UNL     1      -1.218   1.849  -0.016  0.00  0.00    -0.284 N 
ATOM     22  C   UNL     1      -0.042   1.190  -0.020  0.00  0.00    +0.235 C 
ATOM     23  O   UNL     1      -0.027  -0.023  -0.038  0.00  0.00    -0.274 OA
ATOM     24  H   UNL     1      -1.233   2.946   0.067  0.00  0.00    +0.155 HD
BRANCH  21  28
ATOM     25  C   UNL     1      -4.793  -0.267  -0.322  0.00  0.00    +0.001 A 
ATOM     26  C   UNL     1      -3.670  -0.882   0.199  0.00  0.00    +0.002 A 
ATOM     27  C   UNL     1      -2.482  -0.185   0.298  0.00  0.00    +0.024 A 
ATOM     28  C   UNL     1      -2.419   1.139  -0.118  0.00  0.00    +0.045 A 
ATOM     29  C   UNL     1      -3.548   1.754  -0.641  0.00  0.00    +0.076 A 
ATOM     30  C   UNL     1      -4.733   1.050  -0.741  0.00  0.00    +0.014 A 
BRANCH  29  31
ATOM     31  C   UNL     1      -3.483   3.188  -1.099  0.00  0.00    +0.419 C 
ATOM     32  F   UNL     1      -4.735   3.581  -1.583  0.00  0.00    -0.166 F 
ATOM     33  F   UNL     1      -3.121   4.005  -0.023  0.00  0.00    -0.166 F 
ATOM     34  F   UNL     1      -2.531   3.309  -2.118  0.00  0.00    -0.166 F 
ENDBRANCH  29  31
ENDBRANCH  21  28
ENDBRANCH  20  22
ENDBRANCH   1  20
TORSDOF 5
