REMARK  Name = ZINC40254710
REMARK  4 active torsions:
REMARK  status: ('A' for Active; 'I' for Inactive)
REMARK    1  A    between atoms: C_6  and  C_7
REMARK    2  A    between atoms: C_7  and  C_9
REMARK    3  A    between atoms: C_7  and  O_17
REMARK    4  A    between atoms: C_12  and  N_14
REMARK                            x       y       z     vdW  Elec       q    Type
REMARK                         _______ _______ _______ _____ _____    ______ ____
ROOT
ATOM      1  C   UNL     1      -1.293  -0.774   0.010  0.00  0.00    +0.210 C 
ENDROOT
BRANCH   1   7
ATOM      2  C   UNL     1      -0.017   1.378   0.010  0.00  0.00    +0.009 A 
ATOM      3  C   UNL     1       1.170   2.087   0.002  0.00  0.00    +0.041 A 
ATOM      4  C   UNL     1       2.379   1.413  -0.013  0.00  0.00    +0.158 A 
ATOM      5  C   UNL     1       2.397   0.026  -0.021  0.00  0.00    +0.159 A 
ATOM      6  C   UNL     1       1.208  -0.680  -0.013  0.00  0.00    +0.048 A 
ATOM      7  C   UNL     1       0.002  -0.004   0.002  0.00  0.00    -0.009 A 
ATOM      8  F   UNL     1       3.576  -0.634  -0.036  0.00  0.00    -0.202 F 
ATOM      9  F   UNL     1       3.539   2.105  -0.021  0.00  0.00    -0.202 F 
ENDBRANCH   1   7
BRANCH   1  10
ATOM     10  C   UNL     1      -1.612  -1.236  -1.389  0.00  0.00    +0.141 A 
ATOM     11  C   UNL     1      -2.403  -0.594  -2.267  0.00  0.00    +0.050 A 
ATOM     12  C   UNL     1      -2.423  -1.375  -3.446  0.00  0.00    +0.076 A 
ATOM     13  C   UNL     1      -1.644  -2.447  -3.217  0.00  0.00    +0.280 A 
ATOM     14  O   UNL     1      -1.150  -2.354  -1.971  0.00  0.00    -0.436 OA
BRANCH  13  15
ATOM     15  N   UNL     1      -1.371  -3.540  -4.177  0.00  0.00    +0.093 N 
ATOM     16  O   UNL     1      -1.868  -3.515  -5.279  0.00  0.00    -0.123 OA
ATOM     17  O   UNL     1      -0.650  -4.457  -3.860  0.00  0.00    -0.123 OA
ENDBRANCH  13  15
ENDBRANCH   1  10
BRANCH   1  18
ATOM     18  O   UNL     1      -1.167  -1.910   0.869  0.00  0.00    -0.379 OA
ATOM     19  H   UNL     1      -0.470  -2.526   0.606  0.00  0.00    +0.211 HD
ENDBRANCH   1  18
TORSDOF 4
