REMARK  Name = ZINC27439899
REMARK  8 active torsions:
REMARK  status: ('A' for Active; 'I' for Inactive)
REMARK    1  A    between atoms: C_3  and  C_9
REMARK    2  A    between atoms: C_4  and  O_8
REMARK    3  A    between atoms: N_10  and  C_11
REMARK    4  A    between atoms: C_11  and  C_12
REMARK    5  A    between atoms: C_19  and  C_22
REMARK    6  A    between atoms: C_22  and  N_23
REMARK    7  A    between atoms: C_24  and  C_25
REMARK    8  A    between atoms: C_30  and  O_31
REMARK                            x       y       z     vdW  Elec       q    Type
REMARK                         _______ _______ _______ _____ _____    ______ ____
ROOT
ATOM      1  C   UNL     1       1.357   2.832  -1.303  0.00  0.00    -0.011 C 
ATOM      2  C   UNL     1       0.182   3.806  -1.412  0.00  0.00    +0.012 C 
ATOM      3  C   UNL     1       0.296   4.598  -2.717  0.00  0.00    -0.010 C 
ATOM      4  C   UNL     1       0.270   3.632  -3.903  0.00  0.00    +0.007 C 
ATOM      5  C   UNL     1       1.444   2.658  -3.794  0.00  0.00    -0.010 C 
ATOM      6  C   UNL     1       1.331   1.866  -2.490  0.00  0.00    +0.012 C 
ATOM      7  C   UNL     1       2.759   3.441  -3.802  0.00  0.00    +0.012 C 
ATOM      8  C   UNL     1       2.785   4.407  -2.616  0.00  0.00    -0.011 C 
ATOM      9  C   UNL     1       1.610   5.381  -2.725  0.00  0.00    +0.012 C 
ATOM     10  C   UNL     1       2.671   3.615  -1.312  0.00  0.00    +0.017 C 
ENDROOT
BRANCH   1  11
ATOM     11  C   UNL     1       1.243   2.040   0.001  0.00  0.00    +0.119 C 
BRANCH  11  13
ATOM     12  C   UNL     1       0.002  -0.004   0.002  0.00  0.00    +0.089 C 
ATOM     13  N   UNL     1      -0.015   1.290   0.009  0.00  0.00    -0.389 N 
ATOM     14  H   UNL     1      -0.976   1.827   0.021  0.00  0.00    +0.159 HD
BRANCH  12  17
ATOM     15  C   UNL     1      -2.436  -2.855   0.010  0.00  0.00    +0.021 A 
ATOM     16  C   UNL     1      -1.249  -2.155   0.002  0.00  0.00    +0.014 A 
ATOM     17  C   UNL     1      -1.264  -0.758   0.010  0.00  0.00    +0.032 A 
ATOM     18  C   UNL     1      -2.489  -0.077   0.031  0.00  0.00    +0.127 A 
ATOM     19  C   UNL     1      -3.674  -0.796   0.033  0.00  0.00    +0.066 A 
ATOM     20  C   UNL     1      -3.646  -2.178   0.025  0.00  0.00    +0.044 A 
ATOM     21 CL   UNL     1      -5.135  -3.072   0.035  0.00  0.00    -0.083 Cl
BRANCH  18  22
ATOM     22  O   UNL     1      -2.515   1.279   0.044  0.00  0.00    -0.506 OA
ATOM     23  H   UNL     1      -3.478   1.811   0.061  0.00  0.00    +0.292 HD
ENDBRANCH  18  22
ENDBRANCH  12  17
ENDBRANCH  11  13
ENDBRANCH   1  11
BRANCH   8  24
ATOM     24  C   UNL     1       4.099   5.189  -2.624  0.00  0.00    +0.119 C 
BRANCH  24  25
ATOM     25  N   UNL     1       4.208   5.947  -3.873  0.00  0.00    -0.389 N 
ATOM     26  C   UNL     1       4.209   7.242  -3.846  0.00  0.00    +0.089 C 
ATOM     27  H   UNL     1       4.290   5.417  -4.833  0.00  0.00    +0.159 HD
BRANCH  26  28
ATOM     28  C   UNL     1       4.318   8.004  -5.103  0.00  0.00    +0.032 A 
ATOM     29  C   UNL     1       4.319   9.401  -5.078  0.00  0.00    +0.014 A 
ATOM     30  C   UNL     1       4.422  10.109  -6.256  0.00  0.00    +0.021 A 
ATOM     31  C   UNL     1       4.524   9.441  -7.467  0.00  0.00    +0.044 A 
ATOM     32  C   UNL     1       4.525   8.058  -7.504  0.00  0.00    +0.066 A 
ATOM     33  C   UNL     1       4.428   7.332  -6.328  0.00  0.00    +0.127 A 
ATOM     34 CL   UNL     1       4.654  10.344  -8.943  0.00  0.00    -0.083 Cl
BRANCH  33  35
ATOM     35  O   UNL     1       4.434   5.975  -6.363  0.00  0.00    -0.506 OA
ATOM     36  H   UNL     1       4.520   5.450  -7.325  0.00  0.00    +0.292 HD
ENDBRANCH  33  35
ENDBRANCH  26  28
ENDBRANCH  24  25
ENDBRANCH   8  24
TORSDOF 8
