REMARK  Name = ZINC35166961
REMARK  6 active torsions:
REMARK  status: ('A' for Active; 'I' for Inactive)
REMARK    1  A    between atoms: C_1  and  C_2
REMARK    2  A    between atoms: C_3  and  C_17
REMARK    3  A    between atoms: C_4  and  C_10
REMARK    4  A    between atoms: N_19  and  N_20
REMARK    5  A    between atoms: C_21  and  C_22
REMARK    6  A    between atoms: C_25  and  O_28
REMARK                            x       y       z     vdW  Elec       q    Type
REMARK                         _______ _______ _______ _____ _____    ______ ____
ROOT
ATOM      1  C   UNL     1      -0.039   1.491   0.091  0.00  0.00    +0.061 C 
ATOM      2  C   UNL     1      -0.009  -0.015   0.030  0.00  0.00    +0.017 C 
ATOM      3  C   UNL     1      -1.170  -0.703   0.033  0.00  0.00    +0.057 C 
ATOM      4  C   UNL     1      -1.094  -2.215  -0.030  0.00  0.00    +0.139 C 
ATOM      5  N   UNL     1       0.250  -2.813  -0.090  0.00  0.00    -0.315 N 
ATOM      6  C   UNL     1       1.319  -1.992  -0.085  0.00  0.00    +0.135 C 
ATOM      7  S   UNL     1       2.887  -2.675  -0.154  0.00  0.00    -0.019 S 
ATOM      8  N   UNL     1       1.193  -0.660  -0.034  0.00  0.00    -0.300 N 
ATOM      9  H   UNL     1       0.363  -3.776  -0.131  0.00  0.00    +0.149 HD
ATOM     10  H   UNL     1       2.002  -0.124  -0.037  0.00  0.00    +0.154 HD
ENDROOT
BRANCH   4  11
ATOM     11  C   UNL     1      -1.794  -2.766   1.185  0.00  0.00    -0.023 A 
ATOM     12  C   UNL     1      -1.188  -2.690   2.425  0.00  0.00    +0.007 A 
ATOM     13  C   UNL     1      -1.830  -3.195   3.541  0.00  0.00    +0.015 A 
ATOM     14  C   UNL     1      -3.079  -3.776   3.416  0.00  0.00    +0.018 A 
ATOM     15  C   UNL     1      -3.685  -3.852   2.175  0.00  0.00    +0.015 A 
ATOM     16  C   UNL     1      -3.044  -3.342   1.061  0.00  0.00    +0.007 A 
ATOM     17 BR   UNL     1      -3.957  -4.468   4.941  0.00  0.00    -0.050 Br
ENDBRANCH   4  11
BRANCH   3  18
ATOM     18  C   UNL     1      -2.417  -0.034   0.093  0.00  0.00    +0.263 C 
ATOM     19  O   UNL     1      -3.077   0.116  -0.920  0.00  0.00    -0.269 OA
ATOM     20  N   UNL     1      -2.873   0.436   1.271  0.00  0.00    -0.203 N 
ATOM     21  H   UNL     1      -2.316   0.383   2.063  0.00  0.00    +0.178 HD
BRANCH  20  22
ATOM     22  N   UNL     1      -4.153   1.001   1.351  0.00  0.00    -0.187 NA
ATOM     23  C   UNL     1      -4.592   1.454   2.485  0.00  0.00    +0.138 C 
BRANCH  23  24
ATOM     24  C   UNL     1      -5.939   2.049   2.570  0.00  0.00    -0.005 A 
ATOM     25  C   UNL     1      -6.746   2.121   1.431  0.00  0.00    +0.013 A 
ATOM     26  C   UNL     1      -8.004   2.677   1.514  0.00  0.00    +0.046 A 
ATOM     27  C   UNL     1      -8.469   3.167   2.728  0.00  0.00    +0.117 A 
ATOM     28  C   UNL     1      -7.671   3.097   3.862  0.00  0.00    +0.046 A 
ATOM     29  C   UNL     1      -6.414   2.537   3.790  0.00  0.00    +0.013 A 
BRANCH  27  30
ATOM     30  O   UNL     1      -9.710   3.716   2.806  0.00  0.00    -0.507 OA
ATOM     31  H   UNL     1     -10.408   3.081   3.018  0.00  0.00    +0.292 HD
ENDBRANCH  27  30
ENDBRANCH  23  24
ENDBRANCH  20  22
ENDBRANCH   3  18
TORSDOF 5
