REMARK  Name = ZINC04554076
REMARK  7 active torsions:
REMARK  status: ('A' for Active; 'I' for Inactive)
REMARK    1  A    between atoms: C_1  and  C_2
REMARK    2  A    between atoms: C_5  and  C_9
REMARK    3  A    between atoms: C_6  and  O_8
REMARK    4  A    between atoms: C_20  and  C_21
REMARK    5  A    between atoms: C_20  and  C_22
REMARK    6  A    between atoms: C_20  and  N_48
REMARK    7  A    between atoms: C_23  and  O_25
REMARK                            x       y       z     vdW  Elec       q    Type
REMARK                         _______ _______ _______ _____ _____    ______ ____
ROOT
ATOM      1  C   UNL     1       1.147   1.522  -2.508  0.00  0.00    +0.227 C 
ATOM      2  N   UNL     1       1.685   2.403  -3.560  0.00  0.00    -0.313 N 
ATOM      3  C   UNL     1       1.120   3.652  -3.658  0.00  0.00    +0.080 A 
ATOM      4  C   UNL     1      -0.178   3.925  -3.207  0.00  0.00    +0.067 A 
ATOM      5  C   UNL     1      -0.634   5.290  -3.388  0.00  0.00    -0.027 A 
ATOM      6  C   UNL     1       0.254   6.135  -3.965  0.00  0.00    -0.021 A 
ATOM      7  S   UNL     1       1.689   5.143  -4.275  0.00  0.00    -0.080 S 
ATOM      8  C   UNL     1       0.038   7.585  -4.263  0.00  0.00    -0.035 C 
ATOM      9  C   UNL     1      -1.955   7.329  -2.910  0.00  0.00    -0.073 C 
ATOM     10  C   UNL     1      -2.010   5.800  -2.974  0.00  0.00    +0.018 C 
ATOM     11  C   UNL     1      -0.936   2.804  -2.595  0.00  0.00    +0.220 C 
ATOM     12  N   UNL     1      -0.288   1.704  -2.335  0.00  0.00    -0.223 NA
ATOM     13  H   UNL     1       2.398   2.117  -4.152  0.00  0.00    +0.149 HD
ATOM     14  N   UNL     1      -1.418   7.854  -4.182  0.00  0.00    +0.384 N 
ATOM     15  H   UNL     1      -1.889   7.383  -4.963  0.00  0.00    -0.081 HD
ENDROOT
BRANCH   1  20
ATOM     16  C   UNL     1       3.818   2.705   2.483  0.00  0.00    +0.044 C 
ATOM     17  C   UNL     1       3.119   2.396   1.183  0.00  0.00    -0.047 A 
ATOM     18  C   UNL     1       3.735   2.692  -0.019  0.00  0.00    +0.004 A 
ATOM     19  C   UNL     1       3.096   2.409  -1.212  0.00  0.00    +0.011 A 
ATOM     20  C   UNL     1       1.842   1.830  -1.206  0.00  0.00    +0.036 A 
ATOM     21  C   UNL     1       1.223   1.532  -0.001  0.00  0.00    +0.124 A 
ATOM     22  C   UNL     1       1.863   1.822   1.195  0.00  0.00    +0.049 A 
BRANCH  21  23
ATOM     23  O   UNL     1      -0.011   0.963   0.007  0.00  0.00    -0.506 OA
ATOM     24  H   UNL     1       0.002  -0.004   0.002  0.00  0.00    +0.292 HD
ENDBRANCH  21  23
ENDBRANCH   1  20
BRANCH  14  25
ATOM     25  C   UNL     1      -1.670   9.308  -4.276  0.00  0.00    -0.074 C 
ATOM     26  C   UNL     1      -0.967  10.047  -3.136  0.00  0.00    -0.014 C 
ATOM     27  C   UNL     1      -1.141   9.819  -5.618  0.00  0.00    -0.014 C 
ENDBRANCH  14  25
BRANCH  11  28
ATOM     28  O   UNL     1      -2.255   2.922  -2.317  0.00  0.00    -0.492 OA
ATOM     29  H   UNL     1      -2.645   2.131  -1.920  0.00  0.00    +0.294 HD
ENDBRANCH  11  28
TORSDOF 4
