REMARK  Name = ZINC01839118
REMARK  6 active torsions:
REMARK  status: ('A' for Active; 'I' for Inactive)
REMARK    1  A    between atoms: C_1  and  C_2
REMARK    2  A    between atoms: C_3  and  C_15
REMARK    3  A    between atoms: N_6  and  C_9
REMARK    4  A    between atoms: C_15  and  C_35
REMARK    5  A    between atoms: N_21  and  C_26
REMARK    6  A    between atoms: C_26  and  C_27
REMARK                            x       y       z     vdW  Elec       q    Type
REMARK                         _______ _______ _______ _____ _____    ______ ____
ROOT
ATOM      1  C   UNL     1      -0.663   4.181  -0.817  0.00  0.00    +0.206 C 
ATOM      2  C   UNL     1      -1.898   4.820  -0.228  0.00  0.00    +0.084 A 
ATOM      3  C   UNL     1      -3.065   5.350  -0.793  0.00  0.00    +0.261 A 
ATOM      4  N   UNL     1      -4.015   5.866   0.016  0.00  0.00    -0.275 N 
ATOM      5  C   UNL     1      -3.838   5.868   1.349  0.00  0.00    +0.331 A 
ATOM      6  O   UNL     1      -4.704   6.336   2.063  0.00  0.00    -0.246 OA
ATOM      7  N   UNL     1      -2.726   5.363   1.909  0.00  0.00    -0.277 N 
ATOM      8  C   UNL     1      -1.727   4.826   1.125  0.00  0.00    +0.119 A 
ATOM      9  N   UNL     1      -0.522   4.263   1.470  0.00  0.00    -0.270 N 
ATOM     10  C   UNL     1       0.180   3.852   0.399  0.00  0.00    +0.242 C 
ATOM     11  O   UNL     1       1.270   3.322   0.405  0.00  0.00    -0.274 OA
ATOM     12  O   UNL     1      -3.220   5.347  -2.002  0.00  0.00    -0.267 OA
ATOM     13  H   UNL     1      -0.212   4.173   2.385  0.00  0.00    +0.156 HD
ATOM     14  H   UNL     1      -4.826   6.236  -0.366  0.00  0.00    +0.173 HD
ENDROOT
BRANCH   1  17
ATOM     15  C   UNL     1      -2.163   1.716   0.355  0.00  0.00    +0.065 C 
ATOM     16  C   UNL     1      -1.672   1.858  -1.063  0.00  0.00    +0.040 A 
ATOM     17  C   UNL     1      -1.022   2.925  -1.569  0.00  0.00    +0.067 A 
ATOM     18  C   UNL     1      -0.738   2.662  -2.929  0.00  0.00    +0.277 A 
ATOM     19  O   UNL     1      -0.159   3.407  -3.700  0.00  0.00    -0.265 OA
ATOM     20  N   UNL     1      -1.223   1.437  -3.218  0.00  0.00    -0.219 N 
ATOM     21  N   UNL     1      -1.804   0.924  -2.052  0.00  0.00    -0.294 N 
ATOM     22  H   UNL     1      -2.230   0.057  -1.962  0.00  0.00    +0.187 HD
BRANCH  20  23
ATOM     23  C   UNL     1      -1.152   0.793  -4.458  0.00  0.00    +0.067 A 
ATOM     24  C   UNL     1      -0.532   1.418  -5.532  0.00  0.00    +0.028 A 
ATOM     25  C   UNL     1      -0.464   0.778  -6.755  0.00  0.00    +0.002 A 
ATOM     26  C   UNL     1      -1.012  -0.482  -6.909  0.00  0.00    +0.000 A 
ATOM     27  C   UNL     1      -1.630  -1.106  -5.841  0.00  0.00    +0.002 A 
ATOM     28  C   UNL     1      -1.696  -0.475  -4.615  0.00  0.00    +0.028 A 
ENDBRANCH  20  23
ENDBRANCH   1  17
BRANCH   1  29
ATOM     29  C   UNL     1       0.072   5.163  -1.731  0.00  0.00    +0.412 C 
ATOM     30  F   UNL     1      -0.752   5.501  -2.811  0.00  0.00    -0.169 F 
ATOM     31  F   UNL     1       0.394   6.319  -1.011  0.00  0.00    -0.169 F 
ATOM     32  F   UNL     1       1.245   4.568  -2.208  0.00  0.00    -0.169 F 
ENDBRANCH   1  29
BRANCH   7  33
ATOM     33  C   UNL     1      -2.572   5.385   3.366  0.00  0.00    +0.163 C 
BRANCH  33  34
ATOM     34  C   UNL     1      -3.140   4.117   3.950  0.00  0.00    -0.027 A 
ATOM     35  C   UNL     1      -4.472   4.062   4.317  0.00  0.00    +0.008 A 
ATOM     36  C   UNL     1      -4.994   2.900   4.853  0.00  0.00    +0.038 A 
ATOM     37  C   UNL     1      -4.183   1.791   5.021  0.00  0.00    +0.123 A 
ATOM     38  C   UNL     1      -2.849   1.847   4.653  0.00  0.00    +0.038 A 
ATOM     39  C   UNL     1      -2.331   3.009   4.113  0.00  0.00    +0.008 A 
ATOM     40  F   UNL     1      -4.692   0.654   5.545  0.00  0.00    -0.205 F 
ENDBRANCH  33  34
ENDBRANCH   7  33
TORSDOF 5
