REMARK  Name = ZINC46339062
REMARK  9 active torsions:
REMARK  status: ('A' for Active; 'I' for Inactive)
REMARK    1  A    between atoms: C_1  and  C_2
REMARK    2  A    between atoms: N_8  and  C_9
REMARK    3  A    between atoms: C_9  and  C_11
REMARK    4  A    between atoms: C_9  and  C_12
REMARK    5  A    between atoms: C_12  and  N_13
REMARK    6  A    between atoms: N_16  and  N_17
REMARK    7  A    between atoms: N_17  and  C_18
REMARK    8  A    between atoms: C_18  and  N_20
REMARK    9  A    between atoms: N_20  and  C_21
REMARK                            x       y       z     vdW  Elec       q    Type
REMARK                         _______ _______ _______ _____ _____    ______ ____
ROOT
ATOM      1  N   UNL     1      -0.770   1.936   0.755  0.00  0.00    -0.300 N 
ATOM      2  C   UNL     1      -1.047   3.209   0.412  0.00  0.00    +0.316 C 
ATOM      3  O   UNL     1      -0.590   4.128   1.065  0.00  0.00    -0.251 OA
ATOM      4  N   UNL     1      -1.831   3.465  -0.654  0.00  0.00    -0.219 N 
ATOM      5  H   UNL     1      -1.074   1.205   0.194  0.00  0.00    +0.150 HD
ATOM      6  H   UNL     1      -1.973   4.380  -0.943  0.00  0.00    +0.174 HD
ENDROOT
BRANCH   4   7
ATOM      7  N   UNL     1      -2.440   2.409  -1.345  0.00  0.00    -0.245 N 
ATOM      8  H   UNL     1      -2.363   1.502  -1.010  0.00  0.00    +0.172 HD
BRANCH   7   9
ATOM      9  C   UNL     1      -3.134   2.654  -2.474  0.00  0.00    +0.147 C 
ATOM     10  S   UNL     1      -3.879   1.364  -3.317  0.00  0.00    -0.017 S 
BRANCH   9  11
ATOM     11  N   UNL     1      -3.242   3.915  -2.938  0.00  0.00    -0.323 N 
ATOM     12  H   UNL     1      -2.820   4.646  -2.460  0.00  0.00    +0.148 HD
BRANCH  11  13
ATOM     13  C   UNL     1      -3.996   4.181  -4.166  0.00  0.00    +0.072 C 
ATOM     14  C   UNL     1      -3.074   4.038  -5.394  0.00  0.00    +0.022 C 
ATOM     15  C   UNL     1      -3.550   5.154  -6.358  0.00  0.00    +0.002 C 
ATOM     16  C   UNL     1      -3.878   6.321  -5.394  0.00  0.00    +0.002 C 
ATOM     17  C   UNL     1      -4.508   5.632  -4.166  0.00  0.00    +0.022 C 
ENDBRANCH  11  13
ENDBRANCH   9  11
ENDBRANCH   7   9
ENDBRANCH   4   7
BRANCH   1  18
ATOM     18  C   UNL     1      -0.009   1.655   1.975  0.00  0.00    +0.090 C 
BRANCH  18  19
ATOM     19  C   UNL     1       0.064   0.142   2.193  0.00  0.00    -0.054 C 
ATOM     20  C   UNL     1       0.933  -0.155   3.417  0.00  0.00    -0.012 C 
BRANCH  19  27
ATOM     21  C   UNL     1      -0.801  -2.419   1.433  0.00  0.00    -0.013 C 
ATOM     22  C   UNL     1       0.634  -1.954   1.179  0.00  0.00    -0.071 C 
ATOM     23  C   UNL     1       1.172  -2.625  -0.086  0.00  0.00    -0.016 C 
ATOM     24  C   UNL     1       2.608  -2.157  -0.336  0.00  0.00    -0.003 C 
ATOM     25  C   UNL     1       2.626  -0.629  -0.437  0.00  0.00    -0.019 C 
ATOM     26  C   UNL     1       2.035  -0.031   0.841  0.00  0.00    -0.078 C 
ATOM     27  N   UNL     1       0.653  -0.496   1.008  0.00  0.00    +0.384 N 
ATOM     28  H   UNL     1       0.114  -0.247   0.192  0.00  0.00    -0.081 HD
ENDBRANCH  19  27
ENDBRANCH  18  19
ENDBRANCH   1  18
TORSDOF 7
