REMARK  Name = ZINC04889214
REMARK  7 active torsions:
REMARK  status: ('A' for Active; 'I' for Inactive)
REMARK    1  A    between atoms: C_1  and  C_2
REMARK    2  A    between atoms: C_3  and  N_15
REMARK    3  A    between atoms: N_6  and  C_9
REMARK    4  A    between atoms: N_7  and  C_8
REMARK    5  A    between atoms: N_15  and  C_16
REMARK    6  A    between atoms: C_16  and  N_18
REMARK    7  A    between atoms: N_18  and  C_19
REMARK                            x       y       z     vdW  Elec       q    Type
REMARK                         _______ _______ _______ _____ _____    ______ ____
ROOT
ATOM      1  N   UNL     1      -1.588  -0.380   2.935  0.00  0.00    -0.291 N 
ATOM      2  H   UNL     1      -1.226  -1.103   2.400  0.00  0.00    +0.154 HD
ENDROOT
BRANCH   1   5
ATOM      3  C   UNL     1      -2.453   0.834   0.259  0.00  0.00    +0.067 C 
ATOM      4  C   UNL     1      -1.729   1.525   1.385  0.00  0.00    +0.059 A 
ATOM      5  C   UNL     1      -1.362   0.959   2.555  0.00  0.00    +0.120 A 
ATOM      6  C   UNL     1      -0.708   1.948   3.335  0.00  0.00    +0.293 A 
ATOM      7  O   UNL     1      -0.243   1.792   4.450  0.00  0.00    -0.264 OA
ATOM      8  N   UNL     1      -0.694   3.090   2.620  0.00  0.00    -0.216 N 
ATOM      9  N   UNL     1      -1.325   2.836   1.395  0.00  0.00    -0.282 N 
ATOM     10  C   UNL     1      -1.522   3.804   0.313  0.00  0.00    +0.171 C 
BRANCH   8  11
ATOM     11  C   UNL     1      -0.142   4.310   3.025  0.00  0.00    +0.067 A 
ATOM     12  C   UNL     1      -0.877   5.482   2.901  0.00  0.00    +0.028 A 
ATOM     13  C   UNL     1      -0.331   6.684   3.307  0.00  0.00    +0.002 A 
ATOM     14  C   UNL     1       0.951   6.722   3.826  0.00  0.00    +0.000 A 
ATOM     15  C   UNL     1       1.687   5.558   3.946  0.00  0.00    +0.002 A 
ATOM     16  C   UNL     1       1.145   4.352   3.547  0.00  0.00    +0.028 A 
ENDBRANCH   8  11
ENDBRANCH   1   5
BRANCH   1  17
ATOM     17  C   UNL     1      -2.309  -0.654   4.041  0.00  0.00    +0.135 C 
ATOM     18  S   UNL     1      -3.055   0.616   4.912  0.00  0.00    -0.019 S 
BRANCH  17  19
ATOM     19  N   UNL     1      -2.441  -1.928   4.460  0.00  0.00    -0.321 N 
ATOM     20  H   UNL     1      -1.964  -2.640   4.006  0.00  0.00    +0.148 HD
BRANCH  19  21
ATOM     21  C   UNL     1      -3.306  -2.237   5.601  0.00  0.00    +0.034 C 
ATOM     22  C   UNL     1      -3.336  -3.751   5.823  0.00  0.00    +0.029 C 
ATOM     23  C   UNL     1      -4.239  -4.074   7.015  0.00  0.00    -0.008 C 
ATOM     24  C   UNL     1      -5.656  -3.572   6.732  0.00  0.00    +0.007 C 
ATOM     25  C   UNL     1      -5.627  -2.058   6.510  0.00  0.00    -0.008 C 
ATOM     26  C   UNL     1      -4.723  -1.735   5.318  0.00  0.00    +0.029 C 
ATOM     27  C   UNL     1      -5.083  -1.370   7.763  0.00  0.00    +0.007 C 
ATOM     28  C   UNL     1      -3.665  -1.872   8.047  0.00  0.00    -0.008 C 
ATOM     29  C   UNL     1      -3.695  -3.385   8.268  0.00  0.00    +0.007 C 
ATOM     30  C   UNL     1      -2.762  -1.549   6.855  0.00  0.00    +0.029 C 
ENDBRANCH  19  21
ENDBRANCH  17  19
ENDBRANCH   1  17
TORSDOF 5
