REMARK  Name = ZINC59483273
REMARK  11 active torsions:
REMARK  status: ('A' for Active; 'I' for Inactive)
REMARK    1  A    between atoms: C_1  and  C_2
REMARK    2  A    between atoms: C_2  and  O_3
REMARK    3  A    between atoms: O_3  and  C_4
REMARK    4  A    between atoms: C_6  and  C_12
REMARK    5  A    between atoms: C_9  and  O_10
REMARK    6  A    between atoms: N_13  and  N_14
REMARK    7  A    between atoms: C_15  and  C_17
REMARK    8  A    between atoms: N_19  and  C_20
REMARK    9  A    between atoms: C_23  and  C_26
REMARK   10  A    between atoms: C_26  and  C_27
REMARK   11  A    between atoms: C_26  and  C_28
REMARK                            x       y       z     vdW  Elec       q    Type
REMARK                         _______ _______ _______ _____ _____    ______ ____
ROOT
ATOM      1  N   UNL     1      -0.635  -7.105  -1.324  0.00  0.00    -0.199 N 
ATOM      2  C   UNL     1      -0.523  -8.440  -1.177  0.00  0.00    +0.318 C 
ATOM      3  O   UNL     1       0.058  -8.897  -0.213  0.00  0.00    -0.263 OA
ATOM      4  H   UNL     1      -1.100  -6.739  -2.094  0.00  0.00    +0.178 HD
ENDROOT
BRANCH   2   5
ATOM      5  C   UNL     1      -1.112  -9.355  -2.196  0.00  0.00    +0.305 C 
ATOM      6  O   UNL     1      -1.693  -8.897  -3.159  0.00  0.00    -0.265 OA
ATOM      7  N   UNL     1      -1.000 -10.690  -2.048  0.00  0.00    -0.278 N 
ATOM      8  H   UNL     1      -0.479 -11.054  -1.315  0.00  0.00    +0.155 HD
BRANCH   7   9
ATOM      9  C   UNL     1      -1.634 -11.548  -2.950  0.00  0.00    +0.034 A 
ATOM     10  C   UNL     1      -2.166 -12.753  -2.507  0.00  0.00    +0.023 A 
ATOM     11  C   UNL     1      -2.792 -13.599  -3.401  0.00  0.00    +0.006 A 
ATOM     12  C   UNL     1      -2.889 -13.249  -4.736  0.00  0.00    -0.045 A 
ATOM     13  C   UNL     1      -2.360 -12.051  -5.180  0.00  0.00    +0.006 A 
ATOM     14  C   UNL     1      -1.738 -11.197  -4.290  0.00  0.00    +0.023 A 
BRANCH  12  15
ATOM     15  C   UNL     1      -3.572 -14.175  -5.708  0.00  0.00    +0.013 C 
ATOM     16  C   UNL     1      -4.764 -13.457  -6.345  0.00  0.00    +0.012 C 
ATOM     17  C   UNL     1      -2.583 -14.588  -6.800  0.00  0.00    +0.012 C 
ENDBRANCH  12  15
ENDBRANCH   7   9
ENDBRANCH   2   5
BRANCH   1  19
ATOM     18  C   UNL     1      -0.190  -4.958  -0.509  0.00  0.00    +0.138 C 
ATOM     19  N   UNL     1      -0.082  -6.245  -0.367  0.00  0.00    -0.187 NA
BRANCH  18  22
ATOM     20  C   UNL     1       0.824  -1.825   1.294  0.00  0.00    +0.163 A 
ATOM     21  C   UNL     1       0.277  -2.669   0.346  0.00  0.00    +0.059 A 
ATOM     22  C   UNL     1       0.392  -4.054   0.498  0.00  0.00    -0.001 A 
ATOM     23  C   UNL     1       1.061  -4.579   1.607  0.00  0.00    +0.028 A 
ATOM     24  C   UNL     1       1.605  -3.730   2.549  0.00  0.00    +0.063 A 
ATOM     25  C   UNL     1       1.494  -2.355   2.395  0.00  0.00    +0.173 A 
ATOM     26 BR   UNL     1       2.510  -4.441   4.049  0.00  0.00    -0.046 Br
BRANCH  25  27
ATOM     27  O   UNL     1       2.037  -1.523   3.323  0.00  0.00    -0.503 OA
ATOM     28  H   UNL     1       1.436  -1.295   4.046  0.00  0.00    +0.292 HD
ENDBRANCH  25  27
BRANCH  20  29
ATOM     29  O   UNL     1       0.714  -0.477   1.149  0.00  0.00    -0.489 OA
BRANCH  29  31
ATOM     30  C   UNL     1      -0.007   1.526   0.006  0.00  0.00    +0.048 C 
ATOM     31  C   UNL     1       0.014  -0.004  -0.003  0.00  0.00    +0.226 C 
ENDBRANCH  29  31
ENDBRANCH  20  29
ENDBRANCH  18  22
ENDBRANCH   1  19
TORSDOF 8
