REMARK  Name = ZINC13388683
REMARK  16 active torsions:
REMARK  status: ('A' for Active; 'I' for Inactive)
REMARK    1  A    between atoms: C_1  and  C_2
REMARK    2  A    between atoms: C_8  and  C_16
REMARK    3  A    between atoms: C_9  and  C_12
REMARK    4  A    between atoms: C_12  and  C_13
REMARK    5  A    between atoms: C_13  and  N_70
REMARK    6  A    between atoms: C_14  and  N_70
REMARK    7  A    between atoms: C_15  and  N_70
REMARK    8  A    between atoms: C_16  and  S_17
REMARK    9  A    between atoms: S_17  and  C_18
REMARK   10  A    between atoms: C_18  and  C_19
REMARK   11  A    between atoms: C_22  and  C_33
REMARK   12  A    between atoms: C_28  and  C_29
REMARK   13  A    between atoms: C_29  and  C_30
REMARK   14  A    between atoms: C_30  and  N_72
REMARK   15  A    between atoms: C_31  and  N_72
REMARK   16  A    between atoms: C_32  and  N_72
REMARK                            x       y       z     vdW  Elec       q    Type
REMARK                         _______ _______ _______ _____ _____    ______ ____
ROOT
ATOM      1  S   UNL     1      -3.366  -0.635  -1.682  0.00  0.00    -0.151 S 
ENDROOT
BRANCH   1   2
ATOM      2  C   UNL     1      -3.145  -0.077   0.030  0.00  0.00    +0.107 C 
BRANCH   2  10
ATOM      3  C   UNL     1       2.473   1.038  -0.016  0.00  0.00    +0.044 C 
ATOM      4  C   UNL     1       1.160   1.777   0.001  0.00  0.00    -0.050 A 
ATOM      5  C   UNL     1       1.151   3.166   0.009  0.00  0.00    +0.005 A 
ATOM      6  C   UNL     1      -0.038   3.861   0.024  0.00  0.00    +0.026 A 
ATOM      7  C   UNL     1      -1.244   3.167   0.031  0.00  0.00    +0.047 A 
ATOM      8  C   UNL     1      -1.230   1.760   0.017  0.00  0.00    +0.004 A 
ATOM      9  C   UNL     1      -0.013   1.076   0.008  0.00  0.00    +0.013 A 
ATOM     10  C   UNL     1      -2.633   1.341   0.034  0.00  0.00    -0.009 A 
ATOM     11  C   UNL     1      -3.377   2.458   0.047  0.00  0.00    +0.019 A 
ATOM     12  N   UNL     1      -2.564   3.559   0.046  0.00  0.00    -0.358 N 
ATOM     13  H   UNL     1      -2.872   4.479   0.054  0.00  0.00    +0.166 HD
BRANCH  11  14
ATOM     14  C   UNL     1      -4.883   2.495   0.062  0.00  0.00    +0.035 C 
BRANCH  14  15
ATOM     15  C   UNL     1      -5.382   2.374   1.504  0.00  0.00    -0.073 C 
BRANCH  15  18
ATOM     16  C   UNL     1      -7.412   1.227   0.853  0.00  0.00    -0.097 C 
ATOM     17  C   UNL     1      -7.360   2.534   2.890  0.00  0.00    -0.097 C 
ATOM     18  N   UNL     1      -6.859   2.433   1.504  0.00  0.00    +0.376 N 
ATOM     19  H   UNL     1      -7.159   3.263   0.979  0.00  0.00    -0.083 HD
ENDBRANCH  15  18
ENDBRANCH  14  15
ENDBRANCH  11  14
ENDBRANCH   2  10
ENDBRANCH   1   2
BRANCH   1  20
ATOM     20  C   UNL     1      -3.978  -2.334  -1.514  0.00  0.00    +0.107 C 
BRANCH  20  21
ATOM     21  C   UNL     1      -4.207  -2.924  -2.882  0.00  0.00    -0.009 A 
ATOM     22  C   UNL     1      -5.448  -2.870  -3.658  0.00  0.00    +0.004 A 
ATOM     23  C   UNL     1      -6.710  -2.318  -3.432  0.00  0.00    +0.013 A 
ATOM     24  C   UNL     1      -7.685  -2.442  -4.382  0.00  0.00    -0.050 A 
ATOM     25  C   UNL     1      -7.430  -3.113  -5.570  0.00  0.00    +0.005 A 
ATOM     26  C   UNL     1      -6.188  -3.657  -5.818  0.00  0.00    +0.026 A 
ATOM     27  C   UNL     1      -5.183  -3.547  -4.862  0.00  0.00    +0.047 A 
ATOM     28  N   UNL     1      -3.878  -3.983  -4.805  0.00  0.00    -0.358 N 
ATOM     29  H   UNL     1      -3.427  -4.485  -5.501  0.00  0.00    +0.166 HD
ATOM     30  C   UNL     1      -3.313  -3.603  -3.618  0.00  0.00    +0.019 A 
ATOM     31  C   UNL     1      -9.047  -1.847  -4.137  0.00  0.00    +0.044 C 
BRANCH  30  32
ATOM     32  C   UNL     1      -1.896  -3.902  -3.200  0.00  0.00    +0.035 C 
BRANCH  32  33
ATOM     33  C   UNL     1      -1.874  -5.172  -2.347  0.00  0.00    -0.073 C 
BRANCH  33  36
ATOM     34  C   UNL     1      -0.456  -6.531  -0.931  0.00  0.00    -0.097 C 
ATOM     35  C   UNL     1       0.338  -5.808  -3.101  0.00  0.00    -0.097 C 
ATOM     36  N   UNL     1      -0.482  -5.440  -1.927  0.00  0.00    +0.376 N 
ATOM     37  H   UNL     1      -0.092  -4.590  -1.502  0.00  0.00    -0.083 HD
ENDBRANCH  33  36
ENDBRANCH  32  33
ENDBRANCH  30  32
ENDBRANCH  20  21
ENDBRANCH   1  20
TORSDOF 10
