REMARK  Name = ZINC28334858
REMARK  7 active torsions:
REMARK  status: ('A' for Active; 'I' for Inactive)
REMARK    1  A    between atoms: C_1  and  C_2
REMARK    2  A    between atoms: C_2  and  C_4
REMARK    3  A    between atoms: C_2  and  N_14
REMARK    4  A    between atoms: C_7  and  S_10
REMARK    5  A    between atoms: S_10  and  N_13
REMARK    6  A    between atoms: N_14  and  C_15
REMARK    7  A    between atoms: C_16  and  C_18
REMARK                            x       y       z     vdW  Elec       q    Type
REMARK                         _______ _______ _______ _____ _____    ______ ____
ROOT
ATOM      1  C   UNL     1      -3.135   0.976  -1.356  0.00  0.00    +0.033 C 
ATOM      2  C   UNL     1      -2.520   0.923   0.044  0.00  0.00    +0.103 C 
ENDROOT
BRANCH   2   3
ATOM      3  C   UNL     1      -1.200   1.651   0.041  0.00  0.00    -0.027 A 
ATOM      4  C   UNL     1      -0.435   1.690  -1.110  0.00  0.00    +0.007 A 
ATOM      5  C   UNL     1       0.773   2.362  -1.115  0.00  0.00    +0.029 A 
ATOM      6  C   UNL     1       1.219   2.989   0.033  0.00  0.00    +0.105 A 
ATOM      7  C   UNL     1       0.457   2.945   1.186  0.00  0.00    +0.029 A 
ATOM      8  C   UNL     1      -0.751   2.273   1.190  0.00  0.00    +0.007 A 
BRANCH   6   9
ATOM      9  S   UNL     1       2.759   3.846   0.027  0.00  0.00    +0.056 S 
ATOM     10  O   UNL     1       3.207   3.885   1.375  0.00  0.00    -0.153 OA
ATOM     11  O   UNL     1       3.535   3.278  -1.018  0.00  0.00    -0.153 OA
BRANCH   9  12
ATOM     12  N   UNL     1       2.446   5.412  -0.413  0.00  0.00    -0.204 NA
ATOM     13  H   UNL     1       3.386   5.983  -0.429  0.00  0.00    +0.144 HD
ATOM     14  H   UNL     1       1.754   5.865   0.312  0.00  0.00    +0.144 HD
ENDBRANCH   9  12
ENDBRANCH   6   9
ENDBRANCH   2   3
BRANCH   2  15
ATOM     15  N   UNL     1      -3.427   1.563   1.000  0.00  0.00    -0.294 N 
ATOM     16  C   UNL     1      -3.886   2.935   0.769  0.00  0.00    +0.133 C 
ATOM     17  C   UNL     1      -3.840   0.889   2.092  0.00  0.00    +0.247 C 
ATOM     18  O   UNL     1      -3.378  -0.208   2.340  0.00  0.00    -0.270 OA
BRANCH  17  19
ATOM     19  C   UNL     1      -4.853   1.483   2.986  0.00  0.00    +0.042 A 
ATOM     20  C   UNL     1      -4.792   1.253   4.363  0.00  0.00    +0.062 A 
ATOM     21  C   UNL     1      -5.739   1.815   5.198  0.00  0.00    +0.168 A 
ATOM     22  C   UNL     1      -6.761   2.601   4.664  0.00  0.00    +0.184 A 
ATOM     23  C   UNL     1      -6.824   2.824   3.295  0.00  0.00    +0.087 A 
ATOM     24  C   UNL     1      -5.879   2.270   2.457  0.00  0.00    +0.037 A 
ATOM     25 CL   UNL     1      -8.098   3.802   2.635  0.00  0.00    -0.080 Cl
ATOM     26  O   UNL     1      -7.559   3.028   5.685  0.00  0.00    -0.451 OA
ATOM     27  C   UNL     1      -6.786   2.837   6.884  0.00  0.00    +0.466 C 
ATOM     28  O   UNL     1      -5.900   1.752   6.552  0.00  0.00    -0.453 OA
ENDBRANCH  17  19
ENDBRANCH   2  15
TORSDOF 5
