REMARK  Name = ZINC49523252
REMARK  6 active torsions:
REMARK  status: ('A' for Active; 'I' for Inactive)
REMARK    1  A    between atoms: C_1  and  C_2
REMARK    2  A    between atoms: C_3  and  C_11
REMARK    3  A    between atoms: N_13  and  C_14
REMARK    4  A    between atoms: C_14  and  C_15
REMARK    5  A    between atoms: C_21  and  C_23
REMARK    6  A    between atoms: C_24  and  C_28
REMARK                            x       y       z     vdW  Elec       q    Type
REMARK                         _______ _______ _______ _____ _____    ______ ____
ROOT
ATOM      1  C   UNL     1       3.659  -0.302  -4.840  0.00  0.00    +0.108 C 
ENDROOT
BRANCH   1   2
ATOM      2  C   UNL     1       2.753  -1.244  -5.636  0.00  0.00    +0.009 C 
ATOM      3  C   UNL     1       3.292  -2.673  -5.538  0.00  0.00    +0.024 C 
ATOM      4  C   UNL     1       2.364  -3.618  -6.308  0.00  0.00    +0.108 C 
ATOM      5  N   UNL     1       2.217  -3.120  -7.683  0.00  0.00    -0.297 N 
ATOM      6  C   UNL     1       1.792  -1.730  -7.890  0.00  0.00    +0.108 C 
ATOM      7  C   UNL     1       2.726  -0.806  -7.102  0.00  0.00    +0.024 C 
ATOM      8  C   UNL     1       2.469  -3.925  -8.735  0.00  0.00    +0.257 C 
ATOM      9  O   UNL     1       2.799  -5.081  -8.551  0.00  0.00    -0.269 OA
BRANCH   8  10
ATOM     10  C   UNL     1       2.345  -3.405 -10.106  0.00  0.00    +0.117 A 
ATOM     11  C   UNL     1       3.201  -3.538 -11.192  0.00  0.00    +0.081 A 
ATOM     12  N   UNL     1       2.788  -2.943 -12.284  0.00  0.00    -0.146 NA
ATOM     13  N   UNL     1       1.680  -2.294 -12.336  0.00  0.00    -0.110 NA
ATOM     14  S   UNL     1       1.047  -2.429 -10.849  0.00  0.00    +0.041 S 
ATOM     15  C   UNL     1       4.499  -4.301 -11.120  0.00  0.00    +0.069 C 
ENDBRANCH   8  10
ENDBRANCH   1   2
BRANCH   1  18
ATOM     16  C   UNL     1       4.312   0.053  -2.519  0.00  0.00    +0.263 C 
ATOM     17  O   UNL     1       4.944   1.031  -2.875  0.00  0.00    -0.269 OA
ATOM     18  N   UNL     1       3.591  -0.647  -3.417  0.00  0.00    -0.310 N 
ATOM     19  H   UNL     1       3.028  -1.380  -3.122  0.00  0.00    +0.149 HD
BRANCH  16  22
ATOM     20  C   UNL     1       2.567   1.289  -0.248  0.00  0.00    +0.068 C 
ATOM     21  C   UNL     1       3.575   0.175  -0.126  0.00  0.00    +0.069 A 
ATOM     22  C   UNL     1       4.335  -0.349  -1.159  0.00  0.00    +0.131 A 
ATOM     23  N   UNL     1       5.119  -1.343  -0.603  0.00  0.00    -0.295 N 
ATOM     24  C   UNL     1       6.044  -2.186  -1.134  0.00  0.00    +0.093 A 
ATOM     25  C   UNL     1       6.683  -3.088  -0.354  0.00  0.00    +0.018 A 
ATOM     26  C   UNL     1       6.396  -3.162   1.016  0.00  0.00    +0.005 A 
ATOM     27  C   UNL     1       5.469  -2.321   1.556  0.00  0.00    +0.047 A 
ATOM     28  C   UNL     1       4.816  -1.391   0.728  0.00  0.00    +0.138 A 
ATOM     29  N   UNL     1       3.892  -0.467   0.987  0.00  0.00    -0.232 NA
ENDBRANCH  16  22
ENDBRANCH   1  18
TORSDOF 4
