REMARK  Name = ZINC16955253
REMARK  8 active torsions:
REMARK  status: ('A' for Active; 'I' for Inactive)
REMARK    1  A    between atoms: C_2  and  C_10
REMARK    2  A    between atoms: C_3  and  O_9
REMARK    3  A    between atoms: N_11  and  C_12
REMARK    4  A    between atoms: C_12  and  C_13
REMARK    5  A    between atoms: C_16  and  C_19
REMARK    6  A    between atoms: C_19  and  N_20
REMARK    7  A    between atoms: C_21  and  C_22
REMARK    8  A    between atoms: C_23  and  O_30
REMARK                            x       y       z     vdW  Elec       q    Type
REMARK                         _______ _______ _______ _____ _____    ______ ____
ROOT
ATOM      1  C   UNL     1       3.478   2.642  -0.474  0.00  0.00    +0.008 C 
ATOM      2  C   UNL     1       3.096   2.851  -1.940  0.00  0.00    +0.005 C 
ATOM      3  C   UNL     1       4.229   3.583  -2.663  0.00  0.00    +0.005 C 
ATOM      4  C   UNL     1       5.508   2.747  -2.583  0.00  0.00    +0.008 C 
ATOM      5  C   UNL     1       5.891   2.538  -1.117  0.00  0.00    +0.005 C 
ATOM      6  C   UNL     1       4.758   1.806  -0.394  0.00  0.00    +0.005 C 
ENDROOT
BRANCH   1   7
ATOM      7  C   UNL     1       2.345   1.910   0.249  0.00  0.00    +0.115 C 
BRANCH   7   9
ATOM      8  C   UNL     1       0.017   2.292   0.635  0.00  0.00    +0.090 C 
ATOM      9  N   UNL     1       1.175   2.787   0.334  0.00  0.00    -0.389 N 
ATOM     10  H   UNL     1       1.267   3.737   0.165  0.00  0.00    +0.159 HD
BRANCH   8  12
ATOM     11  C   UNL     1       0.865   0.253   1.782  0.00  0.00    +0.033 A 
ATOM     12  C   UNL     1      -0.095   1.263   1.684  0.00  0.00    +0.035 A 
ATOM     13  C   UNL     1      -1.165   1.293   2.589  0.00  0.00    +0.144 A 
ATOM     14  C   UNL     1      -1.261   0.320   3.572  0.00  0.00    +0.084 A 
ATOM     15  C   UNL     1      -0.304  -0.674   3.659  0.00  0.00    +0.043 A 
ATOM     16  C   UNL     1       0.755  -0.708   2.766  0.00  0.00    +0.043 A 
ATOM     17 CL   UNL     1       1.948  -1.962   2.886  0.00  0.00    -0.083 Cl
ATOM     18 CL   UNL     1      -2.583   0.351   4.697  0.00  0.00    -0.080 Cl
BRANCH  13  19
ATOM     19  O   UNL     1      -2.103   2.270   2.503  0.00  0.00    -0.505 OA
ATOM     20  H   UNL     1      -2.886   2.020   1.994  0.00  0.00    +0.292 HD
ENDBRANCH  13  19
ENDBRANCH   8  12
ENDBRANCH   7   9
ENDBRANCH   1   7
BRANCH   4  21
ATOM     21  C   UNL     1       5.273   1.389  -3.248  0.00  0.00    +0.115 C 
BRANCH  21  22
ATOM     22  N   UNL     1       6.542   0.663  -3.340  0.00  0.00    -0.389 N 
ATOM     23  C   UNL     1       6.552  -0.578  -3.706  0.00  0.00    +0.090 C 
ATOM     24  H   UNL     1       7.374   1.113  -3.125  0.00  0.00    +0.159 HD
BRANCH  23  25
ATOM     25  C   UNL     1       5.287  -1.327  -3.807  0.00  0.00    +0.035 A 
ATOM     26  C   UNL     1       5.287  -2.725  -3.706  0.00  0.00    +0.144 A 
ATOM     27  C   UNL     1       4.090  -3.421  -3.802  0.00  0.00    +0.084 A 
ATOM     28  C   UNL     1       2.905  -2.737  -3.996  0.00  0.00    +0.043 A 
ATOM     29  C   UNL     1       2.901  -1.355  -4.096  0.00  0.00    +0.043 A 
ATOM     30  C   UNL     1       4.082  -0.648  -3.998  0.00  0.00    +0.033 A 
ATOM     31 CL   UNL     1       1.405  -0.510  -4.340  0.00  0.00    -0.083 Cl
ATOM     32 CL   UNL     1       4.082  -5.152  -3.678  0.00  0.00    -0.080 Cl
BRANCH  26  33
ATOM     33  O   UNL     1       6.452  -3.395  -3.516  0.00  0.00    -0.505 OA
ATOM     34  H   UNL     1       6.645  -3.592  -2.589  0.00  0.00    +0.292 HD
ENDBRANCH  26  33
ENDBRANCH  23  25
ENDBRANCH  21  22
ENDBRANCH   4  21
TORSDOF 8
