REMARK  Name = ZINC65467546
REMARK  4 active torsions:
REMARK  status: ('A' for Active; 'I' for Inactive)
REMARK    1  A    between atoms: C_6  and  C_10
REMARK    2  A    between atoms: C_10  and  N_11
REMARK    3  A    between atoms: C_18  and  C_20
REMARK    4  A    between atoms: N_22  and  C_23
REMARK                            x       y       z     vdW  Elec       q    Type
REMARK                         _______ _______ _______ _____ _____    ______ ____
ROOT
ATOM      1  N   UNL     1      -2.914  -0.882  -1.359  0.00  0.00    +0.387 N 
ATOM      2  C   UNL     1      -4.334  -0.601  -1.338  0.00  0.00    -0.076 C 
ATOM      3  C   UNL     1      -4.963  -0.173  -2.640  0.00  0.00    +0.005 C 
ATOM      4  C   UNL     1      -5.093  -1.360  -3.607  0.00  0.00    +0.142 C 
ATOM      5  N   UNL     1      -3.759  -1.566  -4.218  0.00  0.00    -0.270 N 
ATOM      6  C   UNL     1      -2.665  -1.919  -3.518  0.00  0.00    +0.024 A 
ATOM      7  C   UNL     1      -1.635  -2.010  -4.380  0.00  0.00    +0.055 A 
ATOM      8  C   UNL     1      -2.184  -1.692  -5.648  0.00  0.00    +0.147 A 
ATOM      9  N   UNL     1      -3.466  -1.440  -5.460  0.00  0.00    -0.166 NA
ATOM     10  C   UNL     1      -2.634  -2.169  -2.021  0.00  0.00    -0.022 C 
ATOM     11  H   UNL     1      -2.440  -0.144  -1.858  0.00  0.00    -0.081 HD
ENDROOT
BRANCH   8  12
ATOM     12  C   UNL     1      -1.459  -1.651  -6.934  0.00  0.00    +0.264 C 
ATOM     13  O   UNL     1      -0.271  -1.906  -6.971  0.00  0.00    -0.268 OA
ATOM     14  N   UNL     1      -2.115  -1.330  -8.067  0.00  0.00    -0.307 N 
ATOM     15  H   UNL     1      -3.063  -1.127  -8.038  0.00  0.00    +0.149 HD
BRANCH  14  16
ATOM     16  C   UNL     1      -1.396  -1.289  -9.343  0.00  0.00    +0.073 C 
ATOM     17  C   UNL     1      -1.681  -0.112 -10.277  0.00  0.00    +0.024 C 
ATOM     18  C   UNL     1      -2.210  -1.506 -10.620  0.00  0.00    +0.024 C 
ENDBRANCH  14  16
ENDBRANCH   8  12
BRANCH   1  19
ATOM     19  C   UNL     1      -2.413  -0.931   0.020  0.00  0.00    -0.020 C 
BRANCH  19  25
ATOM     20  C   UNL     1      -0.017   1.374   0.010  0.00  0.00    +0.100 A 
ATOM     21  C   UNL     1       1.118   2.071   0.003  0.00  0.00    +0.067 A 
ATOM     22  S   UNL     1       2.347   0.776  -0.016  0.00  0.00    -0.058 S 
ATOM     23  C   UNL     1       1.231  -0.608  -0.013  0.00  0.00    +0.179 A 
ATOM     24  N   UNL     1       0.002  -0.004   0.002  0.00  0.00    -0.298 N 
ATOM     25  C   UNL     1      -0.911  -1.056   0.005  0.00  0.00    +0.046 A 
ATOM     26  C   UNL     1      -0.212  -2.204  -0.008  0.00  0.00    +0.150 A 
ATOM     27  N   UNL     1       1.096  -1.903  -0.018  0.00  0.00    -0.209 NA
ATOM     28 CL   UNL     1      -0.885  -3.804  -0.011  0.00  0.00    -0.060 Cl
ENDBRANCH  19  25
ENDBRANCH   1  19
TORSDOF 4
