REMARK  Name = ZINC13479260
REMARK  6 active torsions:
REMARK  status: ('A' for Active; 'I' for Inactive)
REMARK    1  A    between atoms: C_1  and  C_2
REMARK    2  A    between atoms: C_4  and  S_8
REMARK    3  A    between atoms: S_8  and  C_9
REMARK    4  A    between atoms: C_9  and  C_23
REMARK    5  A    between atoms: C_10  and  C_11
REMARK    6  A    between atoms: C_14  and  C_16
REMARK                            x       y       z     vdW  Elec       q    Type
REMARK                         _______ _______ _______ _____ _____    ______ ____
ROOT
ATOM      1  C   UNL     1      -0.834  -2.532  -3.269  0.00  0.00    +0.107 C 
ATOM      2  C   UNL     1      -0.004  -1.587  -3.799  0.00  0.00    +0.068 C 
ENDROOT
BRANCH   2   3
ATOM      3  C   UNL     1      -0.218  -1.116  -5.112  0.00  0.00    +0.130 A 
ATOM      4  C   UNL     1      -0.105   0.197  -5.534  0.00  0.00    +0.050 A 
ATOM      5  C   UNL     1      -0.402   0.209  -6.899  0.00  0.00    +0.050 A 
ATOM      6  C   UNL     1      -0.684  -1.078  -7.261  0.00  0.00    +0.136 A 
ATOM      7  O   UNL     1      -0.565  -1.868  -6.178  0.00  0.00    -0.455 OA
BRANCH   6   8
ATOM      8  C   UNL     1      -1.052  -1.528  -8.617  0.00  0.00    +0.017 A 
ATOM      9  C   UNL     1      -1.132  -0.607  -9.665  0.00  0.00    +0.013 A 
ATOM     10  C   UNL     1      -1.477  -1.034 -10.929  0.00  0.00    +0.021 A 
ATOM     11  C   UNL     1      -1.745  -2.373 -11.162  0.00  0.00    +0.041 A 
ATOM     12  C   UNL     1      -1.668  -3.291 -10.128  0.00  0.00    +0.021 A 
ATOM     13  C   UNL     1      -1.318  -2.878  -8.860  0.00  0.00    +0.013 A 
ATOM     14 CL   UNL     1      -2.179  -2.902 -12.758  0.00  0.00    -0.084 Cl
ENDBRANCH   6   8
ENDBRANCH   2   3
BRANCH   1  15
ATOM     15  C   UNL     1      -2.031  -2.881  -3.942  0.00  0.00    +0.393 C 
ATOM     16  O   UNL     1      -2.379  -2.256  -4.937  0.00  0.00    -0.240 OA
ATOM     17  O   UNL     1      -2.718  -3.808  -3.529  0.00  0.00    -0.240 OA
ENDBRANCH   1  15
BRANCH   1  18
ATOM     18  S   UNL     1      -0.417  -3.318  -1.748  0.00  0.00    -0.043 S 
BRANCH  18  22
ATOM     19  C   UNL     1      -4.720  -1.020   0.209  0.00  0.00    +0.090 C 
ATOM     20  C   UNL     1      -3.494  -1.892   0.133  0.00  0.00    +0.149 A 
ATOM     21  N   UNL     1      -2.693  -2.008  -0.927  0.00  0.00    -0.206 NA
ATOM     22  C   UNL     1      -1.717  -2.849  -0.655  0.00  0.00    +0.189 A 
ATOM     23  N   UNL     1      -1.890  -3.289   0.610  0.00  0.00    -0.253 N 
ATOM     24  H   UNL     1      -1.328  -3.918   1.090  0.00  0.00    +0.191 HD
ATOM     25  N   UNL     1      -3.042  -2.650   1.096  0.00  0.00    -0.157 NA
ENDBRANCH  18  22
ENDBRANCH   1  18
TORSDOF 5
