REMARK  Name = ZINC39530294
REMARK  7 active torsions:
REMARK  status: ('A' for Active; 'I' for Inactive)
REMARK    1  A    between atoms: C_1  and  C_2
REMARK    2  A    between atoms: C_2  and  C_3
REMARK    3  A    between atoms: C_2  and  S_4
REMARK    4  A    between atoms: S_4  and  C_7
REMARK    5  A    between atoms: C_10  and  N_20
REMARK    6  A    between atoms: C_11  and  C_13
REMARK    7  A    between atoms: C_18  and  O_19
REMARK                            x       y       z     vdW  Elec       q    Type
REMARK                         _______ _______ _______ _____ _____    ______ ____
ROOT
ATOM      1  C   UNL     1      -1.585  -2.396   0.061  0.00  0.00    +0.089 A 
ATOM      2  C   UNL     1      -1.394  -3.233  -1.025  0.00  0.00    +0.029 A 
ATOM      3  C   UNL     1      -1.216  -4.590  -0.837  0.00  0.00    +0.025 A 
ATOM      4  C   UNL     1      -1.228  -5.121   0.445  0.00  0.00    +0.038 A 
ATOM      5  C   UNL     1      -1.422  -4.277   1.545  0.00  0.00    +0.008 A 
ATOM      6  C   UNL     1      -1.595  -2.909   1.342  0.00  0.00    +0.037 A 
ENDROOT
BRANCH   4   7
ATOM      7  N   UNL     1      -1.048  -6.492   0.638  0.00  0.00    -0.326 N 
ATOM      8  C   UNL     1       0.300  -7.078   0.678  0.00  0.00    +0.120 C 
ATOM      9  C   UNL     1       0.346  -8.259  -0.297  0.00  0.00    +0.101 C 
ATOM     10  N   UNL     1      -0.746  -9.191   0.015  0.00  0.00    -0.298 NA
ATOM     11  C   UNL     1      -2.058  -8.557  -0.175  0.00  0.00    +0.164 C 
ATOM     12  C   UNL     1      -2.202  -7.387   0.811  0.00  0.00    +0.140 C 
ATOM     13 CL   UNL     1      -3.360  -9.765   0.132  0.00  0.00    -0.103 Cl
ATOM     14  H   UNL     1      -0.670 -10.034  -0.534  0.00  0.00    +0.123 HD
ENDBRANCH   4   7
BRANCH   5  15
ATOM     15  C   UNL     1      -1.437  -4.834   2.918  0.00  0.00    +0.025 A 
ATOM     16  C   UNL     1      -2.617  -4.838   3.659  0.00  0.00    +0.012 A 
ATOM     17  C   UNL     1      -2.627  -5.358   4.937  0.00  0.00    +0.001 A 
ATOM     18  C   UNL     1      -1.467  -5.876   5.487  0.00  0.00    +0.004 A 
ATOM     19  C   UNL     1      -0.291  -5.877   4.761  0.00  0.00    +0.046 A 
ATOM     20  C   UNL     1      -0.269  -5.363   3.475  0.00  0.00    +0.125 A 
BRANCH  20  21
ATOM     21  O   UNL     1       0.886  -5.368   2.759  0.00  0.00    -0.506 OA
ATOM     22  H   UNL     1       1.425  -4.574   2.876  0.00  0.00    +0.292 HD
ENDBRANCH  20  21
ENDBRANCH   5  15
BRANCH   1  23
ATOM     23  S   UNL     1      -1.812  -0.667  -0.194  0.00  0.00    -0.001 S 
ATOM     24  O   UNL     1      -2.554  -0.229   0.936  0.00  0.00    -0.169 OA
ATOM     25  O   UNL     1      -2.354  -0.561  -1.503  0.00  0.00    -0.169 OA
BRANCH  23  27
ATOM     26  C   UNL     1      -0.222   1.558  -0.239  0.00  0.00    +0.032 C 
ATOM     27  C   UNL     1      -0.139   0.033  -0.151  0.00  0.00    +0.130 C 
ATOM     28  C   UNL     1       0.548  -0.366   1.156  0.00  0.00    +0.032 C 
ENDBRANCH  23  27
ENDBRANCH   1  23
TORSDOF 5
