REMARK  Name = ZINC16551917
REMARK  5 active torsions:
REMARK  status: ('A' for Active; 'I' for Inactive)
REMARK    1  A    between atoms: C_4  and  O_7
REMARK    2  A    between atoms: O_7  and  C_8
REMARK    3  A    between atoms: C_13  and  N_14
REMARK    4  A    between atoms: C_15  and  C_17
REMARK    5  A    between atoms: C_25  and  C_27
REMARK                            x       y       z     vdW  Elec       q    Type
REMARK                         _______ _______ _______ _____ _____    ______ ____
ROOT
ATOM      1  N   UNL     1       0.090   5.146  -0.007  0.00  0.00    -0.282 N 
ATOM      2  C   UNL     1      -0.858   5.848   0.644  0.00  0.00    +0.224 C 
ATOM      3  O   UNL     1      -1.688   5.270   1.315  0.00  0.00    -0.275 OA
ATOM      4  H   UNL     1       0.802   5.610  -0.474  0.00  0.00    +0.155 HD
ENDROOT
BRANCH   2   5
ATOM      5  C   UNL     1      -0.888   7.351   0.540  0.00  0.00    +0.124 C 
ATOM      6  C   UNL     1      -1.259   7.803  -0.907  0.00  0.00    +0.154 C 
ATOM      7  C   UNL     1      -1.071   9.349  -0.894  0.00  0.00    +0.003 C 
ATOM      8  C   UNL     1      -2.078   9.838  -0.191  0.00  0.00    +0.003 C 
ATOM      9  C   UNL     1      -2.914   8.638   0.263  0.00  0.00    +0.156 C 
ATOM     10  C   UNL     1      -2.060   7.942   1.368  0.00  0.00    +0.149 C 
ATOM     11  O   UNL     1      -2.724   7.713  -0.862  0.00  0.00    -0.364 OA
BRANCH  10  12
ATOM     12  C   UNL     1      -1.557   8.947   2.373  0.00  0.00    +0.363 C 
ATOM     13  O   UNL     1      -0.376   9.191   2.445  0.00  0.00    -0.246 OA
ATOM     14  O   UNL     1      -2.422   9.572   3.188  0.00  0.00    -0.246 OA
ENDBRANCH  10  12
ENDBRANCH   2   5
BRANCH   1  20
ATOM     15  C   UNL     1       1.231   3.011  -0.011  0.00  0.00    +0.150 A 
ATOM     16  C   UNL     1       1.182   1.626  -0.012  0.00  0.00    +0.048 A 
ATOM     17  C   UNL     1      -0.039   0.977  -0.014  0.00  0.00    +0.004 A 
ATOM     18  C   UNL     1      -1.214   1.706  -0.018  0.00  0.00    +0.002 A 
ATOM     19  C   UNL     1      -1.174   3.087  -0.010  0.00  0.00    +0.027 A 
ATOM     20  C   UNL     1       0.047   3.746  -0.009  0.00  0.00    +0.076 A 
BRANCH  15  21
ATOM     21  O   UNL     1       2.430   3.650  -0.009  0.00  0.00    -0.454 OA
BRANCH  21  25
ATOM     22  C   UNL     1       3.861   5.078   3.587  0.00  0.00    +0.000 A 
ATOM     23  C   UNL     1       4.641   5.168   2.449  0.00  0.00    +0.004 A 
ATOM     24  C   UNL     1       4.165   4.690   1.244  0.00  0.00    +0.046 A 
ATOM     25  C   UNL     1       2.901   4.120   1.175  0.00  0.00    +0.129 A 
ATOM     26  C   UNL     1       2.118   4.037   2.317  0.00  0.00    +0.046 A 
ATOM     27  C   UNL     1       2.601   4.510   3.522  0.00  0.00    +0.004 A 
ENDBRANCH  21  25
ENDBRANCH  15  21
ENDBRANCH   1  20
TORSDOF 5
