REMARK  Name = ZINC24730462
REMARK  10 active torsions:
REMARK  status: ('A' for Active; 'I' for Inactive)
REMARK    1  A    between atoms: C_1  and  C_2
REMARK    2  A    between atoms: C_3  and  C_14
REMARK    3  A    between atoms: C_4  and  C_13
REMARK    4  A    between atoms: C_9  and  S_11
REMARK    5  A    between atoms: S_11  and  C_12
REMARK    6  A    between atoms: C_14  and  C_15
REMARK    7  A    between atoms: N_17  and  C_18
REMARK    8  A    between atoms: C_18  and  C_20
REMARK    9  A    between atoms: C_18  and  C_27
REMARK   10  A    between atoms: C_20  and  C_21
REMARK                            x       y       z     vdW  Elec       q    Type
REMARK                         _______ _______ _______ _____ _____    ______ ____
ROOT
ATOM      1  C   UNL     1       3.171  -3.804  -1.389  0.00  0.00    +0.218 C 
ATOM      2  O   UNL     1       2.489  -3.071  -2.072  0.00  0.00    -0.275 OA
ATOM      3  N   UNL     1       3.602  -4.981  -1.885  0.00  0.00    -0.305 N 
ATOM      4  H   UNL     1       4.154  -5.681  -1.241  0.00  0.00    +0.149 HD
ENDROOT
BRANCH   1   5
ATOM      5  C   UNL     1       3.538  -3.400   0.016  0.00  0.00    +0.134 C 
BRANCH   5   8
ATOM      6  C   UNL     1       4.832  -0.809  -0.288  0.00  0.00    +0.066 C 
ATOM      7  C   UNL     1       3.422  -0.890   0.237  0.00  0.00    +0.047 A 
ATOM      8  C   UNL     1       2.803  -2.136   0.383  0.00  0.00    +0.004 A 
ATOM      9  C   UNL     1       1.531  -2.194   0.858  0.00  0.00    +0.049 A 
ATOM     10  N   UNL     1       0.894  -1.038   1.180  0.00  0.00    -0.200 N 
ATOM     11  C   UNL     1       1.527   0.163   1.026  0.00  0.00    +0.254 A 
ATOM     12  N   UNL     1       2.779   0.211   0.557  0.00  0.00    -0.216 NA
ATOM     13  N   UNL     1       0.679   1.110   1.413  0.00  0.00    -0.183 NA
ATOM     14  C   UNL     1      -0.465   0.555   1.806  0.00  0.00    +0.211 A 
ATOM     15  N   UNL     1      -0.383  -0.754   1.682  0.00  0.00    -0.137 NA
ATOM     16  C   UNL     1       0.838  -3.522   1.026  0.00  0.00    +0.066 C 
BRANCH  14  17
ATOM     17  S   UNL     1      -1.875   1.435   2.394  0.00  0.00    -0.088 S 
ATOM     18  C   UNL     1      -1.365   3.175   2.328  0.00  0.00    +0.093 C 
ENDBRANCH  14  17
ENDBRANCH   5   8
ENDBRANCH   1   5
BRANCH   3  19
ATOM     19  C   UNL     1       3.337  -5.327  -3.284  0.00  0.00    +0.143 C 
BRANCH  19  20
ATOM     20  C   UNL     1       3.060  -6.804  -3.392  0.00  0.00    +0.129 A 
ATOM     21  N   UNL     1       2.969  -7.659  -2.337  0.00  0.00    -0.340 N 
ATOM     22  H   UNL     1       3.103  -7.284  -1.312  0.00  0.00    +0.167 HD
ATOM     23  C   UNL     1       2.706  -8.915  -2.848  0.00  0.00    +0.066 A 
ATOM     24  C   UNL     1       2.510 -10.167  -2.282  0.00  0.00    +0.028 A 
ATOM     25  C   UNL     1       2.264 -11.253  -3.095  0.00  0.00    +0.002 A 
ATOM     26  C   UNL     1       2.214 -11.102  -4.473  0.00  0.00    +0.002 A 
ATOM     27  C   UNL     1       2.404  -9.878  -5.048  0.00  0.00    +0.030 A 
ATOM     28  C   UNL     1       2.654  -8.762  -4.244  0.00  0.00    +0.089 A 
ATOM     29  N   UNL     1       2.878  -7.449  -4.507  0.00  0.00    -0.231 NA
ENDBRANCH  19  20
BRANCH  19  30
ATOM     30  C   UNL     1       4.556  -4.973  -4.138  0.00  0.00    +0.065 C 
BRANCH  30  31
ATOM     31  C   UNL     1       4.755  -3.479  -4.133  0.00  0.00    -0.045 A 
ATOM     32  C   UNL     1       4.111  -2.692  -5.069  0.00  0.00    +0.004 A 
ATOM     33  C   UNL     1       4.291  -1.322  -5.062  0.00  0.00    +0.000 A 
ATOM     34  C   UNL     1       5.123  -0.739  -4.124  0.00  0.00    +0.000 A 
ATOM     35  C   UNL     1       5.771  -1.526  -3.191  0.00  0.00    +0.000 A 
ATOM     36  C   UNL     1       5.588  -2.896  -3.195  0.00  0.00    +0.004 A 
ENDBRANCH  30  31
ENDBRANCH  19  30
ENDBRANCH   3  19
TORSDOF 7
