REMARK  Name = ZINC24872515
REMARK  9 active torsions:
REMARK  status: ('A' for Active; 'I' for Inactive)
REMARK    1  A    between atoms: C_4  and  C_7
REMARK    2  A    between atoms: C_7  and  N_8
REMARK    3  A    between atoms: C_9  and  C_11
REMARK    4  A    between atoms: N_14  and  C_27
REMARK    5  A    between atoms: N_20  and  C_21
REMARK    6  A    between atoms: C_21  and  C_22
REMARK    7  A    between atoms: C_27  and  C_28
REMARK    8  A    between atoms: C_28  and  S_29
REMARK    9  A    between atoms: S_29  and  C_32
REMARK                            x       y       z     vdW  Elec       q    Type
REMARK                         _______ _______ _______ _____ _____    ______ ____
ROOT
ATOM      1  C   UNL     1      -0.129   7.680  -3.003  0.00  0.00    +0.177 C 
ATOM      2  C   UNL     1      -1.529   7.492  -3.598  0.00  0.00    +0.116 C 
ATOM      3  N   UNL     1      -1.586   8.129  -4.920  0.00  0.00    -0.297 NA
ATOM      4  C   UNL     1      -1.376   9.580  -4.822  0.00  0.00    +0.103 C 
ATOM      5  C   UNL     1       0.030   9.854  -4.277  0.00  0.00    +0.125 C 
ATOM      6  N   UNL     1       0.200   9.113  -3.017  0.00  0.00    -0.272 N 
ATOM      7  C   UNL     1       0.640   9.733  -1.904  0.00  0.00    +0.303 C 
ATOM      8  O   UNL     1       0.855   9.089  -0.895  0.00  0.00    -0.253 OA
ATOM      9  N   UNL     1       0.841  11.065  -1.909  0.00  0.00    -0.292 N 
ATOM     10  H   UNL     1       0.568  11.659  -2.793  0.00  0.00    +0.151 HD
ENDROOT
BRANCH   1  12
ATOM     11  N   UNL     1       0.525   6.016  -1.294  0.00  0.00    -0.310 N 
ATOM     12  C   UNL     1      -0.109   7.169  -1.586  0.00  0.00    +0.235 C 
ATOM     13  O   UNL     1      -0.662   7.796  -0.707  0.00  0.00    -0.274 OA
ATOM     14  H   UNL     1       1.027   5.447  -2.091  0.00  0.00    +0.149 HD
BRANCH  11  15
ATOM     15  C   UNL     1       0.545   5.519   0.084  0.00  0.00    +0.139 C 
BRANCH  15  19
ATOM     16  C   UNL     1       2.718   1.845   0.244  0.00  0.00    +0.000 A 
ATOM     17  C   UNL     1       1.356   1.833   0.009  0.00  0.00    +0.000 A 
ATOM     18  C   UNL     1       0.652   3.022  -0.038  0.00  0.00    +0.005 A 
ATOM     19  C   UNL     1       1.312   4.223   0.140  0.00  0.00    -0.030 A 
ATOM     20  C   UNL     1       2.675   4.236   0.370  0.00  0.00    +0.005 A 
ATOM     21  C   UNL     1       3.378   3.047   0.422  0.00  0.00    +0.000 A 
ENDBRANCH  15  19
ENDBRANCH  11  15
ENDBRANCH   1  12
BRANCH   9  22
ATOM     22  C   UNL     1       1.422  11.723  -0.736  0.00  0.00    +0.180 C 
BRANCH  22  23
ATOM     23  C   UNL     1       1.541  13.202  -0.996  0.00  0.00    +0.122 A 
ATOM     24  C   UNL     1       0.603  14.127  -0.722  0.00  0.00    +0.046 A 
ATOM     25  C   UNL     1       1.129  15.376  -1.126  0.00  0.00    +0.041 A 
ATOM     26  C   UNL     1       2.356  15.139  -1.623  0.00  0.00    +0.195 A 
ATOM     27  O   UNL     1       2.603  13.822  -1.537  0.00  0.00    -0.466 OA
ENDBRANCH  22  23
ENDBRANCH   9  22
BRANCH   3  28
ATOM     28  C   UNL     1      -2.853   7.826  -5.597  0.00  0.00    +0.107 C 
BRANCH  28  29
ATOM     29  C   UNL     1      -2.985   8.697  -6.848  0.00  0.00    +0.187 C 
BRANCH  29  30
ATOM     30  S   UNL     1      -4.550   8.322  -7.684  0.00  0.00    -0.002 S 
ATOM     31  O   UNL     1      -4.516   7.007  -8.221  0.00  0.00    -0.169 OA
ATOM     32  O   UNL     1      -5.646   8.750  -6.887  0.00  0.00    -0.169 OA
BRANCH  30  33
ATOM     33  C   UNL     1      -4.577   9.381  -9.092  0.00  0.00    +0.088 A 
ATOM     34  C   UNL     1      -5.141  10.640  -8.999  0.00  0.00    +0.027 A 
ATOM     35  C   UNL     1      -5.158  11.473 -10.102  0.00  0.00    +0.002 A 
ATOM     36  C   UNL     1      -4.619  11.043 -11.301  0.00  0.00    +0.000 A 
ATOM     37  C   UNL     1      -4.060   9.783 -11.395  0.00  0.00    +0.002 A 
ATOM     38  C   UNL     1      -4.040   8.951 -10.291  0.00  0.00    +0.027 A 
ENDBRANCH  30  33
ENDBRANCH  29  30
ENDBRANCH  28  29
ENDBRANCH   3  28
TORSDOF 9
