REMARK  Name = ZINC28052693
REMARK  11 active torsions:
REMARK  status: ('A' for Active; 'I' for Inactive)
REMARK    1  A    between atoms: C_1  and  C_2
REMARK    2  A    between atoms: C_2  and  O_3
REMARK    3  A    between atoms: O_3  and  C_4
REMARK    4  A    between atoms: C_6  and  C_11
REMARK    5  A    between atoms: C_9  and  O_10
REMARK    6  A    between atoms: C_14  and  C_37
REMARK    7  A    between atoms: C_24  and  C_27
REMARK    8  A    between atoms: C_30  and  O_35
REMARK    9  A    between atoms: C_31  and  O_33
REMARK   10  A    between atoms: O_33  and  C_34
REMARK   11  A    between atoms: O_35  and  C_36
REMARK                            x       y       z     vdW  Elec       q    Type
REMARK                         _______ _______ _______ _____ _____    ______ ____
ROOT
ATOM      1  C   UNL     1      -4.608   4.892   0.052  0.00  0.00    +0.091 C 
ATOM      2  C   UNL     1      -4.950   5.420  -1.304  0.00  0.00    +0.049 A 
ATOM      3  C   UNL     1      -5.884   6.356  -1.739  0.00  0.00    +0.087 A 
ATOM      4  N   UNL     1      -5.749   6.426  -3.040  0.00  0.00    -0.081 NA
ATOM      5  O   UNL     1      -4.882   5.678  -3.448  0.00  0.00    -0.339 OA
ATOM      6  C   UNL     1      -4.319   5.006  -2.449  0.00  0.00    +0.226 A 
ATOM      7  N   UNL     1      -3.310   4.066  -2.408  0.00  0.00    -0.286 N 
ATOM      8  C   UNL     1      -2.743   3.763  -1.193  0.00  0.00    +0.019 C 
ATOM      9  C   UNL     1      -3.303   4.125  -0.019  0.00  0.00    +0.024 C 
ATOM     10  C   UNL     1      -2.692   3.799   1.205  0.00  0.00    +0.162 C 
ATOM     11  O   UNL     1      -3.210   4.163   2.243  0.00  0.00    -0.292 OA
ATOM     12  C   UNL     1      -1.415   3.009   1.260  0.00  0.00    +0.088 C 
ATOM     13  C   UNL     1      -1.333   2.112   0.020  0.00  0.00    +0.032 C 
ATOM     14  C   UNL     1      -1.438   2.999  -1.222  0.00  0.00    +0.059 C 
ATOM     15  C   UNL     1      -6.854   7.131  -0.886  0.00  0.00    +0.069 C 
ATOM     16  H   UNL     1      -2.977   3.576  -3.335  0.00  0.00    +0.155 HD
ENDROOT
BRANCH   1  19
ATOM     17  C   UNL     1      -7.403   3.418   2.124  0.00  0.00    +0.162 A 
ATOM     18  C   UNL     1      -6.391   4.260   1.691  0.00  0.00    +0.054 A 
ATOM     19  C   UNL     1      -5.705   3.973   0.525  0.00  0.00    -0.032 A 
ATOM     20  C   UNL     1      -6.019   2.842  -0.205  0.00  0.00    +0.008 A 
ATOM     21  C   UNL     1      -7.025   1.995   0.224  0.00  0.00    +0.049 A 
ATOM     22  C   UNL     1      -7.720   2.280   1.389  0.00  0.00    +0.158 A 
BRANCH  22  23
ATOM     23  O   UNL     1      -8.709   1.448   1.813  0.00  0.00    -0.503 OA
ATOM     24  H   UNL     1      -8.958   0.549   1.231  0.00  0.00    +0.292 HD
ENDBRANCH  22  23
BRANCH  17  25
ATOM     25  O   UNL     1      -8.082   3.702   3.268  0.00  0.00    -0.489 OA
BRANCH  25  27
ATOM     26  C   UNL     1      -8.570   5.038   5.221  0.00  0.00    +0.048 C 
ATOM     27  C   UNL     1      -7.702   4.887   3.970  0.00  0.00    +0.226 C 
ENDBRANCH  25  27
ENDBRANCH  17  25
ENDBRANCH   1  19
BRANCH  13  28
ATOM     28  C   UNL     1      -0.017   1.378   0.010  0.00  0.00    -0.040 A 
ATOM     29  C   UNL     1       1.169   2.089   0.002  0.00  0.00    +0.008 A 
ATOM     30  C   UNL     1       2.379   1.420  -0.013  0.00  0.00    +0.049 A 
ATOM     31  C   UNL     1       2.405   0.035  -0.021  0.00  0.00    +0.161 A 
ATOM     32  C   UNL     1       1.211  -0.680  -0.013  0.00  0.00    +0.162 A 
ATOM     33  C   UNL     1       0.002  -0.004   0.002  0.00  0.00    +0.053 A 
BRANCH  32  34
ATOM     34  O   UNL     1       1.232  -2.040  -0.021  0.00  0.00    -0.491 OA
ATOM     35  C   UNL     1      -0.032  -2.708  -0.013  0.00  0.00    +0.277 C 
ENDBRANCH  32  34
BRANCH  31  36
ATOM     36  O   UNL     1       3.594  -0.625  -0.036  0.00  0.00    -0.491 OA
ATOM     37  C   UNL     1       4.779   0.174  -0.043  0.00  0.00    +0.277 C 
ENDBRANCH  31  36
ENDBRANCH  13  28
TORSDOF 7
