REMARK  Name = ZINC18210296
REMARK  4 active torsions:
REMARK  status: ('A' for Active; 'I' for Inactive)
REMARK    1  A    between atoms: C_4  and  C_7
REMARK    2  A    between atoms: C_9  and  C_13
REMARK    3  A    between atoms: N_17  and  N_18
REMARK    4  A    between atoms: C_19  and  C_20
REMARK                            x       y       z     vdW  Elec       q    Type
REMARK                         _______ _______ _______ _____ _____    ______ ____
ROOT
ATOM      1  C   UNL     1       4.328   6.362   1.090  0.00  0.00    +0.203 A 
ATOM      2  N   UNL     1       5.386   6.991   0.626  0.00  0.00    -0.125 NA
ATOM      3  N   UNL     1       5.372   6.989  -0.658  0.00  0.00    -0.119 NA
ATOM      4  C   UNL     1       4.307   6.355  -1.099  0.00  0.00    +0.223 A 
ATOM      5  N   UNL     1       3.606   5.929  -0.003  0.00  0.00    -0.185 N 
ATOM      6  S   UNL     1       3.866   6.100  -2.785  0.00  0.00    -0.007 SA
ENDROOT
BRANCH   1   9
ATOM      7  C   UNL     1       4.093   6.013   4.744  0.00  0.00    +0.093 A 
ATOM      8  C   UNL     1       4.824   6.318   3.585  0.00  0.00    +0.061 A 
ATOM      9  C   UNL     1       3.982   6.156   2.507  0.00  0.00    +0.105 A 
ATOM     10  N   UNL     1       2.765   5.775   2.996  0.00  0.00    -0.273 N 
ATOM     11  H   UNL     1       1.927   5.597   2.306  0.00  0.00    +0.189 HD
ATOM     12  N   UNL     1       2.867   5.689   4.390  0.00  0.00    -0.173 NA
BRANCH   7  16
ATOM     13  C   UNL     1       5.586   6.116   8.725  0.00  0.00    +0.000 A 
ATOM     14  C   UNL     1       4.272   5.751   8.491  0.00  0.00    +0.001 A 
ATOM     15  C   UNL     1       3.783   5.716   7.200  0.00  0.00    +0.010 A 
ATOM     16  C   UNL     1       4.614   6.050   6.133  0.00  0.00    +0.002 A 
ATOM     17  C   UNL     1       5.937   6.412   6.375  0.00  0.00    +0.010 A 
ATOM     18  C   UNL     1       6.415   6.449   7.669  0.00  0.00    +0.001 A 
ENDBRANCH   7  16
ENDBRANCH   1   9
BRANCH   5  19
ATOM     19  N   UNL     1       2.403   5.211   0.008  0.00  0.00    -0.170 NA
ATOM     20  C   UNL     1       2.422   3.914   0.007  0.00  0.00    +0.141 C 
BRANCH  20  21
ATOM     21  C   UNL     1       1.156   3.157   0.018  0.00  0.00    -0.003 A 
ATOM     22  C   UNL     1       1.174   1.760   0.018  0.00  0.00    +0.009 A 
ATOM     23  C   UNL     1      -0.013   1.058   0.027  0.00  0.00    +0.003 A 
ATOM     24  C   UNL     1      -1.221   1.733   0.032  0.00  0.00    +0.038 A 
ATOM     25  C   UNL     1      -1.247   3.119   0.037  0.00  0.00    +0.124 A 
ATOM     26  C   UNL     1      -0.065   3.834   0.028  0.00  0.00    +0.047 A 
ATOM     27  F   UNL     1      -2.430   3.771   0.046  0.00  0.00    -0.205 F 
ENDBRANCH  20  21
ENDBRANCH   5  19
TORSDOF 4
