REMARK  Name = ZINC45774266
REMARK  4 active torsions:
REMARK  status: ('A' for Active; 'I' for Inactive)
REMARK    1  A    between atoms: C_3  and  N_12
REMARK    2  A    between atoms: C_5  and  N_7
REMARK    3  A    between atoms: N_12  and  S_13
REMARK    4  A    between atoms: S_13  and  C_16
REMARK                            x       y       z     vdW  Elec       q    Type
REMARK                         _______ _______ _______ _____ _____    ______ ____
ROOT
ATOM      1  S   UNL     1       3.780   3.422   0.998  0.00  0.00    +0.072 S 
ATOM      2  O   UNL     1       5.093   3.917   0.774  0.00  0.00    -0.150 OA
ATOM      3  O   UNL     1       2.624   4.235   0.853  0.00  0.00    -0.150 OA
ENDROOT
BRANCH   1   4
ATOM      4  C   UNL     1       3.753   2.795   2.644  0.00  0.00    +0.109 A 
ATOM      5  C   UNL     1       2.553   2.697   3.325  0.00  0.00    +0.030 A 
ATOM      6  C   UNL     1       2.527   2.205   4.615  0.00  0.00    +0.025 A 
ATOM      7  C   UNL     1       3.708   1.810   5.229  0.00  0.00    +0.037 A 
ATOM      8  C   UNL     1       4.911   1.909   4.542  0.00  0.00    -0.024 A 
ATOM      9  C   UNL     1       4.930   2.396   3.250  0.00  0.00    +0.034 A 
ATOM     10  C   UNL     1       6.192   1.479   5.208  0.00  0.00    +0.046 C 
ATOM     11  C   UNL     1       6.118   1.783   6.705  0.00  0.00    +0.101 C 
ATOM     12  C   UNL     1       4.818   1.274   7.267  0.00  0.00    +0.218 C 
ATOM     13  O   UNL     1       4.787   0.825   8.393  0.00  0.00    -0.275 OA
ATOM     14  N   UNL     1       3.689   1.311   6.535  0.00  0.00    -0.285 N 
ATOM     15  H   UNL     1       2.857   0.990   6.916  0.00  0.00    +0.155 HD
ENDBRANCH   1   4
BRANCH   1  16
ATOM     16  N   UNL     1       3.582   2.131  -0.021  0.00  0.00    -0.216 N 
ATOM     17  H   UNL     1       4.297   1.874  -0.624  0.00  0.00    +0.174 HD
BRANCH  16  20
ATOM     18  C   UNL     1      -0.017   1.377   0.010  0.00  0.00    +0.004 A 
ATOM     19  C   UNL     1       1.169   2.087   0.002  0.00  0.00    +0.024 A 
ATOM     20  C   UNL     1       2.384   1.413  -0.013  0.00  0.00    +0.050 A 
ATOM     21  C   UNL     1       2.405   0.025  -0.021  0.00  0.00    +0.052 A 
ATOM     22  C   UNL     1       1.213  -0.684  -0.013  0.00  0.00    +0.067 A 
ATOM     23  C   UNL     1       0.002  -0.004   0.002  0.00  0.00    +0.028 A 
BRANCH  22  24
ATOM     24  N   UNL     1       1.231  -2.086  -0.021  0.00  0.00    -0.240 N 
ATOM     25  C   UNL     1       0.148  -2.895  -0.021  0.00  0.00    +0.114 A 
ATOM     26  C   UNL     1       0.590  -4.174  -0.031  0.00  0.00    +0.041 A 
ATOM     27  C   UNL     1       1.989  -4.146  -0.038  0.00  0.00    +0.135 A 
ATOM     28  N   UNL     1       2.374  -2.896  -0.038  0.00  0.00    -0.175 NA
ENDBRANCH  22  24
ENDBRANCH  16  20
ENDBRANCH   1  16
TORSDOF 4
