REMARK  Name = ZINC13119828
REMARK  6 active torsions:
REMARK  status: ('A' for Active; 'I' for Inactive)
REMARK    1  A    between atoms: C_1  and  C_2
REMARK    2  A    between atoms: C_7  and  C_9
REMARK    3  A    between atoms: C_7  and  C_10
REMARK    4  A    between atoms: C_13  and  C_15
REMARK    5  A    between atoms: C_17  and  C_20
REMARK    6  A    between atoms: C_25  and  O_26
REMARK                            x       y       z     vdW  Elec       q    Type
REMARK                         _______ _______ _______ _____ _____    ______ ____
ROOT
ATOM      1  C   UNL     1      -0.019   1.532   0.011  0.00  0.00    +0.013 C 
ATOM      2  C   UNL     1       0.002  -0.004   0.002  0.00  0.00    -0.014 C 
ATOM      3  C   UNL     1       0.686  -0.578  -1.269  0.00  0.00    +0.030 C 
ATOM      4  C   UNL     1       0.129  -2.024  -1.231  0.00  0.00    +0.077 C 
ATOM      5  C   UNL     1       0.889  -2.772  -0.139  0.00  0.00    +0.029 C 
ATOM      6  C   UNL     1       0.823  -2.104   1.223  0.00  0.00    -0.033 C 
ATOM      7  C   UNL     1       0.726  -0.590   1.212  0.00  0.00    +0.014 C 
ATOM      8  C   UNL     1      -0.331  -2.702   2.041  0.00  0.00    +0.011 C 
ATOM      9  C   UNL     1       2.127  -2.474   1.975  0.00  0.00    +0.011 C 
ATOM     10  N   UNL     1      -1.283  -1.875  -0.825  0.00  0.00    -0.293 N 
ATOM     11  C   UNL     1      -1.417  -0.610  -0.086  0.00  0.00    +0.115 C 
ATOM     12  C   UNL     1      -2.281  -2.741  -1.094  0.00  0.00    +0.269 C 
ATOM     13  O   UNL     1      -2.053  -3.754  -1.725  0.00  0.00    -0.268 OA
ENDROOT
BRANCH  12  14
ATOM     14  C   UNL     1      -3.657  -2.458  -0.619  0.00  0.00    +0.168 A 
ATOM     15  C   UNL     1      -4.790  -3.275  -0.822  0.00  0.00    +0.086 A 
ATOM     16  C   UNL     1      -5.855  -2.667  -0.234  0.00  0.00    +0.171 A 
ATOM     17  O   UNL     1      -5.423  -1.518   0.318  0.00  0.00    -0.354 OA
ATOM     18  N   UNL     1      -4.034  -1.406   0.070  0.00  0.00    -0.073 NA
BRANCH  16  19
ATOM     19  C   UNL     1      -7.241  -3.178  -0.205  0.00  0.00    +0.061 A 
ATOM     20  C   UNL     1      -7.856  -3.603  -1.384  0.00  0.00    +0.015 A 
ATOM     21  C   UNL     1      -9.149  -4.080  -1.351  0.00  0.00    +0.001 A 
ATOM     22  C   UNL     1      -9.841  -4.138  -0.154  0.00  0.00    +0.004 A 
ATOM     23  C   UNL     1      -9.243  -3.720   1.020  0.00  0.00    +0.046 A 
ATOM     24  C   UNL     1      -7.942  -3.244   1.005  0.00  0.00    +0.128 A 
BRANCH  24  25
ATOM     25  O   UNL     1      -7.351  -2.838   2.158  0.00  0.00    -0.506 OA
ATOM     26  H   UNL     1      -7.485  -1.902   2.360  0.00  0.00    +0.292 HD
ENDBRANCH  24  25
ENDBRANCH  16  19
ENDBRANCH  12  14
TORSDOF 3
