REMARK  Name = ZINC11650712
REMARK  8 active torsions:
REMARK  status: ('A' for Active; 'I' for Inactive)
REMARK    1  A    between atoms: C_1  and  C_2
REMARK    2  A    between atoms: C_2  and  C_3
REMARK    3  A    between atoms: C_3  and  N_4
REMARK    4  A    between atoms: C_5  and  O_25
REMARK    5  A    between atoms: C_8  and  S_9
REMARK    6  A    between atoms: S_9  and  C_10
REMARK    7  A    between atoms: C_10  and  C_11
REMARK    8  A    between atoms: N_13  and  C_14
REMARK                            x       y       z     vdW  Elec       q    Type
REMARK                         _______ _______ _______ _____ _____    ______ ____
ROOT
ATOM      1  C   UNL     1       6.877   4.124   1.281  0.00  0.00    +0.228 C 
ATOM      2  O   UNL     1       6.877   4.115   2.494  0.00  0.00    -0.275 OA
ATOM      3  N   UNL     1       7.934   4.625   0.611  0.00  0.00    -0.284 N 
ATOM      4  H   UNL     1       7.963   4.573  -0.357  0.00  0.00    +0.155 HD
ENDROOT
BRANCH   3   5
ATOM      5  C   UNL     1       8.989   5.222   1.313  0.00  0.00    +0.051 A 
ATOM      6  C   UNL     1       9.363   4.730   2.556  0.00  0.00    +0.073 A 
ATOM      7  C   UNL     1      10.408   5.319   3.250  0.00  0.00    +0.164 A 
ATOM      8  C   UNL     1      11.082   6.403   2.699  0.00  0.00    +0.163 A 
ATOM      9  C   UNL     1      10.706   6.893   1.457  0.00  0.00    +0.066 A 
ATOM     10  C   UNL     1       9.667   6.302   0.763  0.00  0.00    +0.043 A 
ATOM     11 BR   UNL     1       9.162   6.970  -0.933  0.00  0.00    -0.048 Br
ATOM     12  O   UNL     1      12.114   6.993   3.364  0.00  0.00    -0.485 OA
ATOM     13  C   UNL     1      12.218   6.716   4.765  0.00  0.00    +0.270 C 
ATOM     14  C   UNL     1      12.047   5.205   4.970  0.00  0.00    +0.270 C 
ATOM     15  O   UNL     1      10.759   4.828   4.470  0.00  0.00    -0.485 OA
ENDBRANCH   3   5
BRANCH   1  16
ATOM     16  C   UNL     1       5.696   3.574   0.524  0.00  0.00    +0.173 C 
BRANCH  16  17
ATOM     17  S   UNL     1       4.448   2.979   1.698  0.00  0.00    -0.077 S 
BRANCH  17  22
ATOM     18  N   UNL     1       1.975   1.827   1.100  0.00  0.00    -0.272 N 
ATOM     19  C   UNL     1       1.242   1.484   0.001  0.00  0.00    +0.317 A 
ATOM     20  N   UNL     1       1.929   1.813  -1.063  0.00  0.00    -0.091 NA
ATOM     21  N   UNL     1       3.139   2.379  -0.640  0.00  0.00    -0.119 NA
ATOM     22  C   UNL     1       3.150   2.376   0.671  0.00  0.00    +0.195 A 
BRANCH  19  23
ATOM     23  O   UNL     1       0.015   0.907   0.010  0.00  0.00    -0.479 OA
ATOM     24  H   UNL     1       0.034  -0.060   0.008  0.00  0.00    +0.295 HD
ENDBRANCH  19  23
BRANCH  18  25
ATOM     25  C   UNL     1       1.573   1.638   2.496  0.00  0.00    +0.128 C 
BRANCH  25  27
ATOM     26  C   UNL     1       1.626   0.069   4.439  0.00  0.00    +0.005 C 
ATOM     27  C   UNL     1       2.046   0.267   2.982  0.00  0.00    +0.018 C 
ENDBRANCH  25  27
ENDBRANCH  18  25
ENDBRANCH  17  22
ENDBRANCH  16  17
ENDBRANCH   1  16
TORSDOF 7
