REMARK  Name = ZINC49937184
REMARK  5 active torsions:
REMARK  status: ('A' for Active; 'I' for Inactive)
REMARK    1  A    between atoms: C_7  and  C_27
REMARK    2  A    between atoms: C_17  and  C_20
REMARK    3  A    between atoms: C_20  and  C_21
REMARK    4  A    between atoms: C_32  and  O_33
REMARK    5  A    between atoms: O_33  and  C_34
REMARK                            x       y       z     vdW  Elec       q    Type
REMARK                         _______ _______ _______ _____ _____    ______ ____
ROOT
ATOM      1  C   UNL     1       0.153   1.336  -0.230  0.00  0.00    +0.033 C 
ATOM      2  C   UNL     1       0.118  -0.004  -0.161  0.00  0.00    +0.031 C 
ATOM      3  C   UNL     1      -1.161  -0.730  -0.087  0.00  0.00    +0.090 C 
ATOM      4  C   UNL     1      -1.143  -2.054   0.182  0.00  0.00    +0.249 C 
ATOM      5  O   UNL     1      -2.308  -2.737   0.288  0.00  0.00    -0.270 OA
ATOM      6  N   UNL     1       0.058  -2.714   0.348  0.00  0.00    -0.214 N 
ATOM      7  C   UNL     1       0.090  -4.177   0.456  0.00  0.00    +0.215 C 
ATOM      8  N   UNL     1       1.208  -4.572   1.317  0.00  0.00    -0.335 N 
ATOM      9  C   UNL     1       2.247  -3.797   1.469  0.00  0.00    +0.196 C 
ATOM     10  N   UNL     1       2.311  -2.576   0.911  0.00  0.00    -0.186 NA
ATOM     11  C   UNL     1       1.243  -2.025   0.377  0.00  0.00    +0.199 C 
ATOM     12  N   UNL     1       1.300  -0.764  -0.164  0.00  0.00    -0.287 N 
ATOM     13  N   UNL     1       3.311  -4.245   2.226  0.00  0.00    -0.301 N 
ATOM     14  C   UNL     1       4.690  -3.894   1.859  0.00  0.00    +0.108 C 
ATOM     15  C   UNL     1       5.378  -3.263   3.073  0.00  0.00    +0.023 C 
ATOM     16  C   UNL     1       5.268  -4.213   4.268  0.00  0.00    -0.004 C 
ATOM     17  C   UNL     1       3.793  -4.436   4.610  0.00  0.00    +0.023 C 
ATOM     18  C   UNL     1       3.087  -5.075   3.416  0.00  0.00    +0.108 C 
ATOM     19  H   UNL     1       2.125  -0.409  -0.530  0.00  0.00    +0.155 HD
ATOM     20  H   UNL     1       1.175  -5.423   1.782  0.00  0.00    +0.164 HD
ENDROOT
BRANCH   7  21
ATOM     21  C   UNL     1       0.272  -4.779  -0.913  0.00  0.00    +0.035 A 
ATOM     22  C   UNL     1      -0.121  -4.076  -2.035  0.00  0.00    +0.011 A 
ATOM     23  C   UNL     1       0.044  -4.628  -3.292  0.00  0.00    +0.001 A 
ATOM     24  C   UNL     1       0.604  -5.885  -3.429  0.00  0.00    +0.004 A 
ATOM     25  C   UNL     1       0.999  -6.592  -2.310  0.00  0.00    +0.046 A 
ATOM     26  C   UNL     1       0.838  -6.038  -1.048  0.00  0.00    +0.127 A 
BRANCH  26  27
ATOM     27  O   UNL     1       1.231  -6.730   0.053  0.00  0.00    -0.495 OA
ATOM     28  C   UNL     1       1.807  -8.020  -0.161  0.00  0.00    +0.277 C 
ENDBRANCH  26  27
ENDBRANCH   7  21
BRANCH  16  29
ATOM     29  C   UNL     1       5.984  -3.601   5.474  0.00  0.00    +0.038 C 
BRANCH  29  30
ATOM     30  C   UNL     1       5.982  -4.588   6.613  0.00  0.00    -0.047 A 
ATOM     31  C   UNL     1       4.940  -4.594   7.520  0.00  0.00    +0.003 A 
ATOM     32  C   UNL     1       4.938  -5.499   8.565  0.00  0.00    +0.000 A 
ATOM     33  C   UNL     1       5.979  -6.398   8.702  0.00  0.00    +0.000 A 
ATOM     34  C   UNL     1       7.021  -6.393   7.794  0.00  0.00    +0.000 A 
ATOM     35  C   UNL     1       7.020  -5.491   6.747  0.00  0.00    +0.003 A 
ENDBRANCH  29  30
ENDBRANCH  16  29
TORSDOF 4
