REMARK  Name = ZINC39938959
REMARK  9 active torsions:
REMARK  status: ('A' for Active; 'I' for Inactive)
REMARK    1  A    between atoms: C_1  and  C_2
REMARK    2  A    between atoms: C_5  and  C_9
REMARK    3  A    between atoms: C_7  and  C_8
REMARK    4  A    between atoms: C_13  and  C_15
REMARK    5  A    between atoms: C_15  and  N_16
REMARK    6  A    between atoms: C_19  and  C_22
REMARK    7  A    between atoms: C_22  and  C_23
REMARK    8  A    between atoms: C_22  and  C_29
REMARK    9  A    between atoms: C_22  and  O_35
REMARK                            x       y       z     vdW  Elec       q    Type
REMARK                         _______ _______ _______ _____ _____    ______ ____
ROOT
ATOM      1  N   UNL     1       1.120  -5.725  -3.290  0.00  0.00    +0.380 N 
ATOM      2  C   UNL     1       1.026  -7.141  -2.917  0.00  0.00    -0.078 C 
ATOM      3  C   UNL     1       0.740  -7.983  -4.162  0.00  0.00    -0.012 C 
ATOM      4  C   UNL     1       1.877  -7.795  -5.171  0.00  0.00    +0.026 C 
ATOM      5  C   UNL     1       2.015  -6.305  -5.497  0.00  0.00    -0.012 C 
ATOM      6  C   UNL     1       2.253  -5.525  -4.202  0.00  0.00    -0.078 C 
ATOM      7  H   UNL     1       0.267  -5.443  -3.749  0.00  0.00    -0.082 HD
ENDROOT
BRANCH   1   8
ATOM      8  C   UNL     1       1.317  -4.913  -2.082  0.00  0.00    -0.063 C 
BRANCH   8  13
ATOM      9  C   UNL     1       1.543  -2.567  -1.236  0.00  0.00    +0.077 C 
ATOM     10  N   UNL     1       0.467  -1.855  -1.041  0.00  0.00    -0.153 NA
ATOM     11  N   UNL     1      -0.524  -2.134  -1.975  0.00  0.00    -0.161 NA
ATOM     12  C   UNL     1      -0.161  -3.036  -2.828  0.00  0.00    +0.115 C 
ATOM     13  C   UNL     1       1.252  -3.429  -2.448  0.00  0.00    +0.066 C 
BRANCH   9  18
ATOM     14  C   UNL     1       6.392  -2.440   1.849  0.00  0.00    +0.044 C 
ATOM     15  C   UNL     1       5.121  -2.473   1.041  0.00  0.00    -0.048 A 
ATOM     16  C   UNL     1       5.018  -3.325  -0.045  0.00  0.00    +0.004 A 
ATOM     17  C   UNL     1       3.858  -3.362  -0.790  0.00  0.00    +0.010 A 
ATOM     18  C   UNL     1       2.784  -2.534  -0.446  0.00  0.00    -0.001 A 
ATOM     19  C   UNL     1       2.896  -1.676   0.652  0.00  0.00    +0.013 A 
ATOM     20  C   UNL     1       4.061  -1.656   1.391  0.00  0.00    -0.047 A 
ATOM     21  C   UNL     1       4.181  -0.736   2.579  0.00  0.00    +0.044 C 
ENDBRANCH   9  18
ENDBRANCH   8  13
ENDBRANCH   1   8
BRANCH   4  22
ATOM     22  C   UNL     1       1.559  -8.571  -6.450  0.00  0.00    +0.119 C 
BRANCH  22  23
ATOM     23  C   UNL     1       2.679  -8.385  -7.442  0.00  0.00    -0.011 A 
ATOM     24  C   UNL     1       3.971  -8.183  -6.995  0.00  0.00    +0.007 A 
ATOM     25  C   UNL     1       4.998  -8.011  -7.905  0.00  0.00    +0.000 A 
ATOM     26  C   UNL     1       4.733  -8.043  -9.261  0.00  0.00    +0.000 A 
ATOM     27  C   UNL     1       3.440  -8.246  -9.708  0.00  0.00    +0.000 A 
ATOM     28  C   UNL     1       2.414  -8.421  -8.798  0.00  0.00    +0.007 A 
ENDBRANCH  22  23
BRANCH  22  29
ATOM     29  C   UNL     1       1.414 -10.036  -6.126  0.00  0.00    -0.011 A 
ATOM     30  C   UNL     1       2.121 -10.584  -5.073  0.00  0.00    +0.007 A 
ATOM     31  C   UNL     1       1.988 -11.928  -4.775  0.00  0.00    +0.000 A 
ATOM     32  C   UNL     1       1.147 -12.723  -5.532  0.00  0.00    +0.000 A 
ATOM     33  C   UNL     1       0.439 -12.174  -6.585  0.00  0.00    +0.000 A 
ATOM     34  C   UNL     1       0.569 -10.830  -6.879  0.00  0.00    +0.007 A 
ENDBRANCH  22  29
BRANCH  22  35
ATOM     35  O   UNL     1       0.339  -8.085  -7.012  0.00  0.00    -0.379 OA
ATOM     36  H   UNL     1      -0.426  -8.173  -6.428  0.00  0.00    +0.211 HD
ENDBRANCH  22  35
ENDBRANCH   4  22
TORSDOF 7
