REMARK  Name = ZINC39683588
REMARK  12 active torsions:
REMARK  status: ('A' for Active; 'I' for Inactive)
REMARK    1  A    between atoms: C_1  and  C_2
REMARK    2  A    between atoms: C_2  and  C_3
REMARK    3  A    between atoms: C_3  and  C_4
REMARK    4  A    between atoms: C_4  and  N_5
REMARK    5  A    between atoms: C_8  and  C_11
REMARK    6  A    between atoms: C_11  and  N_12
REMARK    7  A    between atoms: C_13  and  C_15
REMARK    8  A    between atoms: C_26  and  C_28
REMARK    9  A    between atoms: C_28  and  C_29
REMARK   10  A    between atoms: C_29  and  C_31
REMARK   11  A    between atoms: C_29  and  C_32
REMARK   12  A    between atoms: C_32  and  C_33
REMARK                            x       y       z     vdW  Elec       q    Type
REMARK                         _______ _______ _______ _____ _____    ______ ____
ROOT
ATOM      1  C   UNL     1      -7.707  -8.224   0.837  0.00  0.00    +0.100 C 
ATOM      2  C   UNL     1      -7.034  -8.817   2.095  0.00  0.00    +0.121 C 
ATOM      3  N   UNL     1      -8.149  -9.048   3.042  0.00  0.00    -0.300 N 
ATOM      4  C   UNL     1      -9.257  -9.548   2.193  0.00  0.00    +0.115 C 
ATOM      5  C   UNL     1      -9.165  -8.708   0.903  0.00  0.00    -0.004 C 
ATOM      6  C   UNL     1      -9.490  -9.571  -0.313  0.00  0.00    -0.010 C 
ATOM      7  C   UNL     1     -10.961  -9.992  -0.255  0.00  0.00    -0.082 C 
ATOM      8  N   UNL     1     -11.814  -8.798  -0.234  0.00  0.00    +0.379 N 
ATOM      9  C   UNL     1     -11.560  -8.022   0.986  0.00  0.00    -0.082 C 
ATOM     10  C   UNL     1     -10.114  -7.517   0.980  0.00  0.00    -0.010 C 
ATOM     11  C   UNL     1      -8.155  -8.850   4.376  0.00  0.00    +0.216 C 
ATOM     12  O   UNL     1      -9.155  -9.088   5.019  0.00  0.00    -0.276 OA
ATOM     13  H   UNL     1     -11.612  -8.228  -1.042  0.00  0.00    -0.086 HD
ATOM     14  H   UNL     1     -12.783  -9.078  -0.257  0.00  0.00    -0.086 HD
ENDROOT
BRANCH   1  16
ATOM     15  N   UNL     1      -7.634  -6.016  -0.277  0.00  0.00    -0.315 N 
ATOM     16  C   UNL     1      -7.652  -6.718   0.874  0.00  0.00    +0.218 C 
ATOM     17  O   UNL     1      -7.624  -6.138   1.938  0.00  0.00    -0.275 OA
ATOM     18  H   UNL     1      -7.657  -6.480  -1.128  0.00  0.00    +0.149 HD
BRANCH  15  19
ATOM     19  C   UNL     1      -7.582  -4.553  -0.241  0.00  0.00    +0.107 C 
BRANCH  19  23
ATOM     20  N   UNL     1      -8.765  -2.267  -3.655  0.00  0.00    +0.380 N 
ATOM     21  C   UNL     1      -7.461  -1.940  -3.065  0.00  0.00    -0.079 C 
ATOM     22  C   UNL     1      -7.390  -2.487  -1.638  0.00  0.00    -0.014 C 
ATOM     23  C   UNL     1      -7.571  -4.008  -1.671  0.00  0.00    +0.003 C 
ATOM     24  C   UNL     1      -8.901  -4.339  -2.355  0.00  0.00    -0.014 C 
ATOM     25  C   UNL     1      -8.915  -3.723  -3.755  0.00  0.00    -0.079 C 
ATOM     26  H   UNL     1      -9.498  -1.893  -3.071  0.00  0.00    -0.082 HD
BRANCH  20  27
ATOM     27  C   UNL     1      -8.857  -1.672  -4.995  0.00  0.00    -0.079 C 
BRANCH  27  28
ATOM     28  C   UNL     1      -8.826  -0.147  -4.880  0.00  0.00    -0.019 C 
BRANCH  28  30
ATOM     29  C   UNL     1      -8.890   1.997  -6.161  0.00  0.00    +0.004 C 
ATOM     30  C   UNL     1      -8.922   0.472  -6.276  0.00  0.00    -0.005 C 
ENDBRANCH  28  30
ENDBRANCH  27  28
ENDBRANCH  20  27
ENDBRANCH  19  23
ENDBRANCH  15  19
ENDBRANCH   1  16
BRANCH  11  31
ATOM     31  C   UNL     1      -6.920  -8.332   5.066  0.00  0.00    +0.099 C 
BRANCH  31  32
ATOM     32  C   UNL     1      -7.192  -8.198   6.566  0.00  0.00    -0.006 C 
ATOM     33  C   UNL     1      -8.263  -7.129   6.796  0.00  0.00    +0.008 C 
BRANCH  32  34
ATOM     34  C   UNL     1      -5.904  -7.792   7.284  0.00  0.00    +0.000 C 
ATOM     35  C   UNL     1      -6.144  -7.779   8.794  0.00  0.00    +0.004 C 
ENDBRANCH  32  34
ENDBRANCH  31  32
ENDBRANCH  11  31
TORSDOF 9
