REMARK  Name = ZINC36610012
REMARK  11 active torsions:
REMARK  status: ('A' for Active; 'I' for Inactive)
REMARK    1  A    between atoms: C_1  and  C_2
REMARK    2  A    between atoms: C_2  and  C_3
REMARK    3  A    between atoms: C_3  and  C_4
REMARK    4  A    between atoms: C_4  and  N_5
REMARK    5  A    between atoms: C_6  and  C_8
REMARK    6  A    between atoms: C_8  and  C_10
REMARK    7  A    between atoms: C_8  and  N_16
REMARK    8  A    between atoms: N_16  and  C_17
REMARK    9  A    between atoms: C_23  and  C_25
REMARK   10  A    between atoms: C_26  and  O_32
REMARK   11  A    between atoms: C_30  and  O_31
REMARK                            x       y       z     vdW  Elec       q    Type
REMARK                         _______ _______ _______ _____ _____    ______ ____
ROOT
ATOM      1  N   UNL     1      -4.466  -5.763   0.567  0.00  0.00    -0.255 N 
ATOM      2  C   UNL     1      -3.734  -6.472  -0.314  0.00  0.00    +0.259 C 
ATOM      3  O   UNL     1      -3.474  -6.002  -1.406  0.00  0.00    -0.269 OA
ENDROOT
BRANCH   1   4
ATOM      4  C   UNL     1      -4.682  -6.259   1.857  0.00  0.00    +0.037 A 
ATOM      5  C   UNL     1      -3.955  -5.753   2.927  0.00  0.00    +0.023 A 
ATOM      6  C   UNL     1      -4.170  -6.245   4.200  0.00  0.00    +0.002 A 
ATOM      7  C   UNL     1      -5.107  -7.241   4.408  0.00  0.00    +0.000 A 
ATOM      8  C   UNL     1      -5.832  -7.747   3.345  0.00  0.00    +0.002 A 
ATOM      9  C   UNL     1      -5.626  -7.254   2.071  0.00  0.00    +0.023 A 
ENDBRANCH   1   4
BRANCH   2  10
ATOM     10  C   UNL     1      -3.249  -7.814   0.044  0.00  0.00    +0.120 A 
ATOM     11  C   UNL     1      -4.005  -8.950  -0.284  0.00  0.00    +0.133 A 
ATOM     12  C   UNL     1      -3.538 -10.209   0.058  0.00  0.00    +0.046 A 
ATOM     13  C   UNL     1      -2.333 -10.349   0.719  0.00  0.00    +0.007 A 
ATOM     14  C   UNL     1      -1.579  -9.237   1.048  0.00  0.00    +0.046 A 
ATOM     15  C   UNL     1      -2.024  -7.968   0.710  0.00  0.00    +0.133 A 
BRANCH  15  16
ATOM     16  O   UNL     1      -1.281  -6.879   1.029  0.00  0.00    -0.506 OA
ATOM     17  H   UNL     1      -1.481  -6.507   1.898  0.00  0.00    +0.292 HD
ENDBRANCH  15  16
BRANCH  11  18
ATOM     18  O   UNL     1      -5.189  -8.815  -0.932  0.00  0.00    -0.506 OA
ATOM     19  H   UNL     1      -5.113  -8.831  -1.896  0.00  0.00    +0.292 HD
ENDBRANCH  11  18
ENDBRANCH   2  10
BRANCH   1  20
ATOM     20  C   UNL     1      -5.037  -4.472   0.174  0.00  0.00    +0.170 C 
BRANCH  20  21
ATOM     21  C   UNL     1      -5.883  -4.651  -1.088  0.00  0.00    +0.019 C 
ATOM     22  C   UNL     1      -6.586  -3.334  -1.422  0.00  0.00    +0.006 C 
ATOM     23  C   UNL     1      -7.432  -3.513  -2.684  0.00  0.00    +0.000 C 
ATOM     24  C   UNL     1      -8.479  -4.604  -2.446  0.00  0.00    +0.000 C 
ATOM     25  C   UNL     1      -7.776  -5.921  -2.112  0.00  0.00    +0.000 C 
ATOM     26  C   UNL     1      -6.930  -5.742  -0.850  0.00  0.00    +0.006 C 
ENDBRANCH  20  21
BRANCH  20  28
ATOM     27  N   UNL     1      -4.179  -2.170  -0.116  0.00  0.00    -0.314 N 
ATOM     28  C   UNL     1      -3.925  -3.494  -0.102  0.00  0.00    +0.234 C 
ATOM     29  O   UNL     1      -2.800  -3.897  -0.311  0.00  0.00    -0.274 OA
ATOM     30  H   UNL     1      -5.089  -1.850  -0.016  0.00  0.00    +0.149 HD
BRANCH  27  31
ATOM     31  C   UNL     1      -3.080  -1.215  -0.281  0.00  0.00    +0.104 C 
BRANCH  31  32
ATOM     32  C   UNL     1      -3.637   0.210  -0.261  0.00  0.00    +0.018 C 
BRANCH  32  34
ATOM     33  C   UNL     1      -3.046   2.633  -0.415  0.00  0.00    +0.004 C 
ATOM     34  C   UNL     1      -2.490   1.208  -0.434  0.00  0.00    -0.002 C 
ENDBRANCH  32  34
ENDBRANCH  31  32
ENDBRANCH  27  31
ENDBRANCH  20  28
ENDBRANCH   1  20
TORSDOF 10
