REMARK  Name = ZINC14732739
REMARK  5 active torsions:
REMARK  status: ('A' for Active; 'I' for Inactive)
REMARK    1  A    between atoms: C_1  and  C_2
REMARK    2  A    between atoms: C_2  and  N_3
REMARK    3  A    between atoms: C_6  and  C_8
REMARK    4  A    between atoms: C_17  and  N_65
REMARK    5  A    between atoms: C_21  and  N_65
REMARK                            x       y       z     vdW  Elec       q    Type
REMARK                         _______ _______ _______ _____ _____    ______ ____
ROOT
ATOM      1  N   UNL     1      -3.463  -5.207  -1.600  0.00  0.00    -0.268 N 
ATOM      2  C   UNL     1      -2.728  -4.127  -1.289  0.00  0.00    +0.043 A 
ATOM      3  C   UNL     1      -2.824  -3.949   0.052  0.00  0.00    +0.004 A 
ATOM      4  C   UNL     1      -3.656  -4.979   0.520  0.00  0.00    +0.151 A 
ATOM      5  N   UNL     1      -4.001  -5.697  -0.536  0.00  0.00    -0.166 NA
ATOM      6  C   UNL     1      -2.145  -2.848   0.818  0.00  0.00    +0.023 C 
ATOM      7  C   UNL     1      -1.045  -2.250  -0.070  0.00  0.00    -0.067 C 
ATOM      8  C   UNL     1      -1.622  -1.929  -1.452  0.00  0.00    -0.009 C 
ATOM      9  C   UNL     1      -1.925  -3.234  -2.200  0.00  0.00    +0.054 C 
ENDROOT
BRANCH   4  10
ATOM     10  C   UNL     1      -4.066  -5.216   1.919  0.00  0.00    +0.267 C 
ATOM     11  O   UNL     1      -3.771  -4.413   2.783  0.00  0.00    -0.268 OA
ATOM     12  N   UNL     1      -4.768  -6.322   2.238  0.00  0.00    -0.296 N 
ATOM     13  C   UNL     1      -5.007  -7.371   1.238  0.00  0.00    +0.108 C 
ATOM     14  C   UNL     1      -4.534  -8.714   1.815  0.00  0.00    +0.019 C 
ATOM     15  C   UNL     1      -5.226  -8.957   3.158  0.00  0.00    +0.003 C 
ATOM     16  C   UNL     1      -4.842  -7.848   4.140  0.00  0.00    +0.019 C 
ATOM     17  C   UNL     1      -5.313  -6.498   3.591  0.00  0.00    +0.108 C 
ENDBRANCH   4  10
BRANCH   7  18
ATOM     18  N   UNL     1      -0.539  -1.012   0.552  0.00  0.00    +0.383 N 
ATOM     19  H   UNL     1      -0.550  -1.117   1.573  0.00  0.00    -0.085 HD
ATOM     20  H   UNL     1      -1.143  -0.227   0.283  0.00  0.00    -0.085 HD
BRANCH  18  21
ATOM     21  C   UNL     1       0.840  -0.741   0.105  0.00  0.00    -0.071 C 
ATOM     22  C   UNL     1       1.119   0.759   0.220  0.00  0.00    -0.016 C 
ATOM     23  C   UNL     1       2.628   1.004   0.153  0.00  0.00    -0.002 C 
ATOM     24  C   UNL     1       3.103   0.863  -1.295  0.00  0.00    -0.000 C 
ATOM     25  C   UNL     1       3.164  -0.619  -1.669  0.00  0.00    -0.000 C 
ATOM     26  C   UNL     1       3.807  -1.409  -0.527  0.00  0.00    -0.000 C 
ATOM     27  C   UNL     1       2.765  -2.334   0.104  0.00  0.00    -0.002 C 
ATOM     28  C   UNL     1       1.824  -1.512   0.987  0.00  0.00    -0.016 C 
ENDBRANCH  18  21
ENDBRANCH   7  18
BRANCH   1  30
ATOM     29  C   UNL     1      -2.531  -6.780  -3.225  0.00  0.00    +0.029 C 
ATOM     30  C   UNL     1      -3.629  -5.750  -2.951  0.00  0.00    +0.140 C 
ENDBRANCH   1  30
TORSDOF 4
