REMARK  Name = ZINC20678394
REMARK  5 active torsions:
REMARK  status: ('A' for Active; 'I' for Inactive)
REMARK    1  A    between atoms: C_1  and  C_2
REMARK    2  A    between atoms: C_5  and  O_26
REMARK    3  A    between atoms: C_15  and  C_18
REMARK    4  A    between atoms: C_21  and  O_24
REMARK    5  A    between atoms: O_24  and  C_25
REMARK                            x       y       z     vdW  Elec       q    Type
REMARK                         _______ _______ _______ _____ _____    ______ ____
ROOT
ATOM      1  C   UNL     1      -3.655   0.180  -1.030  0.00  0.00    +0.044 C 
ATOM      2  C   UNL     1      -3.763   1.262   0.013  0.00  0.00    -0.045 A 
ATOM      3  C   UNL     1      -5.001   1.782   0.330  0.00  0.00    +0.007 A 
ATOM      4  C   UNL     1      -5.112   2.775   1.285  0.00  0.00    +0.047 A 
ATOM      5  C   UNL     1      -3.976   3.243   1.922  0.00  0.00    +0.138 A 
ATOM      6  C   UNL     1      -2.721   2.716   1.603  0.00  0.00    +0.074 A 
ATOM      7  C   UNL     1      -2.615   1.724   0.646  0.00  0.00    -0.013 A 
ATOM      8  C   UNL     1      -1.302   1.116   0.252  0.00  0.00    +0.049 C 
ATOM      9  C   UNL     1      -0.897   1.574  -1.131  0.00  0.00    -0.023 C 
ATOM     10  C   UNL     1       0.395   1.785  -1.184  0.00  0.00    -0.030 C 
ATOM     11  C   UNL     1       1.037   1.490   0.157  0.00  0.00    +0.033 C 
ATOM     12  C   UNL     1      -0.144   1.590   1.163  0.00  0.00    +0.029 C 
ATOM     13  C   UNL     1      -0.378   3.080   1.495  0.00  0.00    +0.105 C 
ATOM     14  N   UNL     1      -1.607   3.222   2.277  0.00  0.00    -0.334 N 
ATOM     15  H   UNL     1      -1.574   3.685   3.274  0.00  0.00    +0.147 HD
ENDROOT
BRANCH  13  16
ATOM     16  C   UNL     1      -0.501   3.871   0.218  0.00  0.00    -0.027 A 
ATOM     17  C   UNL     1       0.634   4.221  -0.489  0.00  0.00    +0.009 A 
ATOM     18  C   UNL     1       0.524   4.941  -1.663  0.00  0.00    +0.046 A 
ATOM     19  C   UNL     1      -0.727   5.322  -2.126  0.00  0.00    +0.120 A 
ATOM     20  C   UNL     1      -1.864   4.975  -1.412  0.00  0.00    +0.046 A 
ATOM     21  C   UNL     1      -1.749   4.250  -0.242  0.00  0.00    +0.009 A 
BRANCH  19  22
ATOM     22  O   UNL     1      -0.838   6.036  -3.277  0.00  0.00    -0.495 OA
ATOM     23  C   UNL     1       0.376   6.358  -3.960  0.00  0.00    +0.277 C 
ENDBRANCH  19  22
ENDBRANCH  13  16
BRANCH   5  24
ATOM     24  O   UNL     1      -4.081   4.220   2.862  0.00  0.00    -0.505 OA
ATOM     25  H   UNL     1      -3.180   4.593   3.370  0.00  0.00    +0.292 HD
ENDBRANCH   5  24
TORSDOF 3
