REMARK  Name = ZINC09009575
REMARK  8 active torsions:
REMARK  status: ('A' for Active; 'I' for Inactive)
REMARK    1  A    between atoms: C_1  and  C_2
REMARK    2  A    between atoms: C_2  and  C_3
REMARK    3  A    between atoms: C_2  and  C_4
REMARK    4  A    between atoms: C_2  and  C_5
REMARK    5  A    between atoms: C_5  and  C_7
REMARK    6  A    between atoms: C_9  and  C_32
REMARK    7  A    between atoms: C_32  and  C_34
REMARK    8  A    between atoms: C_38  and  N_40
REMARK                            x       y       z     vdW  Elec       q    Type
REMARK                         _______ _______ _______ _____ _____    ______ ____
ROOT
ATOM      1  C   UNL     1       4.655   3.880  -0.535  0.00  0.00    +0.153 C 
ATOM      2  C   UNL     1       3.146   4.153  -0.798  0.00  0.00    +0.109 C 
ATOM      3  C   UNL     1       2.527   4.304   0.606  0.00  0.00    +0.108 C 
ATOM      4  C   UNL     1       1.454   3.298   0.846  0.00  0.00    -0.008 A 
ATOM      5  C   UNL     1       1.466   1.920   0.852  0.00  0.00    +0.006 A 
ATOM      6  C   UNL     1       0.262   1.277   1.117  0.00  0.00    +0.000 A 
ATOM      7  C   UNL     1      -0.896   1.989   1.357  0.00  0.00    +0.002 A 
ATOM      8  C   UNL     1      -0.916   3.375   1.358  0.00  0.00    +0.023 A 
ATOM      9  C   UNL     1       0.285   4.033   1.094  0.00  0.00    +0.038 A 
ATOM     10  N   UNL     1       0.547   5.391   1.027  0.00  0.00    -0.284 N 
ATOM     11  C   UNL     1       1.844   5.642   0.743  0.00  0.00    +0.231 C 
ATOM     12  O   UNL     1       2.359   6.733   0.621  0.00  0.00    -0.274 OA
ATOM     13  C   UNL     1       3.696   4.168   1.569  0.00  0.00    +0.117 C 
ATOM     14  N   UNL     1       4.669   3.322   0.823  0.00  0.00    -0.311 N 
ATOM     15  C   UNL     1       5.860   3.287   1.510  0.00  0.00    +0.038 A 
ATOM     16  C   UNL     1       7.096   3.411   0.907  0.00  0.00    +0.024 A 
ATOM     17  C   UNL     1       8.245   3.371   1.675  0.00  0.00    +0.002 A 
ATOM     18  C   UNL     1       8.167   3.207   3.048  0.00  0.00    +0.001 A 
ATOM     19  C   UNL     1       6.939   3.079   3.669  0.00  0.00    +0.010 A 
ATOM     20  C   UNL     1       5.778   3.115   2.909  0.00  0.00    -0.004 A 
ATOM     21  C   UNL     1       4.439   2.969   3.529  0.00  0.00    +0.007 C 
ATOM     22  C   UNL     1       3.389   3.492   2.870  0.00  0.00    -0.003 C 
ATOM     23  H   UNL     1      -0.121   6.080   1.167  0.00  0.00    +0.155 HD
ENDROOT
BRANCH   1  24
ATOM     24  C   UNL     1       5.195   2.881  -1.525  0.00  0.00    +0.160 C 
ATOM     25  O   UNL     1       5.123   1.699  -1.290  0.00  0.00    -0.295 OA
BRANCH  24  27
ATOM     26  C   UNL     1       6.434   2.166  -3.550  0.00  0.00    +0.018 C 
ATOM     27  C   UNL     1       5.824   3.357  -2.809  0.00  0.00    +0.022 C 
ATOM     28  C   UNL     1       4.758   4.014  -3.687  0.00  0.00    +0.018 C 
ATOM     29  C   UNL     1       6.922   4.376  -2.491  0.00  0.00    +0.018 C 
ENDBRANCH  24  27
ENDBRANCH   1  24
BRANCH   2  30
ATOM     30  C   UNL     1       2.972   5.424  -1.589  0.00  0.00    +0.170 C 
ATOM     31  O   UNL     1       3.815   6.294  -1.532  0.00  0.00    -0.292 OA
BRANCH  30  32
ATOM     32  C   UNL     1       1.779   5.610  -2.430  0.00  0.00    +0.020 A 
ATOM     33  C   UNL     1       0.767   4.645  -2.437  0.00  0.00    +0.011 A 
ATOM     34  C   UNL     1      -0.351   4.829  -3.224  0.00  0.00    +0.003 A 
ATOM     35  C   UNL     1      -0.467   5.960  -4.013  0.00  0.00    +0.033 A 
ATOM     36  C   UNL     1       0.533   6.917  -4.016  0.00  0.00    +0.127 A 
ATOM     37  C   UNL     1       1.654   6.750  -3.230  0.00  0.00    +0.044 A 
BRANCH  36  38
ATOM     38  N   UNL     1       0.398   8.122  -4.864  0.00  0.00    +0.056 N 
ATOM     39  O   UNL     1       1.277   8.966  -4.867  0.00  0.00    -0.126 OA
ATOM     40  O   UNL     1      -0.591   8.271  -5.559  0.00  0.00    -0.126 OA
ENDBRANCH  36  38
ENDBRANCH  30  32
ENDBRANCH   2  30
TORSDOF 5
