REMARK  Name = ZINC65490610
REMARK  7 active torsions:
REMARK  status: ('A' for Active; 'I' for Inactive)
REMARK    1  A    between atoms: C_1  and  C_2
REMARK    2  A    between atoms: C_2  and  C_3
REMARK    3  A    between atoms: C_2  and  N_4
REMARK    4  A    between atoms: C_13  and  C_15
REMARK    5  A    between atoms: N_17  and  C_18
REMARK    6  A    between atoms: C_18  and  C_19
REMARK    7  A    between atoms: C_19  and  C_20
REMARK                            x       y       z     vdW  Elec       q    Type
REMARK                         _______ _______ _______ _____ _____    ______ ____
ROOT
ATOM      1  C   UNL     1       3.663  -5.297   3.278  0.00  0.00    +0.259 C 
ATOM      2  O   UNL     1       3.425  -6.291   2.620  0.00  0.00    -0.269 OA
ATOM      3  N   UNL     1       4.680  -5.301   4.162  0.00  0.00    -0.310 N 
ATOM      4  H   UNL     1       4.870  -4.508   4.687  0.00  0.00    +0.149 HD
ENDROOT
BRANCH   1  13
ATOM      5  N   UNL     1       0.814  -0.489   1.126  0.00  0.00    +0.382 N 
ATOM      6  C   UNL     1       0.188  -0.107   2.367  0.00  0.00    -0.077 C 
ATOM      7  C   UNL     1       1.273   0.242   3.379  0.00  0.00    -0.002 C 
ATOM      8  C   UNL     1       1.774  -0.923   4.141  0.00  0.00    +0.104 C 
ATOM      9  N   UNL     1       2.332  -1.890   3.169  0.00  0.00    -0.224 NA
ATOM     10  C   UNL     1       1.314  -2.546   2.403  0.00  0.00    +0.084 C 
ATOM     11  C   UNL     1       0.933  -1.977   1.046  0.00  0.00    -0.053 C 
ATOM     12  C   UNL     1       1.806  -3.975   2.261  0.00  0.00    +0.021 C 
ATOM     13  C   UNL     1       2.837  -4.085   3.109  0.00  0.00    +0.101 C 
ATOM     14  N   UNL     1       3.022  -2.888   3.812  0.00  0.00    -0.273 N 
ATOM     15  H   UNL     1       3.549  -2.781   4.619  0.00  0.00    +0.167 HD
ATOM     16  H   UNL     1       1.733  -0.076   1.077  0.00  0.00    -0.081 HD
BRANCH   5  18
ATOM     17  C   UNL     1      -0.002   1.526  -0.002  0.00  0.00    -0.014 C 
ATOM     18  C   UNL     1       0.002  -0.004   0.002  0.00  0.00    -0.075 C 
ATOM     19  C   UNL     1       0.594  -0.516  -1.313  0.00  0.00    -0.014 C 
ENDBRANCH   5  18
ENDBRANCH   1  13
BRANCH   3  20
ATOM     20  C   UNL     1       5.500  -6.504   4.330  0.00  0.00    +0.110 C 
BRANCH  20  21
ATOM     21  C   UNL     1       6.577  -6.244   5.385  0.00  0.00    +0.074 C 
BRANCH  21  22
ATOM     22  C   UNL     1       7.420  -7.481   5.558  0.00  0.00    +0.041 A 
ATOM     23  C   UNL     1       8.487  -7.825   4.815  0.00  0.00    -0.004 A 
ATOM     24  C   UNL     1       8.982  -9.046   5.304  0.00  0.00    +0.066 A 
ATOM     25  N   UNL     1       8.238  -9.416   6.305  0.00  0.00    -0.178 NA
ATOM     26  N   UNL     1       7.243  -8.444   6.491  0.00  0.00    -0.281 N 
ATOM     27  H   UNL     1       6.550  -8.460   7.170  0.00  0.00    +0.189 HD
ATOM     28  C   UNL     1      10.178  -9.755   4.716  0.00  0.00    +0.057 C 
ATOM     29  C   UNL     1      10.450  -9.165   3.326  0.00  0.00    +0.007 C 
ATOM     30  C   UNL     1      10.507  -7.639   3.415  0.00  0.00    +0.005 C 
ATOM     31  C   UNL     1       9.099  -7.081   3.654  0.00  0.00    +0.039 C 
ENDBRANCH  21  22
ENDBRANCH  20  21
ENDBRANCH   3  20
TORSDOF 5
