REMARK  Name = ZINC33768903
REMARK  6 active torsions:
REMARK  status: ('A' for Active; 'I' for Inactive)
REMARK    1  A    between atoms: C_2  and  C_3
REMARK    2  A    between atoms: C_3  and  N_4
REMARK    3  A    between atoms: C_8  and  C_9
REMARK    4  A    between atoms: C_10  and  C_11
REMARK    5  A    between atoms: N_19  and  C_20
REMARK    6  A    between atoms: C_24  and  O_26
REMARK                            x       y       z     vdW  Elec       q    Type
REMARK                         _______ _______ _______ _____ _____    ______ ____
ROOT
ATOM      1  N   UNL     1      -2.146   1.365  -1.112  0.00  0.00    -0.242 N 
ATOM      2  C   UNL     1      -2.969   0.340  -0.960  0.00  0.00    +0.259 C 
ATOM      3  O   UNL     1      -3.065  -0.246   0.102  0.00  0.00    -0.269 OA
ATOM      4  C   UNL     1      -3.764  -0.059  -2.135  0.00  0.00    +0.078 C 
ATOM      5  C   UNL     1      -4.676  -1.066  -2.261  0.00  0.00    +0.020 C 
ATOM      6  S   UNL     1      -3.210   1.128  -3.350  0.00  0.00    -0.049 S 
ATOM      7  C   UNL     1      -2.055   2.019  -2.321  0.00  0.00    +0.169 C 
ATOM      8  N   UNL     1      -1.301   3.047  -2.639  0.00  0.00    -0.225 NA
ENDROOT
BRANCH   8   9
ATOM      9  C   UNL     1      -1.349   3.565  -3.904  0.00  0.00    +0.070 A 
ATOM     10  C   UNL     1      -1.334   2.713  -5.012  0.00  0.00    +0.028 A 
ATOM     11  C   UNL     1      -1.382   3.239  -6.286  0.00  0.00    +0.006 A 
ATOM     12  C   UNL     1      -1.447   4.608  -6.472  0.00  0.00    +0.045 A 
ATOM     13  C   UNL     1      -1.462   5.463  -5.378  0.00  0.00    +0.119 A 
ATOM     14  C   UNL     1      -1.420   4.947  -4.094  0.00  0.00    +0.073 A 
BRANCH  13  15
ATOM     15  O   UNL     1      -1.525   6.807  -5.567  0.00  0.00    -0.507 OA
ATOM     16  H   UNL     1      -1.538   7.485  -4.701  0.00  0.00    +0.292 HD
ENDBRANCH  13  15
ENDBRANCH   8   9
BRANCH   5  17
ATOM     17  C   UNL     1      -4.966  -1.895  -1.159  0.00  0.00    +0.002 C 
ATOM     18  C   UNL     1      -5.872  -2.894  -1.284  0.00  0.00    +0.008 C 
BRANCH  18  19
ATOM     19  C   UNL     1      -6.175  -3.760  -0.135  0.00  0.00    -0.025 A 
ATOM     20  C   UNL     1      -5.524  -3.559   1.087  0.00  0.00    +0.008 A 
ATOM     21  C   UNL     1      -5.818  -4.372   2.161  0.00  0.00    +0.001 A 
ATOM     22  C   UNL     1      -6.745  -5.392   2.030  0.00  0.00    +0.000 A 
ATOM     23  C   UNL     1      -7.388  -5.601   0.822  0.00  0.00    +0.001 A 
ATOM     24  C   UNL     1      -7.110  -4.793  -0.260  0.00  0.00    +0.008 A 
ENDBRANCH  18  19
ENDBRANCH   5  17
BRANCH   1  25
ATOM     25  C   UNL     1      -1.328   1.812   0.018  0.00  0.00    +0.142 C 
BRANCH  25  27
ATOM     26  C   UNL     1       1.113   1.746   0.001  0.00  0.00    +0.005 C 
ATOM     27  C   UNL     1      -0.013   1.076   0.008  0.00  0.00    -0.015 C 
ENDBRANCH  25  27
ENDBRANCH   1  25
TORSDOF 6
