REMARK  Name = ZINC09111051
REMARK  7 active torsions:
REMARK  status: ('A' for Active; 'I' for Inactive)
REMARK    1  A    between atoms: C_1  and  C_2
REMARK    2  A    between atoms: C_4  and  C_37
REMARK    3  A    between atoms: N_8  and  S_9
REMARK    4  A    between atoms: S_9  and  C_12
REMARK    5  A    between atoms: C_15  and  N_18
REMARK    6  A    between atoms: N_18  and  C_19
REMARK    7  A    between atoms: C_19  and  N_21
REMARK                            x       y       z     vdW  Elec       q    Type
REMARK                         _______ _______ _______ _____ _____    ______ ____
ROOT
ATOM      1  C   UNL     1       0.001   1.418   0.148  0.00  0.00    +0.109 A 
ATOM      2  C   UNL     1       1.194   2.116   0.168  0.00  0.00    +0.030 A 
ATOM      3  C   UNL     1       2.395   1.436   0.108  0.00  0.00    +0.025 A 
ATOM      4  C   UNL     1       2.403   0.049   0.028  0.00  0.00    +0.033 A 
ATOM      5  C   UNL     1       1.202  -0.649   0.008  0.00  0.00    +0.025 A 
ATOM      6  C   UNL     1       0.005   0.037   0.068  0.00  0.00    +0.030 A 
ENDROOT
BRANCH   1   7
ATOM      7  S   UNL     1      -1.529   2.290   0.217  0.00  0.00    +0.075 S 
ATOM      8  O   UNL     1      -1.270   3.602  -0.262  0.00  0.00    -0.150 OA
ATOM      9  O   UNL     1      -2.506   1.443  -0.372  0.00  0.00    -0.150 OA
BRANCH   7  17
ATOM     10  C   UNL     1       2.240   4.656   2.603  0.00  0.00    +0.066 C 
ATOM     11  C   UNL     1       0.857   4.266   3.056  0.00  0.00    +0.044 A 
ATOM     12  C   UNL     1       0.388   4.661   4.299  0.00  0.00    +0.046 A 
ATOM     13  C   UNL     1      -0.891   4.282   4.676  0.00  0.00    +0.044 A 
ATOM     14  N   UNL     1      -1.621   3.558   3.843  0.00  0.00    -0.219 NA
ATOM     15  C   UNL     1      -1.143   3.197   2.662  0.00  0.00    +0.235 A 
ATOM     16  N   UNL     1       0.077   3.539   2.273  0.00  0.00    -0.219 NA
ATOM     17  N   UNL     1      -1.935   2.441   1.815  0.00  0.00    -0.184 N 
ATOM     18  C   UNL     1      -1.443   4.688   6.018  0.00  0.00    +0.066 C 
ATOM     19  H   UNL     1      -2.727   1.998   2.158  0.00  0.00    +0.177 HD
ENDBRANCH   7  17
ENDBRANCH   1   7
BRANCH   4  20
ATOM     20  N   UNL     1       3.617  -0.643  -0.034  0.00  0.00    -0.297 N 
ATOM     21  H   UNL     1       3.625  -1.612   0.005  0.00  0.00    +0.154 HD
BRANCH  20  22
ATOM     22  C   UNL     1       4.775   0.037  -0.145  0.00  0.00    +0.137 C 
ATOM     23  S   UNL     1       5.847   0.128   1.187  0.00  0.00    -0.018 S 
BRANCH  22  24
ATOM     24  N   UNL     1       5.090   0.646  -1.306  0.00  0.00    -0.312 N 
ATOM     25  C   UNL     1       6.387   1.312  -1.476  0.00  0.00    +0.112 C 
ATOM     26  C   UNL     1       7.050   0.838  -2.767  0.00  0.00    +0.027 C 
ATOM     27  C   UNL     1       6.087   0.945  -3.950  0.00  0.00    +0.018 C 
ATOM     28  C   UNL     1       4.861   0.077  -3.653  0.00  0.00    +0.054 C 
ATOM     29  C   UNL     1       4.138   0.663  -2.428  0.00  0.00    +0.116 C 
ATOM     30  C   UNL     1       5.301  -1.324  -3.300  0.00  0.00    +0.027 A 
ATOM     31  C   UNL     1       4.434  -2.339  -3.561  0.00  0.00    +0.022 A 
ATOM     32  C   UNL     1       4.748  -3.653  -3.197  0.00  0.00    +0.007 A 
ATOM     33  C   UNL     1       5.925  -3.896  -2.553  0.00  0.00    +0.070 A 
ATOM     34  C   UNL     1       6.795  -2.827  -2.296  0.00  0.00    +0.251 A 
ATOM     35  O   UNL     1       7.821  -3.021  -1.663  0.00  0.00    -0.268 OA
ATOM     36  N   UNL     1       6.509  -1.581  -2.746  0.00  0.00    -0.312 N 
ATOM     37  C   UNL     1       7.575  -0.582  -2.654  0.00  0.00    +0.130 C 
ENDBRANCH  22  24
ENDBRANCH  20  22
ENDBRANCH   4  20
TORSDOF 5
