REMARK  Name = ZINC04530746
REMARK  6 active torsions:
REMARK  status: ('A' for Active; 'I' for Inactive)
REMARK    1  A    between atoms: C_4  and  C_7
REMARK    2  A    between atoms: C_7  and  O_8
REMARK    3  A    between atoms: O_8  and  C_9
REMARK    4  A    between atoms: C_11  and  N_49
REMARK    5  A    between atoms: C_13  and  O_31
REMARK    6  A    between atoms: C_22  and  C_25
REMARK                            x       y       z     vdW  Elec       q    Type
REMARK                         _______ _______ _______ _____ _____    ______ ____
ROOT
ATOM      1  C   UNL     1      -0.762   3.387   1.292  0.00  0.00    +0.239 C 
ATOM      2  C   UNL     1      -1.252   3.767   2.690  0.00  0.00    +0.014 C 
ATOM      3  C   UNL     1      -1.421   5.288   2.783  0.00  0.00    +0.136 C 
ATOM      4  C   UNL     1      -2.375   5.737   1.677  0.00  0.00    +0.180 C 
ATOM      5  C   UNL     1      -1.792   5.310   0.323  0.00  0.00    +0.178 C 
ATOM      6  O   UNL     1      -1.666   3.890   0.303  0.00  0.00    -0.345 OA
ATOM      7  C   UNL     1      -2.731   5.798  -0.781  0.00  0.00    +0.197 C 
ATOM      8  O   UNL     1      -2.896   7.215  -0.638  0.00  0.00    -0.345 OA
ATOM      9  C   UNL     1      -3.394   7.625   0.636  0.00  0.00    +0.282 C 
ATOM     10  O   UNL     1      -2.529   7.157   1.677  0.00  0.00    -0.339 OA
ENDROOT
BRANCH   9  11
ATOM     11  C   UNL     1      -3.465   9.130   0.684  0.00  0.00    +0.008 A 
ATOM     12  C   UNL     1      -2.744   9.825   1.637  0.00  0.00    +0.008 A 
ATOM     13  C   UNL     1      -2.805  11.205   1.678  0.00  0.00    +0.000 A 
ATOM     14  C   UNL     1      -3.594  11.890   0.773  0.00  0.00    +0.000 A 
ATOM     15  C   UNL     1      -4.319  11.194  -0.176  0.00  0.00    +0.000 A 
ATOM     16  C   UNL     1      -4.254   9.814  -0.221  0.00  0.00    +0.008 A 
ENDBRANCH   9  11
BRANCH   2  19
ATOM     17  H   UNL     1      -2.459   2.111   2.897  0.00  0.00    -0.089 HD
ATOM     18  H   UNL     1      -2.920   3.401   3.841  0.00  0.00    -0.089 HD
ATOM     19  N   UNL     1      -2.557   3.124   2.930  0.00  0.00    +0.385 N 
ATOM     20  H   UNL     1      -3.218   3.420   2.202  0.00  0.00    -0.089 HD
ENDBRANCH   2  19
BRANCH   3  21
ATOM     21  O   UNL     1      -1.967   5.634   4.058  0.00  0.00    -0.391 OA
ATOM     22  H   UNL     1      -1.411   5.377   4.806  0.00  0.00    +0.210 HD
ENDBRANCH   3  21
BRANCH   1  23
ATOM     23  O   UNL     1      -0.687   1.964   1.186  0.00  0.00    -0.348 OA
BRANCH  23  24
ATOM     24  C   UNL     1      -0.018   1.503   0.010  0.00  0.00    +0.198 C 
BRANCH  24  28
ATOM     25  C   UNL     1       0.040  -2.768  -0.013  0.00  0.00    +0.000 A 
ATOM     26  C   UNL     1      -1.012  -2.088  -0.598  0.00  0.00    +0.000 A 
ATOM     27  C   UNL     1      -1.031  -0.706  -0.591  0.00  0.00    +0.006 A 
ATOM     28  C   UNL     1       0.002  -0.004   0.002  0.00  0.00    -0.022 A 
ATOM     29  C   UNL     1       1.057  -0.684   0.582  0.00  0.00    +0.006 A 
ATOM     30  C   UNL     1       1.073  -2.067   0.578  0.00  0.00    +0.000 A 
ENDBRANCH  24  28
ENDBRANCH  23  24
ENDBRANCH   1  23
TORSDOF 6
