REMARK  Name = ZINC42632342
REMARK  1 active torsions:
REMARK  status: ('A' for Active; 'I' for Inactive)
REMARK    1  A    between atoms: C_9  and  N_11
REMARK                            x       y       z     vdW  Elec       q    Type
REMARK                         _______ _______ _______ _____ _____    ______ ____
ROOT
ATOM      1  N   UNL     1       4.147  -1.058   1.302  0.00  0.00    -0.292 N 
ATOM      2  C   UNL     1       5.110  -0.164   1.713  0.00  0.00    +0.289 A 
ATOM      3  N   UNL     1       5.571   0.826   0.992  0.00  0.00    -0.195 NA
ATOM      4  C   UNL     1       6.508   1.495   1.718  0.00  0.00    +0.111 A 
ATOM      5  C   UNL     1       7.312   2.607   1.462  0.00  0.00    +0.031 A 
ATOM      6  C   UNL     1       8.187   3.054   2.428  0.00  0.00    +0.002 A 
ATOM      7  C   UNL     1       8.272   2.406   3.651  0.00  0.00    +0.004 A 
ATOM      8  C   UNL     1       7.482   1.306   3.917  0.00  0.00    +0.048 A 
ATOM      9  C   UNL     1       6.597   0.843   2.957  0.00  0.00    +0.157 A 
ATOM     10  O   UNL     1       5.710  -0.177   2.916  0.00  0.00    -0.425 OA
ATOM     11  H   UNL     1       3.854  -1.764   1.899  0.00  0.00    +0.151 HD
ENDROOT
BRANCH   1  20
ATOM     12  C   UNL     1      -0.017   1.377   0.010  0.00  0.00    +0.000 A 
ATOM     13  C   UNL     1       1.172   2.083   0.002  0.00  0.00    +0.000 A 
ATOM     14  C   UNL     1       2.376   1.406  -0.013  0.00  0.00    +0.006 A 
ATOM     15  C   UNL     1       2.396   0.021  -0.021  0.00  0.00    -0.024 A 
ATOM     16  C   UNL     1       1.208  -0.685  -0.013  0.00  0.00    -0.042 A 
ATOM     17  C   UNL     1       0.002  -0.004   0.002  0.00  0.00    +0.004 A 
ATOM     18  C   UNL     1       1.496  -2.171  -0.025  0.00  0.00    +0.037 C 
ATOM     19  C   UNL     1       2.966  -2.294  -0.480  0.00  0.00    +0.032 C 
ATOM     20  C   UNL     1       3.564  -0.942  -0.037  0.00  0.00    +0.105 C 
ENDBRANCH   1  20
TORSDOF 1
