REMARK  Name = ZINC08897866
REMARK  7 active torsions:
REMARK  status: ('A' for Active; 'I' for Inactive)
REMARK    1  A    between atoms: C_1  and  O_2
REMARK    2  A    between atoms: O_2  and  C_3
REMARK    3  A    between atoms: C_6  and  C_8
REMARK    4  A    between atoms: C_12  and  N_13
REMARK    5  A    between atoms: C_14  and  C_16
REMARK    6  A    between atoms: N_21  and  S_22
REMARK    7  A    between atoms: S_22  and  C_25
REMARK                            x       y       z     vdW  Elec       q    Type
REMARK                         _______ _______ _______ _____ _____    ______ ____
ROOT
ATOM      1  N   UNL     1      -4.366   0.034   5.644  0.00  0.00    -0.278 N 
ATOM      2  C   UNL     1      -4.583  -0.893   6.598  0.00  0.00    +0.236 C 
ATOM      3  O   UNL     1      -5.509  -0.763   7.370  0.00  0.00    -0.274 OA
ATOM      4  H   UNL     1      -3.626  -0.070   5.026  0.00  0.00    +0.155 HD
ENDROOT
BRANCH   1   9
ATOM      5  C   UNL     1      -5.141   2.186   4.640  0.00  0.00    +0.069 A 
ATOM      6  C   UNL     1      -6.145   3.231   4.756  0.00  0.00    -0.023 A 
ATOM      7  C   UNL     1      -7.047   3.054   5.745  0.00  0.00    -0.004 A 
ATOM      8  S   UNL     1      -6.575   1.536   6.523  0.00  0.00    -0.077 S 
ATOM      9  C   UNL     1      -5.202   1.135   5.546  0.00  0.00    +0.084 A 
ATOM     10  C   UNL     1      -8.188   3.957   6.098  0.00  0.00    +0.043 C 
ATOM     11  C   UNL     1      -7.958   5.316   5.414  0.00  0.00    +0.005 C 
ATOM     12  C   UNL     1      -7.605   5.067   3.945  0.00  0.00    +0.005 C 
ATOM     13  C   UNL     1      -6.209   4.449   3.842  0.00  0.00    +0.037 C 
BRANCH   5  17
ATOM     14  C   UNL     1      -1.973   2.911   2.920  0.00  0.00    +0.407 C 
ATOM     15  O   UNL     1      -2.165   2.402   1.834  0.00  0.00    -0.226 OA
ATOM     16  N   UNL     1      -2.930   2.859   3.868  0.00  0.00    -0.217 N 
ATOM     17  C   UNL     1      -4.101   2.243   3.610  0.00  0.00    +0.255 C 
ATOM     18  O   UNL     1      -4.293   1.733   2.522  0.00  0.00    -0.270 OA
ATOM     19  H   UNL     1      -2.776   3.265   4.735  0.00  0.00    +0.161 HD
BRANCH  14  21
ATOM     20  C   UNL     1       0.181   3.544   2.111  0.00  0.00    +0.282 C 
ATOM     21  O   UNL     1      -0.804   3.526   3.178  0.00  0.00    -0.453 OA
ENDBRANCH  14  21
ENDBRANCH   5  17
ENDBRANCH   1   9
BRANCH   2  22
ATOM     22  C   UNL     1      -3.675  -2.091   6.705  0.00  0.00    +0.166 C 
ATOM     23  C   UNL     1      -4.200  -3.230   5.805  0.00  0.00    +0.031 C 
ATOM     24  C   UNL     1      -3.929  -4.499   6.660  0.00  0.00    +0.019 C 
ATOM     25  C   UNL     1      -4.186  -3.971   8.094  0.00  0.00    +0.110 C 
ATOM     26  N   UNL     1      -3.667  -2.591   8.087  0.00  0.00    -0.165 NA
BRANCH  26  27
ATOM     27  S   UNL     1      -3.158  -1.745   9.416  0.00  0.00    +0.062 S 
ATOM     28  O   UNL     1      -3.148  -0.374   9.045  0.00  0.00    -0.153 OA
ATOM     29  O   UNL     1      -3.912  -2.230  10.519  0.00  0.00    -0.153 OA
BRANCH  27  30
ATOM     30  C   UNL     1      -1.482  -2.200   9.713  0.00  0.00    +0.106 A 
ATOM     31  C   UNL     1      -1.194  -3.318  10.473  0.00  0.00    +0.031 A 
ATOM     32  C   UNL     1       0.121  -3.678  10.703  0.00  0.00    +0.040 A 
ATOM     33  C   UNL     1       1.149  -2.912  10.180  0.00  0.00    +0.124 A 
ATOM     34  C   UNL     1       0.859  -1.790   9.423  0.00  0.00    +0.040 A 
ATOM     35  C   UNL     1      -0.456  -1.435   9.191  0.00  0.00    +0.031 A 
ATOM     36  F   UNL     1       2.434  -3.261  10.407  0.00  0.00    -0.205 F 
ENDBRANCH  27  30
ENDBRANCH  26  27
ENDBRANCH   2  22
TORSDOF 6
