REMARK  Name = ZINC21605595
REMARK  6 active torsions:
REMARK  status: ('A' for Active; 'I' for Inactive)
REMARK    1  A    between atoms: C_1  and  C_2
REMARK    2  A    between atoms: C_2  and  C_24
REMARK    3  A    between atoms: N_5  and  N_9
REMARK    4  A    between atoms: C_10  and  C_12
REMARK    5  A    between atoms: C_12  and  S_13
REMARK    6  A    between atoms: S_13  and  C_14
REMARK                            x       y       z     vdW  Elec       q    Type
REMARK                         _______ _______ _______ _____ _____    ______ ____
ROOT
ATOM      1  N   UNL     1      -7.662   0.488   0.051  0.00  0.00    -0.223 N 
ATOM      2  C   UNL     1      -6.555  -0.281   0.039  0.00  0.00    +0.240 C 
ATOM      3  O   UNL     1      -6.657  -1.490   0.030  0.00  0.00    -0.273 OA
ATOM      4  H   UNL     1      -7.569   1.584   0.058  0.00  0.00    +0.174 HD
ENDROOT
BRANCH   1   9
ATOM      5  C   UNL     1     -12.209   0.004   0.823  0.00  0.00    +0.047 C 
ATOM      6  C   UNL     1     -10.982  -0.897   0.672  0.00  0.00    +0.137 C 
ATOM      7  C   UNL     1      -9.731  -0.177   1.135  0.00  0.00    +0.267 C 
ATOM      8  O   UNL     1      -9.500   0.248   2.247  0.00  0.00    -0.271 OA
ATOM      9  N   UNL     1      -8.930  -0.108   0.054  0.00  0.00    -0.137 N 
ATOM     10  C   UNL     1      -9.496  -0.674  -1.018  0.00  0.00    +0.327 C 
ATOM     11  O   UNL     1      -8.968  -0.731  -2.111  0.00  0.00    -0.251 OA
ATOM     12  N   UNL     1     -10.715  -1.177  -0.749  0.00  0.00    -0.280 N 
ATOM     13  H   UNL     1     -11.465  -1.706  -1.356  0.00  0.00    +0.152 HD
BRANCH   6  14
ATOM     14  C   UNL     1     -11.169  -2.181   1.439  0.00  0.00    -0.015 A 
ATOM     15  C   UNL     1     -10.705  -2.285   2.737  0.00  0.00    +0.006 A 
ATOM     16  C   UNL     1     -10.880  -3.461   3.442  0.00  0.00    +0.000 A 
ATOM     17  C   UNL     1     -11.512  -4.537   2.845  0.00  0.00    +0.000 A 
ATOM     18  C   UNL     1     -11.971  -4.435   1.546  0.00  0.00    +0.000 A 
ATOM     19  C   UNL     1     -11.800  -3.257   0.842  0.00  0.00    +0.006 A 
ENDBRANCH   6  14
ENDBRANCH   1   9
BRANCH   2  20
ATOM     20  C   UNL     1      -5.192   0.360   0.035  0.00  0.00    +0.171 C 
BRANCH  20  21
ATOM     21  S   UNL     1      -3.917  -0.930   0.018  0.00  0.00    -0.116 S 
BRANCH  21  22
ATOM     22  C   UNL     1      -2.401  -0.032   0.016  0.00  0.00    +0.012 A 
ATOM     23  C   UNL     1      -2.416   1.357   0.026  0.00  0.00    +0.018 A 
ATOM     24  C   UNL     1      -1.228   2.062   0.019  0.00  0.00    +0.050 A 
ATOM     25  C   UNL     1      -0.017   1.386   0.010  0.00  0.00    +0.162 A 
ATOM     26  C   UNL     1       0.002  -0.004   0.002  0.00  0.00    +0.163 A 
ATOM     27  C   UNL     1      -1.190  -0.711   0.004  0.00  0.00    +0.064 A 
ATOM     28  O   UNL     1       1.181  -0.685  -0.006  0.00  0.00    -0.485 OA
ATOM     29  C   UNL     1       2.347   0.053  -0.387  0.00  0.00    +0.270 C 
ATOM     30  C   UNL     1       2.336   1.391   0.365  0.00  0.00    +0.270 C 
ATOM     31  O   UNL     1       1.145   2.098   0.002  0.00  0.00    -0.485 OA
ENDBRANCH  21  22
ENDBRANCH  20  21
ENDBRANCH   2  20
TORSDOF 5
