REMARK  Name = ZINC49937799
REMARK  4 active torsions:
REMARK  status: ('A' for Active; 'I' for Inactive)
REMARK    1  A    between atoms: C_7  and  C_21
REMARK    2  A    between atoms: N_17  and  C_20
REMARK    3  A    between atoms: C_24  and  S_27
REMARK    4  A    between atoms: S_27  and  C_28
REMARK                            x       y       z     vdW  Elec       q    Type
REMARK                         _______ _______ _______ _____ _____    ______ ____
ROOT
ATOM      1  C   UNL     1      -0.196   1.321  -0.228  0.00  0.00    +0.033 C 
ATOM      2  C   UNL     1      -0.121  -0.017  -0.160  0.00  0.00    +0.031 C 
ATOM      3  C   UNL     1      -1.337  -0.846  -0.083  0.00  0.00    +0.090 C 
ATOM      4  C   UNL     1      -1.220  -2.185  -0.218  0.00  0.00    +0.249 C 
ATOM      5  O   UNL     1      -2.327  -2.965  -0.185  0.00  0.00    -0.270 OA
ATOM      6  N   UNL     1       0.021  -2.761  -0.392  0.00  0.00    -0.215 N 
ATOM      7  C   UNL     1       0.172  -4.221  -0.356  0.00  0.00    +0.211 C 
ATOM      8  N   UNL     1       1.272  -4.614  -1.241  0.00  0.00    -0.335 N 
ATOM      9  C   UNL     1       2.232  -3.779  -1.532  0.00  0.00    +0.196 C 
ATOM     10  N   UNL     1       2.222  -2.505  -1.103  0.00  0.00    -0.186 NA
ATOM     11  C   UNL     1       1.141  -1.988  -0.562  0.00  0.00    +0.199 C 
ATOM     12  N   UNL     1       1.119  -0.677  -0.165  0.00  0.00    -0.287 N 
ATOM     13  N   UNL     1       3.289  -4.218  -2.304  0.00  0.00    -0.299 N 
ATOM     14  C   UNL     1       3.937  -3.323  -3.276  0.00  0.00    +0.123 C 
ATOM     15  C   UNL     1       5.449  -3.353  -3.031  0.00  0.00    +0.103 C 
ATOM     16  N   UNL     1       5.919  -4.744  -3.059  0.00  0.00    -0.302 NA
ATOM     17  C   UNL     1       5.316  -5.532  -1.977  0.00  0.00    +0.103 C 
ATOM     18  C   UNL     1       3.802  -5.590  -2.173  0.00  0.00    +0.123 C 
ATOM     19  C   UNL     1       7.386  -4.806  -3.001  0.00  0.00    +0.105 C 
ATOM     20  H   UNL     1       1.932  -0.222   0.106  0.00  0.00    +0.155 HD
ATOM     21  H   UNL     1       1.286  -5.508  -1.616  0.00  0.00    +0.164 HD
ENDROOT
BRANCH   7  22
ATOM     22  C   UNL     1       0.477  -4.661   1.052  0.00  0.00    -0.007 A 
ATOM     23  C   UNL     1      -0.014  -3.937   2.123  0.00  0.00    +0.008 A 
ATOM     24  C   UNL     1       0.263  -4.337   3.415  0.00  0.00    +0.015 A 
ATOM     25  C   UNL     1       1.036  -5.470   3.639  0.00  0.00    +0.008 A 
ATOM     26  C   UNL     1       1.527  -6.196   2.561  0.00  0.00    +0.015 A 
ATOM     27  C   UNL     1       1.242  -5.793   1.271  0.00  0.00    +0.008 A 
BRANCH  25  28
ATOM     28  S   UNL     1       1.393  -5.984   5.286  0.00  0.00    -0.129 S 
ATOM     29  C   UNL     1       2.407  -7.473   5.071  0.00  0.00    +0.090 C 
ENDBRANCH  25  28
ENDBRANCH   7  22
TORSDOF 2
