REMARK  Name = ZINC00123031
REMARK  4 active torsions:
REMARK  status: ('A' for Active; 'I' for Inactive)
REMARK    1  A    between atoms: C_1  and  C_2
REMARK    2  A    between atoms: C_2  and  C_3
REMARK    3  A    between atoms: C_3  and  C_4
REMARK    4  A    between atoms: C_9  and  O_10
REMARK                            x       y       z     vdW  Elec       q    Type
REMARK                         _______ _______ _______ _____ _____    ______ ____
ROOT
ATOM      1  C   UNL     1       1.220   6.013   0.015  0.00  0.00    -0.005 A 
ATOM      2  C   UNL     1       0.019   5.363   0.024  0.00  0.00    +0.019 A 
ATOM      3  C   UNL     1      -0.014   3.964   0.020  0.00  0.00    +0.022 A 
ATOM      4  C   UNL     1       1.188   3.231   0.006  0.00  0.00    +0.143 A 
ATOM      5  C   UNL     1       2.398   3.907  -0.002  0.00  0.00    +0.092 A 
ATOM      6  C   UNL     1       2.412   5.292   0.002  0.00  0.00    +0.124 A 
ATOM      7  O   UNL     1       1.149   1.881   0.001  0.00  0.00    -0.422 OA
ATOM      8  C   UNL     1      -0.014   1.214   0.009  0.00  0.00    +0.341 A 
ATOM      9  O   UNL     1       0.002  -0.004   0.002  0.00  0.00    -0.245 OA
ATOM     10  C   UNL     1      -1.259   1.884   0.018  0.00  0.00    +0.041 A 
ATOM     11  C   UNL     1      -1.287   3.240   0.030  0.00  0.00    -0.027 A 
ATOM     12  C   UNL     1      -2.715   3.736   0.047  0.00  0.00    +0.036 C 
ATOM     13  C   UNL     1      -3.557   2.517   0.484  0.00  0.00    +0.010 C 
ATOM     14  C   UNL     1      -2.670   1.336   0.033  0.00  0.00    +0.043 C 
ENDROOT
BRANCH   6  15
ATOM     15  O   UNL     1       3.598   5.953  -0.006  0.00  0.00    -0.506 OA
ATOM     16  H   UNL     1       3.934   6.147  -0.892  0.00  0.00    +0.292 HD
ENDBRANCH   6  15
BRANCH   1  17
ATOM     17  C   UNL     1       1.256   7.519   0.019  0.00  0.00    +0.038 C 
BRANCH  17  19
ATOM     18  C   UNL     1       1.567   9.549   1.442  0.00  0.00    +0.004 C 
ATOM     19  C   UNL     1       1.531   8.019   1.438  0.00  0.00    +0.001 C 
ENDBRANCH  17  19
ENDBRANCH   1  17
TORSDOF 3
