REMARK  Name = ZINC16024687
REMARK  7 active torsions:
REMARK  status: ('A' for Active; 'I' for Inactive)
REMARK    1  A    between atoms: C_1  and  C_2
REMARK    2  A    between atoms: C_2  and  C_4
REMARK    3  A    between atoms: C_2  and  O_31
REMARK    4  A    between atoms: N_12  and  C_15
REMARK    5  A    between atoms: C_15  and  C_16
REMARK    6  A    between atoms: C_16  and  O_17
REMARK    7  A    between atoms: O_17  and  C_18
REMARK                            x       y       z     vdW  Elec       q    Type
REMARK                         _______ _______ _______ _____ _____    ______ ____
ROOT
ATOM      1  C   UNL     1      -1.433  -0.534   0.013  0.00  0.00    +0.096 C 
ATOM      2  C   UNL     1      -1.436  -2.077   0.043  0.00  0.00    +0.109 C 
ATOM      3  C   UNL     1      -2.624  -2.456   0.970  0.00  0.00    +0.122 C 
ATOM      4  C   UNL     1      -1.948  -3.125   2.146  0.00  0.00    +0.228 C 
ATOM      5  O   UNL     1      -2.517  -3.586   3.112  0.00  0.00    -0.275 OA
ATOM      6  N   UNL     1      -0.624  -3.128   1.954  0.00  0.00    -0.239 N 
ATOM      7  C   UNL     1      -0.218  -2.564   0.793  0.00  0.00    +0.227 C 
ATOM      8  O   UNL     1       0.928  -2.460   0.412  0.00  0.00    -0.275 OA
ATOM      9  C   UNL     1      -3.223  -1.111   1.399  0.00  0.00    +0.136 C 
ATOM     10  N   UNL     1      -2.127  -0.123   1.263  0.00  0.00    -0.293 NA
ATOM     11  C   UNL     1      -4.421  -0.751   0.567  0.00  0.00    +0.004 A 
ATOM     12  C   UNL     1      -4.613  -0.553  -0.782  0.00  0.00    +0.023 A 
ATOM     13  C   UNL     1      -5.869  -0.223  -1.262  0.00  0.00    +0.018 A 
ATOM     14  C   UNL     1      -6.930  -0.093  -0.382  0.00  0.00    +0.017 A 
ATOM     15  C   UNL     1      -6.741  -0.291   0.970  0.00  0.00    +0.025 A 
ATOM     16  C   UNL     1      -5.480  -0.622   1.460  0.00  0.00    +0.039 A 
ATOM     17  N   UNL     1      -5.043  -0.867   2.765  0.00  0.00    -0.283 N 
ATOM     18  C   UNL     1      -3.730  -1.160   2.814  0.00  0.00    +0.243 C 
ATOM     19  O   UNL     1      -3.081  -1.414   3.807  0.00  0.00    -0.273 OA
ATOM     20 BR   UNL     1      -6.135   0.050  -3.114  0.00  0.00    -0.050 Br
ATOM     21  H   UNL     1      -1.498  -0.156   2.052  0.00  0.00    +0.124 HD
ATOM     22  H   UNL     1      -5.620  -0.830   3.544  0.00  0.00    +0.155 HD
ENDROOT
BRANCH   1  24
ATOM     23  C   UNL     1       0.650  -0.315  -1.349  0.00  0.00    +0.039 C 
ATOM     24  C   UNL     1       0.002  -0.004   0.002  0.00  0.00    +0.129 C 
BRANCH  24  25
ATOM     25  O   UNL     1      -0.010   1.410   0.210  0.00  0.00    -0.390 OA
ATOM     26  H   UNL     1       0.868   1.814   0.215  0.00  0.00    +0.210 HD
ENDBRANCH  24  25
ENDBRANCH   1  24
BRANCH   6  27
ATOM     27  C   UNL     1       0.315  -3.703   2.921  0.00  0.00    +0.144 C 
BRANCH  27  28
ATOM     28  C   UNL     1       0.542  -5.181   2.594  0.00  0.00    +0.179 C 
BRANCH  28  29
ATOM     29  O   UNL     1       1.190  -5.294   1.325  0.00  0.00    -0.381 OA
ATOM     30  C   UNL     1       1.449  -6.641   0.923  0.00  0.00    +0.194 C 
ENDBRANCH  28  29
ENDBRANCH  27  28
ENDBRANCH   6  27
TORSDOF 5
