REMARK  Name = ZINC39697944
REMARK  11 active torsions:
REMARK  status: ('A' for Active; 'I' for Inactive)
REMARK    1  A    between atoms: C_1  and  C_2
REMARK    2  A    between atoms: C_2  and  C_3
REMARK    3  A    between atoms: C_8  and  C_12
REMARK    4  A    between atoms: C_12  and  C_14
REMARK    5  A    between atoms: C_14  and  S_15
REMARK    6  A    between atoms: S_15  and  C_16
REMARK    7  A    between atoms: C_21  and  C_33
REMARK    8  A    between atoms: N_27  and  C_28
REMARK    9  A    between atoms: C_28  and  C_29
REMARK   10  A    between atoms: C_29  and  C_31
REMARK   11  A    between atoms: C_29  and  O_32
REMARK                            x       y       z     vdW  Elec       q    Type
REMARK                         _______ _______ _______ _____ _____    ______ ____
ROOT
ATOM      1  C   UNL     1      -1.425  -2.276   9.856  0.00  0.00    +0.222 C 
ATOM      2  N   UNL     1      -1.937  -0.907   9.977  0.00  0.00    -0.317 N 
ATOM      3  C   UNL     1      -2.739  -0.398   8.961  0.00  0.00    +0.042 A 
ATOM      4  C   UNL     1      -2.779   0.956   8.676  0.00  0.00    +0.038 A 
ATOM      5  C   UNL     1      -3.607   1.420   7.654  0.00  0.00    +0.065 A 
ATOM      6  C   UNL     1      -4.392   0.523   6.923  0.00  0.00    +0.016 A 
ATOM      7  C   UNL     1      -4.351  -0.826   7.201  0.00  0.00    +0.016 A 
ATOM      8  C   UNL     1      -3.523  -1.298   8.218  0.00  0.00    +0.058 A 
ATOM      9  C   UNL     1      -3.432  -2.738   8.531  0.00  0.00    +0.250 C 
ATOM     10  O   UNL     1      -4.210  -3.525   8.027  0.00  0.00    -0.270 OA
ATOM     11  N   UNL     1      -2.480  -3.169   9.377  0.00  0.00    -0.268 N 
ATOM     12  H   UNL     1      -1.721  -0.366  10.753  0.00  0.00    +0.149 HD
ENDROOT
BRANCH   5  13
ATOM     13  C   UNL     1      -3.655   2.864   7.343  0.00  0.00    +0.387 C 
ATOM     14  O   UNL     1      -2.969   3.650   7.981  0.00  0.00    -0.241 OA
ATOM     15  O   UNL     1      -4.380   3.273   6.448  0.00  0.00    -0.241 OA
ENDBRANCH   5  13
BRANCH   1  16
ATOM     16  S   UNL     1      -0.042  -2.298   8.683  0.00  0.00    -0.111 S 
BRANCH  16  17
ATOM     17  C   UNL     1      -0.773  -1.709   7.131  0.00  0.00    +0.151 C 
BRANCH  17  18
ATOM     18  C   UNL     1       0.284  -1.679   6.057  0.00  0.00    +0.171 C 
ATOM     19  O   UNL     1       1.421  -2.021   6.314  0.00  0.00    -0.291 OA
BRANCH  18  25
ATOM     20  C   UNL     1       0.731  -0.503   1.223  0.00  0.00    -0.024 A 
ATOM     21  C   UNL     1       2.046  -0.804   1.160  0.00  0.00    +0.005 A 
ATOM     22  C   UNL     1       2.756  -1.270   2.278  0.00  0.00    +0.001 A 
ATOM     23  C   UNL     1       2.174  -1.450   3.485  0.00  0.00    +0.010 A 
ATOM     24  C   UNL     1       0.799  -1.166   3.662  0.00  0.00    +0.006 A 
ATOM     25  C   UNL     1      -0.046  -1.252   4.753  0.00  0.00    +0.024 C 
ATOM     26  C   UNL     1      -1.400  -0.795   4.256  0.00  0.00    +0.152 C 
ATOM     27  N   UNL     1      -1.221  -0.462   2.839  0.00  0.00    -0.380 N 
ATOM     28  C   UNL     1       0.021  -0.664   2.502  0.00  0.00    +0.046 A 
ATOM     29  H   UNL     1      -1.917  -0.137   2.247  0.00  0.00    +0.160 HD
BRANCH  20  31
ATOM     30  C   UNL     1      -0.019   1.526   0.010  0.00  0.00    +0.009 C 
ATOM     31  C   UNL     1       0.002  -0.004   0.002  0.00  0.00    +0.034 C 
ENDBRANCH  20  31
ENDBRANCH  18  25
ENDBRANCH  17  18
ENDBRANCH  16  17
ENDBRANCH   1  16
BRANCH  11  32
ATOM     32  C   UNL     1      -2.502  -4.564   9.825  0.00  0.00    +0.141 C 
BRANCH  32  33
ATOM     33  C   UNL     1      -3.335  -4.675  11.104  0.00  0.00    +0.129 C 
ATOM     34  C   UNL     1      -3.358  -6.132  11.572  0.00  0.00    +0.039 C 
BRANCH  33  35
ATOM     35  O   UNL     1      -2.757  -3.856  12.122  0.00  0.00    -0.391 OA
ATOM     36  H   UNL     1      -1.849  -4.096  12.352  0.00  0.00    +0.210 HD
ENDBRANCH  33  35
ENDBRANCH  32  33
ENDBRANCH  11  32
TORSDOF 9
