REMARK  Name = ZINC39685719
REMARK  12 active torsions:
REMARK  status: ('A' for Active; 'I' for Inactive)
REMARK    1  A    between atoms: C_1  and  C_2
REMARK    2  A    between atoms: C_2  and  C_3
REMARK    3  A    between atoms: C_2  and  C_4
REMARK    4  A    between atoms: C_4  and  C_6
REMARK    5  A    between atoms: C_4  and  N_13
REMARK    6  A    between atoms: N_8  and  C_9
REMARK    7  A    between atoms: C_9  and  C_10
REMARK    8  A    between atoms: C_9  and  C_11
REMARK    9  A    between atoms: C_9  and  C_12
REMARK   10  A    between atoms: C_14  and  C_16
REMARK   11  A    between atoms: C_27  and  C_29
REMARK   12  A    between atoms: C_35  and  C_37
REMARK                            x       y       z     vdW  Elec       q    Type
REMARK                         _______ _______ _______ _____ _____    ______ ____
ROOT
ATOM      1  C   UNL     1      -0.364  -3.815   1.828  0.00  0.00    +0.100 C 
ATOM      2  C   UNL     1       1.012  -4.083   1.180  0.00  0.00    +0.121 C 
ATOM      3  N   UNL     1       1.994  -3.786   2.250  0.00  0.00    -0.299 N 
ATOM      4  C   UNL     1       1.367  -4.320   3.483  0.00  0.00    +0.115 C 
ATOM      5  C   UNL     1      -0.128  -3.974   3.339  0.00  0.00    -0.004 C 
ATOM      6  C   UNL     1      -0.439  -2.668   4.063  0.00  0.00    -0.010 C 
ATOM      7  C   UNL     1      -0.251  -2.868   5.570  0.00  0.00    -0.082 C 
ATOM      8  N   UNL     1      -1.144  -3.935   6.038  0.00  0.00    +0.379 N 
ATOM      9  C   UNL     1      -0.778  -5.208   5.405  0.00  0.00    -0.082 C 
ATOM     10  C   UNL     1      -0.988  -5.107   3.892  0.00  0.00    -0.010 C 
ATOM     11  C   UNL     1       3.186  -3.170   2.129  0.00  0.00    +0.236 C 
ATOM     12  O   UNL     1       3.882  -2.999   3.108  0.00  0.00    -0.274 OA
ATOM     13  H   UNL     1      -1.063  -4.024   7.040  0.00  0.00    -0.086 HD
ATOM     14  H   UNL     1      -2.096  -3.704   5.800  0.00  0.00    -0.086 HD
ENDROOT
BRANCH  11  15
ATOM     15  C   UNL     1       3.655  -2.693   0.779  0.00  0.00    +0.162 C 
ATOM     16  C   UNL     1       4.243  -3.875  -0.020  0.00  0.00    +0.033 C 
ATOM     17  C   UNL     1       5.453  -3.235  -0.750  0.00  0.00    +0.021 C 
ATOM     18  C   UNL     1       5.953  -2.221   0.309  0.00  0.00    +0.109 C 
ATOM     19  N   UNL     1       4.725  -1.698   0.943  0.00  0.00    -0.283 N 
ATOM     20  C   UNL     1       4.603  -0.510   1.567  0.00  0.00    +0.320 C 
ATOM     21  O   UNL     1       3.540  -0.186   2.053  0.00  0.00    -0.266 OA
BRANCH  20  22
ATOM     22  C   UNL     1       5.789   0.416   1.662  0.00  0.00    +0.470 C 
ATOM     23  F   UNL     1       5.419   1.577   2.349  0.00  0.00    -0.162 F 
ATOM     24  F   UNL     1       6.825  -0.223   2.351  0.00  0.00    -0.162 F 
ATOM     25  F   UNL     1       6.222   0.753   0.376  0.00  0.00    -0.162 F 
ENDBRANCH  20  22
ENDBRANCH  11  15
BRANCH   1  27
ATOM     26  N   UNL     1      -2.146  -2.141   1.451  0.00  0.00    -0.303 N 
ATOM     27  C   UNL     1      -0.828  -2.416   1.514  0.00  0.00    +0.219 C 
ATOM     28  O   UNL     1      -0.015  -1.537   1.317  0.00  0.00    -0.275 OA
ATOM     29  H   UNL     1      -2.796  -2.843   1.608  0.00  0.00    +0.149 HD
BRANCH  26  30
ATOM     30  C   UNL     1      -2.597  -0.780   1.146  0.00  0.00    +0.161 C 
BRANCH  30  31
ATOM     31  C   UNL     1      -3.977  -0.570   1.713  0.00  0.00    +0.234 C 
ATOM     32  O   UNL     1      -4.660  -1.524   2.018  0.00  0.00    -0.274 OA
ATOM     33  N   UNL     1      -4.453   0.680   1.881  0.00  0.00    -0.309 N 
ATOM     34  H   UNL     1      -3.883   1.444   1.701  0.00  0.00    +0.149 HD
BRANCH  33  35
ATOM     35  C   UNL     1      -5.830   0.884   2.337  0.00  0.00    +0.026 C 
ATOM     36  C   UNL     1      -6.016   0.231   3.708  0.00  0.00    +0.031 C 
ATOM     37  C   UNL     1      -6.114   2.384   2.445  0.00  0.00    +0.031 C 
ATOM     38  C   UNL     1      -6.798   0.252   1.335  0.00  0.00    +0.031 C 
ENDBRANCH  33  35
ENDBRANCH  30  31
BRANCH  30  40
ATOM     39  C   UNL     1      -1.218  -0.720  -0.937  0.00  0.00    +0.009 C 
ATOM     40  C   UNL     1      -2.633  -0.583  -0.371  0.00  0.00    +0.012 C 
ATOM     41  C   UNL     1      -3.539  -1.643  -1.001  0.00  0.00    +0.009 C 
ENDBRANCH  30  40
ENDBRANCH  26  30
ENDBRANCH   1  27
TORSDOF 7
