REMARK  Name = ZINC57681226
REMARK  8 active torsions:
REMARK  status: ('A' for Active; 'I' for Inactive)
REMARK    1  A    between atoms: C_1  and  N_2
REMARK    2  A    between atoms: N_7  and  C_10
REMARK    3  A    between atoms: N_11  and  C_22
REMARK    4  A    between atoms: N_14  and  C_15
REMARK    5  A    between atoms: C_15  and  C_16
REMARK    6  A    between atoms: C_16  and  N_17
REMARK    7  A    between atoms: C_18  and  C_20
REMARK    8  A    between atoms: C_22  and  C_23
REMARK                            x       y       z     vdW  Elec       q    Type
REMARK                         _______ _______ _______ _____ _____    ______ ____
ROOT
ATOM      1  C   UNL     1      -0.018   1.461   0.010  0.00  0.00    +0.155 C 
ATOM      2  N   UNL     1       0.002  -0.004   0.002  0.00  0.00    -0.280 N 
ATOM      3  C   UNL     1      -1.189  -0.713   0.004  0.00  0.00    +0.170 A 
ATOM      4  C   UNL     1      -1.141  -2.102  -0.004  0.00  0.00    +0.153 A 
ATOM      5  C   UNL     1       0.108  -2.747  -0.015  0.00  0.00    +0.282 A 
ATOM      6  O   UNL     1       0.173  -3.964  -0.022  0.00  0.00    -0.265 OA
ATOM      7  N   UNL     1       1.234  -2.004  -0.016  0.00  0.00    -0.262 N 
ATOM      8  C   UNL     1       1.177  -0.661  -0.013  0.00  0.00    +0.333 A 
ATOM      9  O   UNL     1       2.213  -0.023  -0.019  0.00  0.00    -0.246 OA
ATOM     10  C   UNL     1       2.539  -2.671  -0.027  0.00  0.00    +0.157 C 
ATOM     11  N   UNL     1      -2.460  -2.538   0.000  0.00  0.00    -0.302 N 
ATOM     12  C   UNL     1      -3.240  -1.425   0.011  0.00  0.00    +0.198 A 
ATOM     13  N   UNL     1      -2.474  -0.354   0.013  0.00  0.00    -0.196 NA
ATOM     14  N   UNL     1      -4.616  -1.419   0.017  0.00  0.00    -0.313 N 
ATOM     15  H   UNL     1      -5.105  -2.257   0.015  0.00  0.00    +0.149 HD
ENDROOT
BRANCH  14  16
ATOM     16  C   UNL     1      -5.343  -0.147   0.029  0.00  0.00    +0.123 C 
BRANCH  16  17
ATOM     17  C   UNL     1      -6.848  -0.420   0.034  0.00  0.00    +0.123 C 
BRANCH  17  18
ATOM     18  N   UNL     1      -7.575   0.853   0.045  0.00  0.00    -0.313 N 
ATOM     19  C   UNL     1      -8.922   0.859   0.052  0.00  0.00    +0.228 C 
ATOM     20  O   UNL     1      -9.534  -0.189   0.049  0.00  0.00    -0.275 OA
ATOM     21  H   UNL     1      -7.086   1.690   0.048  0.00  0.00    +0.149 HD
BRANCH  19  22
ATOM     22  C   UNL     1      -9.670   2.167   0.064  0.00  0.00    +0.204 C 
ATOM     23 CL   UNL     1     -11.444   1.846   0.071  0.00  0.00    -0.116 Cl
ENDBRANCH  19  22
ENDBRANCH  17  18
ENDBRANCH  16  17
ENDBRANCH  14  16
BRANCH  11  24
ATOM     24  C   UNL     1      -2.921  -3.929  -0.006  0.00  0.00    +0.160 C 
BRANCH  24  25
ATOM     25  C   UNL     1      -3.071  -4.415   1.413  0.00  0.00    -0.028 A 
ATOM     26  C   UNL     1      -2.002  -5.009   2.057  0.00  0.00    +0.007 A 
ATOM     27  C   UNL     1      -2.139  -5.454   3.358  0.00  0.00    +0.020 A 
ATOM     28  C   UNL     1      -3.347  -5.305   4.016  0.00  0.00    +0.041 A 
ATOM     29  C   UNL     1      -4.417  -4.711   3.371  0.00  0.00    +0.020 A 
ATOM     30  C   UNL     1      -4.276  -4.261   2.071  0.00  0.00    +0.007 A 
ATOM     31 CL   UNL     1      -3.520  -5.865   5.650  0.00  0.00    -0.084 Cl
ENDBRANCH  24  25
ENDBRANCH  11  24
TORSDOF 6
