REMARK  Name = ZINC04356957
REMARK  5 active torsions:
REMARK  status: ('A' for Active; 'I' for Inactive)
REMARK    1  A    between atoms: C_1  and  C_2
REMARK    2  A    between atoms: C_5  and  C_7
REMARK    3  A    between atoms: N_11  and  C_15
REMARK    4  A    between atoms: C_18  and  O_23
REMARK    5  A    between atoms: C_19  and  C_21
REMARK                            x       y       z     vdW  Elec       q    Type
REMARK                         _______ _______ _______ _____ _____    ______ ____
ROOT
ATOM      1  C   UNL     1      -3.814   2.060   3.256  0.00  0.00    +0.066 C 
ATOM      2  C   UNL     1      -4.779   2.340   2.335  0.00  0.00    +0.080 C 
ATOM      3  C   UNL     1      -4.875   1.933   0.923  0.00  0.00    +0.263 C 
ATOM      4  O   UNL     1      -4.019   1.245   0.397  0.00  0.00    -0.269 OA
ATOM      5  N   UNL     1      -5.936   2.353   0.254  0.00  0.00    -0.224 N 
ATOM      6  C   UNL     1      -6.881   3.116   0.840  0.00  0.00    +0.125 C 
ATOM      7  S   UNL     1      -8.313   3.752   0.151  0.00  0.00    -0.027 S 
ATOM      8  S   UNL     1      -6.280   3.294   2.512  0.00  0.00    -0.061 S 
ENDROOT
BRANCH   1  13
ATOM      9  C   UNL     1      -0.312   0.059   0.369  0.00  0.00    +0.086 C 
ATOM     10  C   UNL     1      -1.060   0.527   1.591  0.00  0.00    +0.103 A 
ATOM     11  C   UNL     1      -0.636   0.395   2.868  0.00  0.00    +0.045 A 
ATOM     12  C   UNL     1      -1.622   0.959   3.693  0.00  0.00    +0.049 A 
ATOM     13  C   UNL     1      -2.620   1.417   2.856  0.00  0.00    +0.129 A 
ATOM     14  O   UNL     1      -2.249   1.146   1.587  0.00  0.00    -0.461 OA
ENDBRANCH   1  13
BRANCH   5  15
ATOM     15  C   UNL     1      -6.081   1.997  -1.095  0.00  0.00    +0.044 A 
ATOM     16  C   UNL     1      -7.054   1.076  -1.469  0.00  0.00    +0.027 A 
ATOM     17  C   UNL     1      -7.204   0.720  -2.794  0.00  0.00    +0.048 A 
ATOM     18  C   UNL     1      -6.384   1.279  -3.763  0.00  0.00    +0.131 A 
ATOM     19  C   UNL     1      -5.402   2.208  -3.394  0.00  0.00    +0.106 A 
ATOM     20  C   UNL     1      -5.259   2.568  -2.051  0.00  0.00    +0.042 A 
BRANCH  19  21
ATOM     21  C   UNL     1      -4.526   2.807  -4.418  0.00  0.00    +0.390 C 
ATOM     22  O   UNL     1      -4.656   2.495  -5.586  0.00  0.00    -0.240 OA
ATOM     23  O   UNL     1      -3.583   3.699  -4.060  0.00  0.00    -0.240 OA
ENDBRANCH  19  21
BRANCH  18  24
ATOM     24  O   UNL     1      -6.534   0.928  -5.065  0.00  0.00    -0.506 OA
ATOM     25  H   UNL     1      -7.156   1.484  -5.554  0.00  0.00    +0.292 HD
ENDBRANCH  18  24
ENDBRANCH   5  15
TORSDOF 4
