REMARK  Name = ZINC39946500
REMARK  6 active torsions:
REMARK  status: ('A' for Active; 'I' for Inactive)
REMARK    1  A    between atoms: C_4  and  C_7
REMARK    2  A    between atoms: C_7  and  C_9
REMARK    3  A    between atoms: C_7  and  S_20
REMARK    4  A    between atoms: C_9  and  C_11
REMARK    5  A    between atoms: S_20  and  C_21
REMARK    6  A    between atoms: N_26  and  C_27
REMARK                            x       y       z     vdW  Elec       q    Type
REMARK                         _______ _______ _______ _____ _____    ______ ____
ROOT
ATOM      1  C   UNL     1       3.224  -0.766  -0.090  0.00  0.00    +0.154 C 
ENDROOT
BRANCH   1   5
ATOM      2  C   UNL     1      -0.795   0.593  -0.584  0.00  0.00    +0.000 A 
ATOM      3  C   UNL     1       0.231   1.508  -0.441  0.00  0.00    +0.000 A 
ATOM      4  C   UNL     1       1.532   1.068  -0.281  0.00  0.00    +0.005 A 
ATOM      5  C   UNL     1       1.806  -0.287  -0.263  0.00  0.00    -0.027 A 
ATOM      6  C   UNL     1       0.779  -1.202  -0.405  0.00  0.00    +0.005 A 
ATOM      7  C   UNL     1      -0.521  -0.762  -0.567  0.00  0.00    +0.000 A 
ENDBRANCH   1   5
BRANCH   1   8
ATOM      8  C   UNL     1       3.319  -1.615   1.152  0.00  0.00    +0.179 C 
ATOM      9  O   UNL     1       3.227  -2.823   1.070  0.00  0.00    -0.291 OA
BRANCH   8  10
ATOM     10  C   UNL     1       3.514  -1.006   2.410  0.00  0.00    +0.025 C 
ATOM     11  C   UNL     1       3.628  -1.636   3.636  0.00  0.00    +0.006 A 
ATOM     12  C   UNL     1       3.590  -2.995   4.026  0.00  0.00    +0.010 A 
ATOM     13  C   UNL     1       3.731  -3.334   5.327  0.00  0.00    +0.001 A 
ATOM     14  C   UNL     1       3.918  -2.379   6.340  0.00  0.00    +0.002 A 
ATOM     15  C   UNL     1       3.968  -1.056   6.073  0.00  0.00    +0.026 A 
ATOM     16  C   UNL     1       3.824  -0.601   4.681  0.00  0.00    +0.043 A 
ATOM     17  N   UNL     1       3.832   0.589   4.149  0.00  0.00    -0.380 N 
ATOM     18  C   UNL     1       3.650   0.473   2.699  0.00  0.00    +0.152 C 
ATOM     19  H   UNL     1       3.946   1.420   4.636  0.00  0.00    +0.160 HD
ENDBRANCH   8  10
ENDBRANCH   1   8
BRANCH   1  20
ATOM     20  S   UNL     1       3.710  -1.751  -1.534  0.00  0.00    -0.081 S 
BRANCH  20  21
ATOM     21  C   UNL     1       3.691  -0.595  -2.864  0.00  0.00    +0.161 A 
ATOM     22  N   UNL     1       3.402   0.693  -2.848  0.00  0.00    -0.133 NA
ATOM     23  N   UNL     1       3.450   1.418  -4.016  0.00  0.00    -0.125 NA
ATOM     24  C   UNL     1       3.784   0.824  -5.145  0.00  0.00    +0.187 A 
ATOM     25  S   UNL     1       4.064  -0.851  -4.591  0.00  0.00    -0.024 S 
ATOM     26  N   UNL     1       3.894   1.359  -6.424  0.00  0.00    -0.290 N 
ATOM     27  H   UNL     1       4.067   0.777  -7.180  0.00  0.00    +0.154 HD
BRANCH  26  28
ATOM     28  C   UNL     1       3.755   2.737  -6.619  0.00  0.00    +0.068 A 
ATOM     29  C   UNL     1       3.689   3.592  -5.527  0.00  0.00    +0.026 A 
ATOM     30  C   UNL     1       3.552   4.952  -5.723  0.00  0.00    +0.002 A 
ATOM     31  C   UNL     1       3.479   5.464  -7.006  0.00  0.00    +0.003 A 
ATOM     32  C   UNL     1       3.543   4.617  -8.097  0.00  0.00    +0.040 A 
ATOM     33  C   UNL     1       3.687   3.255  -7.909  0.00  0.00    +0.144 A 
ATOM     34  F   UNL     1       3.757   2.428  -8.974  0.00  0.00    -0.204 F 
ENDBRANCH  26  28
ENDBRANCH  20  21
ENDBRANCH   1  20
TORSDOF 6
