REMARK  Name = ZINC37361743
REMARK  2 active torsions:
REMARK  status: ('A' for Active; 'I' for Inactive)
REMARK    1  A    between atoms: C_7  and  C_13
REMARK    2  A    between atoms: C_7  and  N_16
REMARK                            x       y       z     vdW  Elec       q    Type
REMARK                         _______ _______ _______ _____ _____    ______ ____
ROOT
ATOM      1  C   UNL     1       0.262   1.809  -0.002  0.00  0.00    -0.000 C 
ATOM      2  C   UNL     1       1.670   2.393   0.130  0.00  0.00    -0.000 C 
ATOM      3  C   UNL     1       1.736   3.288   1.369  0.00  0.00    -0.000 C 
ATOM      4  C   UNL     1       2.903   2.848   2.255  0.00  0.00    -0.000 C 
ATOM      5  C   UNL     1       2.398   2.598   3.677  0.00  0.00    -0.001 C 
ATOM      6  C   UNL     1       2.817   1.197   4.128  0.00  0.00    -0.001 C 
ATOM      7  C   UNL     1       1.586   0.429   4.614  0.00  0.00    +0.038 C 
ATOM      8  C   UNL     1       1.496  -0.909   3.877  0.00  0.00    -0.001 C 
ATOM      9  C   UNL     1       0.112  -1.050   3.242  0.00  0.00    -0.001 C 
ATOM     10  C   UNL     1       0.263  -1.364   1.753  0.00  0.00    -0.000 C 
ATOM     11  C   UNL     1      -0.551  -0.360   0.934  0.00  0.00    -0.000 C 
ATOM     12  C   UNL     1       0.349   0.286  -0.121  0.00  0.00    -0.000 C 
ENDROOT
BRANCH   7  13
ATOM     13  N   UNL     1       1.699   0.186   6.058  0.00  0.00    +0.391 N 
ATOM     14  C   UNL     1       2.954  -0.523   6.337  0.00  0.00    -0.077 C 
ATOM     15  C   UNL     1       3.115  -0.707   7.848  0.00  0.00    -0.019 C 
ATOM     16  C   UNL     1       1.936  -1.522   8.386  0.00  0.00    -0.004 C 
ATOM     17  C   UNL     1       0.629  -0.810   8.024  0.00  0.00    -0.019 C 
ATOM     18  C   UNL     1       0.559  -0.622   6.508  0.00  0.00    -0.077 C 
ATOM     19  H   UNL     1       1.698   1.069   6.548  0.00  0.00    -0.080 HD
ENDBRANCH   7  13
BRANCH   7  20
ATOM     20  C   UNL     1       0.346   1.239   4.336  0.00  0.00    +0.346 C 
ATOM     21  O   UNL     1       0.059   1.541   3.190  0.00  0.00    -0.248 OA
ATOM     22  O   UNL     1      -0.370   1.593   5.257  0.00  0.00    -0.248 OA
ENDBRANCH   7  20
TORSDOF 2
