REMARK  Name = ZINC39967007
REMARK  9 active torsions:
REMARK  status: ('A' for Active; 'I' for Inactive)
REMARK    1  A    between atoms: C_1  and  C_2
REMARK    2  A    between atoms: N_4  and  C_5
REMARK    3  A    between atoms: C_8  and  N_11
REMARK    4  A    between atoms: C_12  and  C_14
REMARK    5  A    between atoms: C_14  and  S_15
REMARK    6  A    between atoms: S_15  and  C_16
REMARK    7  A    between atoms: C_19  and  C_28
REMARK    8  A    between atoms: N_20  and  C_21
REMARK    9  A    between atoms: C_21  and  C_22
REMARK                            x       y       z     vdW  Elec       q    Type
REMARK                         _______ _______ _______ _____ _____    ______ ____
ROOT
ATOM      1  C   UNL     1      -2.893 -10.995  -0.517  0.00  0.00    +0.192 A 
ATOM      2  N   UNL     1      -1.788 -11.633  -0.207  0.00  0.00    -0.122 NA
ATOM      3  N   UNL     1      -2.036 -12.879  -0.015  0.00  0.00    -0.128 NA
ATOM      4  C   UNL     1      -3.315 -13.115  -0.192  0.00  0.00    +0.166 A 
ATOM      5  N   UNL     1      -3.906 -11.915  -0.513  0.00  0.00    -0.300 N 
ENDROOT
BRANCH   4   6
ATOM      6  C   UNL     1      -3.994 -14.422  -0.063  0.00  0.00    +0.030 A 
ATOM      7  C   UNL     1      -5.152 -14.526   0.651  0.00  0.00    +0.057 A 
ATOM      8  S   UNL     1      -5.530 -16.263   0.485  0.00  0.00    -0.101 S 
ATOM      9  C   UNL     1      -4.140 -16.722  -0.518  0.00  0.00    -0.006 A 
ATOM     10  C   UNL     1      -3.452 -15.566  -0.683  0.00  0.00    -0.026 A 
ATOM     11  C   UNL     1      -2.151 -15.504  -1.480  0.00  0.00    +0.036 C 
ATOM     12  C   UNL     1      -2.126 -16.616  -2.521  0.00  0.00    +0.005 C 
ATOM     13  C   UNL     1      -1.505 -17.886  -1.940  0.00  0.00    +0.001 C 
ATOM     14  C   UNL     1      -2.353 -18.401  -0.782  0.00  0.00    +0.005 C 
ATOM     15  C   UNL     1      -3.818 -18.074  -1.067  0.00  0.00    +0.043 C 
ENDBRANCH   4   6
BRANCH   1  16
ATOM     16  S   UNL     1      -3.044  -9.275  -0.867  0.00  0.00    -0.077 S 
BRANCH  16  17
ATOM     17  C   UNL     1      -1.352  -8.643  -0.703  0.00  0.00    +0.173 C 
BRANCH  17  19
ATOM     18  N   UNL     1      -0.182  -6.474  -0.916  0.00  0.00    -0.285 N 
ATOM     19  C   UNL     1      -1.339  -7.162  -0.980  0.00  0.00    +0.227 C 
ATOM     20  O   UNL     1      -2.371  -6.589  -1.260  0.00  0.00    -0.275 OA
ATOM     21  H   UNL     1       0.630  -6.917  -0.625  0.00  0.00    +0.155 HD
BRANCH  18  25
ATOM     22  C   UNL     1      -0.093  -2.442  -1.974  0.00  0.00    +0.033 A 
ATOM     23  C   UNL     1       0.990  -3.260  -2.266  0.00  0.00    +0.025 A 
ATOM     24  C   UNL     1       0.961  -4.595  -1.915  0.00  0.00    +0.025 A 
ATOM     25  C   UNL     1      -0.152  -5.120  -1.271  0.00  0.00    +0.034 A 
ATOM     26  C   UNL     1      -1.235  -4.301  -0.979  0.00  0.00    +0.025 A 
ATOM     27  C   UNL     1      -1.203  -2.965  -1.325  0.00  0.00    +0.025 A 
BRANCH  22  31
ATOM     28  C   UNL     1      -0.506   1.299  -1.851  0.00  0.00    +0.109 C 
ATOM     29  C   UNL     1      -0.632  -0.167  -1.525  0.00  0.00    +0.214 C 
ATOM     30  O   UNL     1      -1.245  -0.519  -0.539  0.00  0.00    -0.276 OA
ATOM     31  N   UNL     1      -0.063  -1.087  -2.329  0.00  0.00    -0.286 N 
ATOM     32  H   UNL     1       0.367  -0.811  -3.154  0.00  0.00    +0.155 HD
ENDBRANCH  22  31
ENDBRANCH  18  25
ENDBRANCH  17  19
ENDBRANCH  16  17
ENDBRANCH   1  16
BRANCH   5  33
ATOM     33  C   UNL     1      -5.323 -11.672  -0.795  0.00  0.00    +0.157 C 
BRANCH  33  34
ATOM     34  C   UNL     1      -5.558 -11.724  -2.306  0.00  0.00    +0.138 C 
ATOM     35  C   UNL     1      -7.022 -11.351  -2.621  0.00  0.00    +0.035 C 
ATOM     36  C   UNL     1      -7.375 -12.338  -3.767  0.00  0.00    +0.031 C 
ATOM     37  C   UNL     1      -6.550 -13.581  -3.348  0.00  0.00    +0.160 C 
ATOM     38  O   UNL     1      -5.335 -13.055  -2.787  0.00  0.00    -0.375 OA
ENDBRANCH  33  34
ENDBRANCH   5  33
TORSDOF 8
