REMARK  Name = ZINC66587752
REMARK  6 active torsions:
REMARK  status: ('A' for Active; 'I' for Inactive)
REMARK    1  A    between atoms: C_1  and  C_2
REMARK    2  A    between atoms: C_4  and  C_25
REMARK    3  A    between atoms: N_8  and  S_12
REMARK    4  A    between atoms: S_12  and  C_15
REMARK    5  A    between atoms: C_18  and  S_21
REMARK    6  A    between atoms: S_21  and  N_24
REMARK                            x       y       z     vdW  Elec       q    Type
REMARK                         _______ _______ _______ _____ _____    ______ ____
ROOT
ATOM      1  S   UNL     1       0.395  -1.982   3.814  0.00  0.00    +0.075 S 
ATOM      2  O   UNL     1       0.776  -2.972   4.760  0.00  0.00    -0.150 OA
ATOM      3  O   UNL     1       1.238  -0.890   3.473  0.00  0.00    -0.150 OA
ENDROOT
BRANCH   1  11
ATOM      4  C   UNL     1      -0.019   1.503   0.010  0.00  0.00    +0.044 C 
ATOM      5  C   UNL     1       0.002  -0.004   0.002  0.00  0.00    -0.048 A 
ATOM      6  C   UNL     1       0.005  -0.690  -1.199  0.00  0.00    +0.007 A 
ATOM      7  C   UNL     1       0.022  -2.071  -1.209  0.00  0.00    -0.045 A 
ATOM      8  C   UNL     1       0.036  -2.779  -0.019  0.00  0.00    -0.022 A 
ATOM      9  C   UNL     1       0.036  -2.092   1.185  0.00  0.00    +0.055 A 
ATOM     10  C   UNL     1       0.023  -0.701   1.193  0.00  0.00    +0.028 A 
ATOM     11  N   UNL     1       0.058  -2.780   2.403  0.00  0.00    -0.203 N 
ATOM     12  C   UNL     1      -0.221  -4.223   2.410  0.00  0.00    +0.132 C 
ATOM     13  C   UNL     1       0.564  -4.857   1.253  0.00  0.00    +0.025 C 
ATOM     14  C   UNL     1       0.048  -4.284  -0.066  0.00  0.00    +0.039 C 
ATOM     15  C   UNL     1       0.024  -2.811  -2.522  0.00  0.00    +0.044 C 
ENDBRANCH   1  11
BRANCH   1  16
ATOM     16  C   UNL     1      -1.117  -1.288   4.394  0.00  0.00    +0.109 A 
ATOM     17  C   UNL     1      -1.491  -0.017   3.997  0.00  0.00    +0.031 A 
ATOM     18  C   UNL     1      -2.678   0.528   4.452  0.00  0.00    +0.030 A 
ATOM     19  C   UNL     1      -3.491  -0.198   5.302  0.00  0.00    +0.105 A 
ATOM     20  C   UNL     1      -3.117  -1.469   5.697  0.00  0.00    +0.030 A 
ATOM     21  C   UNL     1      -1.933  -2.016   5.240  0.00  0.00    +0.031 A 
BRANCH  19  22
ATOM     22  S   UNL     1      -5.003   0.496   5.882  0.00  0.00    +0.056 S 
ATOM     23  O   UNL     1      -5.316  -0.170   7.098  0.00  0.00    -0.153 OA
ATOM     24  O   UNL     1      -4.858   1.908   5.802  0.00  0.00    -0.153 OA
BRANCH  22  25
ATOM     25  N   UNL     1      -6.181   0.079   4.796  0.00  0.00    -0.204 NA
ATOM     26  H   UNL     1      -5.957  -0.456   4.019  0.00  0.00    +0.144 HD
ATOM     27  H   UNL     1      -7.096   0.369   4.939  0.00  0.00    +0.144 HD
ENDBRANCH  22  25
ENDBRANCH  19  22
ENDBRANCH   1  16
TORSDOF 4
