REMARK  Name = ZINC39684322
REMARK  8 active torsions:
REMARK  status: ('A' for Active; 'I' for Inactive)
REMARK    1  A    between atoms: C_1  and  C_2
REMARK    2  A    between atoms: C_2  and  C_4
REMARK    3  A    between atoms: C_2  and  N_8
REMARK    4  A    between atoms: C_4  and  C_5
REMARK    5  A    between atoms: C_4  and  C_6
REMARK    6  A    between atoms: C_4  and  C_7
REMARK    7  A    between atoms: C_9  and  C_11
REMARK    8  A    between atoms: C_22  and  C_24
REMARK                            x       y       z     vdW  Elec       q    Type
REMARK                         _______ _______ _______ _____ _____    ______ ____
ROOT
ATOM      1  C   UNL     1       0.712  -1.094  -3.598  0.00  0.00    +0.100 C 
ATOM      2  C   UNL     1       1.342  -2.483  -3.349  0.00  0.00    +0.121 C 
ATOM      3  N   UNL     1       0.333  -3.447  -3.848  0.00  0.00    -0.296 N 
ATOM      4  C   UNL     1      -0.202  -2.817  -5.079  0.00  0.00    +0.115 C 
ATOM      5  C   UNL     1      -0.298  -1.317  -4.737  0.00  0.00    -0.004 C 
ATOM      6  C   UNL     1      -1.709  -0.974  -4.266  0.00  0.00    -0.010 C 
ATOM      7  C   UNL     1      -2.687  -1.149  -5.431  0.00  0.00    -0.082 C 
ATOM      8  N   UNL     1      -2.292  -0.272  -6.540  0.00  0.00    +0.379 N 
ATOM      9  C   UNL     1      -0.973  -0.668  -7.047  0.00  0.00    -0.082 C 
ATOM     10  C   UNL     1       0.077  -0.473  -5.950  0.00  0.00    -0.010 C 
ATOM     11  C   UNL     1      -0.019  -4.629  -3.305  0.00  0.00    +0.249 C 
ATOM     12  O   UNL     1      -0.872  -5.313  -3.838  0.00  0.00    -0.270 OA
ATOM     13  H   UNL     1      -2.972  -0.344  -7.282  0.00  0.00    -0.086 HD
ATOM     14  H   UNL     1      -2.253   0.682  -6.214  0.00  0.00    -0.086 HD
ENDROOT
BRANCH  11  15
ATOM     15  C   UNL     1       0.630  -5.094  -2.063  0.00  0.00    +0.073 A 
ATOM     16  C   UNL     1       0.084  -4.766  -0.819  0.00  0.00    +0.054 A 
ATOM     17  C   UNL     1       0.696  -5.204   0.338  0.00  0.00    +0.021 A 
ATOM     18  C   UNL     1       1.849  -5.966   0.268  0.00  0.00    +0.003 A 
ATOM     19  C   UNL     1       2.396  -6.295  -0.959  0.00  0.00    +0.021 A 
ATOM     20  C   UNL     1       1.791  -5.869  -2.125  0.00  0.00    +0.054 A 
ATOM     21 CL   UNL     1       2.476  -6.288  -3.664  0.00  0.00    -0.083 Cl
ATOM     22 CL   UNL     1      -1.362  -3.809  -0.729  0.00  0.00    -0.083 Cl
ENDBRANCH  11  15
BRANCH   1  24
ATOM     23  N   UNL     1      -0.132   0.714  -2.136  0.00  0.00    -0.312 N 
ATOM     24  C   UNL     1       0.006  -0.608  -2.358  0.00  0.00    +0.218 C 
ATOM     25  O   UNL     1      -0.437  -1.407  -1.561  0.00  0.00    -0.275 OA
ATOM     26  H   UNL     1       0.223   1.353  -2.774  0.00  0.00    +0.149 HD
BRANCH  23  28
ATOM     27  C   UNL     1      -2.326   1.220  -1.183  0.00  0.00    +0.028 C 
ATOM     28  C   UNL     1      -0.817   1.186  -0.931  0.00  0.00    +0.075 C 
BRANCH  28  29
ATOM     29  C   UNL     1      -0.327   2.593  -0.583  0.00  0.00    -0.020 C 
ATOM     30  C   UNL     1      -1.043   3.087   0.676  0.00  0.00    +0.012 C 
ATOM     31  C   UNL     1       1.182   2.559  -0.332  0.00  0.00    +0.012 C 
ATOM     32  C   UNL     1      -0.628   3.541  -1.746  0.00  0.00    +0.012 C 
ENDBRANCH  28  29
ENDBRANCH  23  28
ENDBRANCH   1  24
TORSDOF 4
