REMARK  Name = ZINC36799254
REMARK  4 active torsions:
REMARK  status: ('A' for Active; 'I' for Inactive)
REMARK    1  A    between atoms: C_1  and  C_2
REMARK    2  A    between atoms: C_9  and  C_16
REMARK    3  A    between atoms: C_11  and  O_12
REMARK    4  A    between atoms: C_16  and  N_17
REMARK                            x       y       z     vdW  Elec       q    Type
REMARK                         _______ _______ _______ _____ _____    ______ ____
ROOT
ATOM      1  C   UNL     1       0.541  -6.889  -2.733  0.00  0.00    +0.154 C 
ENDROOT
BRANCH   1   2
ATOM      2  N   UNL     1       1.953  -7.120  -3.050  0.00  0.00    -0.220 N 
ATOM      3  C   UNL     1       2.727  -6.254  -3.734  0.00  0.00    +0.251 C 
ATOM      4  O   UNL     1       2.401  -5.178  -4.187  0.00  0.00    -0.272 OA
ATOM      5  C   UNL     1       4.089  -6.907  -3.818  0.00  0.00    +0.138 C 
ATOM      6  C   UNL     1       4.466  -7.155  -5.273  0.00  0.00    +0.040 C 
ATOM      7  C   UNL     1       5.921  -7.637  -5.323  0.00  0.00    +0.008 C 
ATOM      8  C   UNL     1       6.829  -6.472  -4.932  0.00  0.00    +0.035 C 
ATOM      9  C   UNL     1       6.379  -5.860  -3.632  0.00  0.00    -0.042 A 
ATOM     10  C   UNL     1       5.114  -6.058  -3.121  0.00  0.00    -0.012 A 
ATOM     11  C   UNL     1       4.758  -5.461  -1.919  0.00  0.00    +0.006 A 
ATOM     12  C   UNL     1       5.660  -4.674  -1.232  0.00  0.00    +0.000 A 
ATOM     13  C   UNL     1       6.929  -4.478  -1.744  0.00  0.00    +0.000 A 
ATOM     14  C   UNL     1       7.285  -5.069  -2.938  0.00  0.00    +0.004 A 
ATOM     15  N   UNL     1       3.914  -8.182  -3.109  0.00  0.00    -0.281 N 
ATOM     16  C   UNL     1       2.635  -8.214  -2.691  0.00  0.00    +0.310 C 
ATOM     17  O   UNL     1       2.153  -9.135  -2.061  0.00  0.00    -0.252 OA
ATOM     18  H   UNL     1       4.589  -8.864  -2.967  0.00  0.00    +0.152 HD
ENDBRANCH   1   2
BRANCH   1  27
ATOM     19  C   UNL     1      -0.036   1.450   0.103  0.00  0.00    +0.109 C 
ATOM     20  C   UNL     1       0.231  -0.029  -0.007  0.00  0.00    +0.214 C 
ATOM     21  O   UNL     1       0.659  -0.644   0.953  0.00  0.00    -0.276 OA
ATOM     22  N   UNL     1       0.000  -0.657  -1.144  0.00  0.00    -0.286 N 
ATOM     23  C   UNL     1       0.106  -2.013  -1.205  0.00  0.00    +0.037 A 
ATOM     24  C   UNL     1       0.205  -2.651  -2.454  0.00  0.00    +0.024 A 
ATOM     25  C   UNL     1       0.312  -4.003  -2.529  0.00  0.00    +0.014 A 
ATOM     26  C   UNL     1       0.323  -4.772  -1.352  0.00  0.00    +0.022 A 
ATOM     27  C   UNL     1       0.433  -6.178  -1.409  0.00  0.00    -0.012 A 
ATOM     28  C   UNL     1       0.440  -6.887  -0.224  0.00  0.00    +0.093 A 
ATOM     29  C   UNL     1       0.340  -6.214   0.985  0.00  0.00    +0.285 A 
ATOM     30  O   UNL     1       0.235  -4.882   1.034  0.00  0.00    -0.425 OA
ATOM     31  C   UNL     1       0.224  -4.140  -0.093  0.00  0.00    +0.141 A 
ATOM     32  C   UNL     1       0.121  -2.762  -0.028  0.00  0.00    +0.070 A 
ATOM     33  H   UNL     1      -0.245  -0.153  -1.935  0.00  0.00    +0.155 HD
BRANCH  29  34
ATOM     34  O   UNL     1       0.348  -6.918   2.134  0.00  0.00    -0.480 OA
ATOM     35  H   UNL     1       0.274  -6.373   2.929  0.00  0.00    +0.295 HD
ENDBRANCH  29  34
ENDBRANCH   1  27
TORSDOF 3
