REMARK  Name = ZINC12939060
REMARK  6 active torsions:
REMARK  status: ('A' for Active; 'I' for Inactive)
REMARK    1  A    between atoms: C_3  and  C_9
REMARK    2  A    between atoms: C_4  and  O_8
REMARK    3  A    between atoms: C_6  and  O_7
REMARK    4  A    between atoms: C_9  and  O_11
REMARK    5  A    between atoms: O_11  and  C_12
REMARK    6  A    between atoms: C_12  and  C_13
REMARK                            x       y       z     vdW  Elec       q    Type
REMARK                         _______ _______ _______ _____ _____    ______ ____
ROOT
ATOM      1  C   UNL     1       4.840   5.714  -0.010  0.00  0.00    +0.170 A 
ATOM      2  N   UNL     1       4.724   6.357  -1.159  0.00  0.00    -0.214 NA
ATOM      3  C   UNL     1       4.369   7.630  -1.221  0.00  0.00    +0.128 A 
ATOM      4  C   UNL     1       4.102   8.333  -0.013  0.00  0.00    +0.051 A 
ATOM      5  C   UNL     1       3.697   9.733   0.158  0.00  0.00    -0.025 A 
ATOM      6  C   UNL     1       3.511  10.159   1.423  0.00  0.00    -0.004 A 
ATOM      7  S   UNL     1       3.845   8.747   2.445  0.00  0.00    -0.073 S 
ATOM      8  C   UNL     1       4.246   7.583   1.169  0.00  0.00    +0.114 A 
ATOM      9  N   UNL     1       4.601   6.312   1.141  0.00  0.00    -0.221 NA
ATOM     10  C   UNL     1       3.118  11.529   1.883  0.00  0.00    +0.043 C 
ATOM     11  C   UNL     1       1.903  12.006   1.076  0.00  0.00    +0.005 C 
ATOM     12  C   UNL     1       2.407  12.730  -0.168  0.00  0.00    +0.001 C 
ATOM     13  C   UNL     1       3.713  12.099  -0.647  0.00  0.00    +0.005 C 
ATOM     14  C   UNL     1       3.490  10.646  -1.047  0.00  0.00    +0.037 C 
ATOM     15  N   UNL     1       4.258   8.268  -2.443  0.00  0.00    -0.343 N 
ATOM     16  H   UNL     1       3.659   9.024  -2.543  0.00  0.00    +0.144 HD
ATOM     17  H   UNL     1       4.781   7.960  -3.200  0.00  0.00    +0.144 HD
ENDROOT
BRANCH   1  18
ATOM     18  C   UNL     1       5.249   4.264  -0.016  0.00  0.00    +0.308 C 
BRANCH  18  19
ATOM     19  O   UNL     1       4.084   3.441  -0.097  0.00  0.00    -0.453 OA
BRANCH  19  20
ATOM     20  C   UNL     1       4.277   2.107  -0.113  0.00  0.00    +0.343 C 
ATOM     21  O   UNL     1       5.404   1.655  -0.058  0.00  0.00    -0.245 OA
BRANCH  20  24
ATOM     22  C   UNL     1       0.749   0.860  -0.335  0.00  0.00    +0.046 A 
ATOM     23  C   UNL     1       1.825   1.714  -0.257  0.00  0.00    +0.022 A 
ATOM     24  C   UNL     1       3.123   1.197  -0.195  0.00  0.00    +0.100 A 
ATOM     25  C   UNL     1       3.321  -0.193  -0.211  0.00  0.00    +0.134 A 
ATOM     26  C   UNL     1       2.230  -1.040  -0.289  0.00  0.00    +0.091 A 
ATOM     27  C   UNL     1       0.947  -0.517  -0.351  0.00  0.00    +0.120 A 
BRANCH  27  28
ATOM     28  O   UNL     1      -0.120  -1.352  -0.428  0.00  0.00    -0.507 OA
ATOM     29  H   UNL     1      -0.380  -1.576  -1.332  0.00  0.00    +0.292 HD
ENDBRANCH  27  28
BRANCH  25  30
ATOM     30  O   UNL     1       4.577  -0.702  -0.152  0.00  0.00    -0.506 OA
ATOM     31  H   UNL     1       4.891  -0.868   0.748  0.00  0.00    +0.292 HD
ENDBRANCH  25  30
ENDBRANCH  20  24
ENDBRANCH  19  20
ENDBRANCH  18  19
ENDBRANCH   1  18
TORSDOF 6
