REMARK  Name = ZINC58112010
REMARK  7 active torsions:
REMARK  status: ('A' for Active; 'I' for Inactive)
REMARK    1  A    between atoms: C_1  and  C_2
REMARK    2  A    between atoms: N_4  and  C_5
REMARK    3  A    between atoms: C_5  and  C_7
REMARK    4  A    between atoms: C_5  and  C_18
REMARK    5  A    between atoms: C_7  and  C_8
REMARK    6  A    between atoms: N_20  and  C_21
REMARK    7  A    between atoms: C_21  and  C_22
REMARK                            x       y       z     vdW  Elec       q    Type
REMARK                         _______ _______ _______ _____ _____    ______ ____
ROOT
ATOM      1  C   UNL     1       0.020  -2.136  -1.177  0.00  0.00    +0.163 C 
ENDROOT
BRANCH   1   5
ATOM      2  C   UNL     1      -0.018   1.503   0.010  0.00  0.00    +0.109 C 
ATOM      3  C   UNL     1       0.002  -0.004   0.002  0.00  0.00    +0.211 C 
ATOM      4  O   UNL     1       0.020  -0.616   1.049  0.00  0.00    -0.276 OA
ATOM      5  N   UNL     1       0.000  -0.672  -1.169  0.00  0.00    -0.304 N 
ATOM      6  H   UNL     1      -0.015  -0.182  -2.006  0.00  0.00    +0.149 HD
ENDBRANCH   1   5
BRANCH   1   7
ATOM      7  C   UNL     1       1.264  -2.626  -0.481  0.00  0.00    +0.234 C 
ATOM      8  O   UNL     1       1.862  -1.893   0.279  0.00  0.00    -0.274 OA
ATOM      9  N   UNL     1       1.712  -3.877  -0.703  0.00  0.00    -0.308 N 
ATOM     10  H   UNL     1       1.234  -4.463  -1.310  0.00  0.00    +0.149 HD
BRANCH   9  11
ATOM     11  C   UNL     1       2.921  -4.353  -0.026  0.00  0.00    +0.157 C 
BRANCH  11  12
ATOM     12  C   UNL     1       3.204  -5.773  -0.443  0.00  0.00    +0.034 A 
ATOM     13  C   UNL     1       2.812  -6.867   0.230  0.00  0.00    +0.032 A 
ATOM     14  C   UNL     1       3.295  -8.028  -0.522  0.00  0.00    -0.000 A 
ATOM     15  C   UNL     1       3.206  -9.409  -0.336  0.00  0.00    +0.010 A 
ATOM     16  C   UNL     1       3.779 -10.253  -1.245  0.00  0.00    +0.001 A 
ATOM     17  C   UNL     1       4.449  -9.749  -2.351  0.00  0.00    +0.002 A 
ATOM     18  C   UNL     1       4.548  -8.390  -2.554  0.00  0.00    +0.026 A 
ATOM     19  C   UNL     1       3.972  -7.512  -1.642  0.00  0.00    +0.047 A 
ATOM     20  N   UNL     1       3.894  -6.139  -1.567  0.00  0.00    -0.357 N 
ATOM     21  H   UNL     1       4.274  -5.524  -2.213  0.00  0.00    +0.166 HD
ENDBRANCH  11  12
ENDBRANCH   9  11
ENDBRANCH   1   7
BRANCH   1  22
ATOM     22  C   UNL     1      -1.215  -2.667  -0.447  0.00  0.00    +0.069 C 
BRANCH  22  23
ATOM     23  C   UNL     1      -2.455  -2.281  -1.211  0.00  0.00    -0.020 A 
ATOM     24  C   UNL     1      -3.224  -1.202  -0.994  0.00  0.00    +0.087 A 
ATOM     25  N   UNL     1      -4.263  -1.182  -1.884  0.00  0.00    -0.360 N 
ATOM     26  H   UNL     1      -4.950  -0.499  -1.923  0.00  0.00    +0.165 HD
ATOM     27  C   UNL     1      -4.186  -2.276  -2.717  0.00  0.00    +0.047 A 
ATOM     28  C   UNL     1      -3.047  -3.009  -2.336  0.00  0.00    +0.003 A 
ATOM     29  C   UNL     1      -2.713  -4.180  -3.018  0.00  0.00    +0.010 A 
ATOM     30  C   UNL     1      -3.492  -4.607  -4.056  0.00  0.00    +0.001 A 
ATOM     31  C   UNL     1      -4.614  -3.885  -4.438  0.00  0.00    +0.002 A 
ATOM     32  C   UNL     1      -4.968  -2.732  -3.773  0.00  0.00    +0.026 A 
ENDBRANCH  22  23
ENDBRANCH   1  22
TORSDOF 6
