REMARK  Name = ZINC12300124
REMARK  8 active torsions:
REMARK  status: ('A' for Active; 'I' for Inactive)
REMARK    1  A    between atoms: C_4  and  C_7
REMARK    2  A    between atoms: C_10  and  C_13
REMARK    3  A    between atoms: C_14  and  C_19
REMARK    4  A    between atoms: C_19  and  N_56
REMARK    5  A    between atoms: C_20  and  C_22
REMARK    6  A    between atoms: C_20  and  C_28
REMARK    7  A    between atoms: C_20  and  N_56
REMARK    8  A    between atoms: C_22  and  N_23
REMARK                            x       y       z     vdW  Elec       q    Type
REMARK                         _______ _______ _______ _____ _____    ______ ____
ROOT
ATOM      1  C   UNL     1       0.911   4.761   1.225  0.00  0.00    +0.094 A 
ATOM      2  C   UNL     1       2.122   4.251   0.718  0.00  0.00    -0.019 A 
ATOM      3  C   UNL     1       2.066   4.314  -0.630  0.00  0.00    +0.107 A 
ATOM      4  N   UNL     1       0.875   4.849  -0.973  0.00  0.00    -0.284 N 
ATOM      5  H   UNL     1       0.555   5.021  -1.905  0.00  0.00    +0.188 HD
ATOM      6  N   UNL     1       0.164   5.123   0.203  0.00  0.00    -0.174 NA
ENDROOT
BRANCH   1  10
ATOM      7  C   UNL     1      -0.144   5.088   5.335  0.00  0.00    -0.018 A 
ATOM      8  C   UNL     1      -0.448   6.125   4.452  0.00  0.00    +0.009 A 
ATOM      9  C   UNL     1      -0.106   6.019   3.122  0.00  0.00    +0.010 A 
ATOM     10  C   UNL     1       0.543   4.875   2.658  0.00  0.00    +0.002 A 
ATOM     11  C   UNL     1       0.848   3.839   3.540  0.00  0.00    +0.010 A 
ATOM     12  C   UNL     1       0.506   3.945   4.870  0.00  0.00    +0.009 A 
BRANCH   7  16
ATOM     13  C   UNL     1      -1.195   5.417   9.441  0.00  0.00    +0.000 A 
ATOM     14  C   UNL     1      -0.658   4.236   8.960  0.00  0.00    +0.001 A 
ATOM     15  C   UNL     1      -0.315   4.124   7.628  0.00  0.00    +0.008 A 
ATOM     16  C   UNL     1      -0.511   5.203   6.767  0.00  0.00    -0.018 A 
ATOM     17  C   UNL     1      -1.048   6.391   7.259  0.00  0.00    +0.008 A 
ATOM     18  C   UNL     1      -1.392   6.490   8.592  0.00  0.00    +0.001 A 
ENDBRANCH   7  16
ENDBRANCH   1  10
BRANCH   2  19
ATOM     19  C   UNL     1       3.275   3.725   1.534  0.00  0.00    -0.042 C 
BRANCH  19  20
ATOM     20  N   UNL     1       4.404   3.419   0.636  0.00  0.00    +0.388 N 
ATOM     21  H   UNL     1       4.643   4.258   0.094  0.00  0.00    -0.084 HD
ATOM     22  H   UNL     1       4.131   2.664  -0.005  0.00  0.00    -0.084 HD
BRANCH  20  23
ATOM     23  C   UNL     1       5.580   2.994   1.418  0.00  0.00    -0.019 C 
BRANCH  23  24
ATOM     24  C   UNL     1       5.537   1.500   1.617  0.00  0.00    -0.060 A 
ATOM     25  C   UNL     1       5.225   0.670   0.557  0.00  0.00    +0.002 A 
ATOM     26  C   UNL     1       5.190  -0.700   0.739  0.00  0.00    +0.000 A 
ATOM     27  C   UNL     1       5.458  -1.239   1.983  0.00  0.00    +0.000 A 
ATOM     28  C   UNL     1       5.765  -0.408   3.045  0.00  0.00    +0.000 A 
ATOM     29  C   UNL     1       5.804   0.961   2.862  0.00  0.00    +0.002 A 
ENDBRANCH  23  24
BRANCH  23  30
ATOM     30  C   UNL     1       6.852   3.370   0.657  0.00  0.00    +0.132 C 
BRANCH  30  31
ATOM     31  N   UNL     1       6.954   4.829   0.567  0.00  0.00    -0.273 N 
ATOM     32  C   UNL     1       7.999   5.579   0.976  0.00  0.00    +0.108 A 
ATOM     33  C   UNL     1       7.704   6.873   0.716  0.00  0.00    +0.041 A 
ATOM     34  C   UNL     1       6.432   6.918   0.137  0.00  0.00    +0.134 A 
ATOM     35  N   UNL     1       5.981   5.692   0.048  0.00  0.00    -0.180 NA
ENDBRANCH  30  31
ENDBRANCH  23  30
ENDBRANCH  20  23
ENDBRANCH  19  20
ENDBRANCH   2  19
TORSDOF 8
