REMARK  Name = ZINC06944314
REMARK  9 active torsions:
REMARK  status: ('A' for Active; 'I' for Inactive)
REMARK    1  A    between atoms: C_1  and  C_2
REMARK    2  A    between atoms: C_2  and  C_3
REMARK    3  A    between atoms: C_3  and  C_5
REMARK    4  A    between atoms: C_3  and  N_15
REMARK    5  A    between atoms: N_7  and  C_8
REMARK    6  A    between atoms: C_8  and  C_9
REMARK    7  A    between atoms: C_20  and  C_22
REMARK    8  A    between atoms: C_23  and  C_32
REMARK    9  A    between atoms: N_24  and  C_26
REMARK                            x       y       z     vdW  Elec       q    Type
REMARK                         _______ _______ _______ _____ _____    ______ ____
ROOT
ATOM      1  N   UNL     1       1.377   1.676   2.668  0.00  0.00    -0.215 N 
ATOM      2  C   UNL     1       2.442   0.864   2.504  0.00  0.00    +0.296 A 
ATOM      3  O   UNL     1       2.301  -0.345   2.477  0.00  0.00    -0.264 OA
ATOM      4  C   UNL     1       3.772   1.467   2.359  0.00  0.00    +0.161 A 
ATOM      5  C   UNL     1       3.855   2.939   2.402  0.00  0.00    +0.051 A 
ATOM      6  C   UNL     1       2.618   3.695   2.585  0.00  0.00    +0.070 A 
ATOM      7  N   UNL     1       1.488   3.065   2.699  0.00  0.00    -0.172 NA
ATOM      8  C   UNL     1       2.653   5.200   2.635  0.00  0.00    +0.068 C 
ATOM      9  C   UNL     1       5.190   3.214   2.244  0.00  0.00    +0.052 A 
ATOM     10  N   UNL     1       5.821   2.027   2.122  0.00  0.00    -0.236 N 
ATOM     11  N   UNL     1       4.999   1.040   2.189  0.00  0.00    -0.161 NA
ATOM     12  C   UNL     1       5.829   4.579   2.214  0.00  0.00    +0.066 C 
ENDROOT
BRANCH  10  13
ATOM     13  C   UNL     1       7.203   1.887   1.943  0.00  0.00    +0.066 A 
ATOM     14  C   UNL     1       7.905   2.819   1.189  0.00  0.00    +0.028 A 
ATOM     15  C   UNL     1       9.268   2.680   1.018  0.00  0.00    +0.002 A 
ATOM     16  C   UNL     1       9.933   1.611   1.589  0.00  0.00    +0.000 A 
ATOM     17  C   UNL     1       9.236   0.679   2.336  0.00  0.00    +0.002 A 
ATOM     18  C   UNL     1       7.873   0.814   2.514  0.00  0.00    +0.028 A 
ENDBRANCH  10  13
BRANCH   1  19
ATOM     19  C   UNL     1       0.050   1.074   2.813  0.00  0.00    +0.196 C 
BRANCH  19  20
ATOM     20  C   UNL     1      -0.539   1.470   4.142  0.00  0.00    +0.238 C 
ATOM     21  O   UNL     1       0.088   2.185   4.894  0.00  0.00    -0.273 OA
ATOM     22  N   UNL     1      -1.763   1.030   4.495  0.00  0.00    -0.309 N 
ATOM     23  H   UNL     1      -2.265   0.458   3.893  0.00  0.00    +0.149 HD
BRANCH  22  24
ATOM     24  C   UNL     1      -2.336   1.415   5.788  0.00  0.00    +0.139 C 
BRANCH  24  25
ATOM     25  C   UNL     1      -3.701   0.795   5.937  0.00  0.00    -0.030 A 
ATOM     26  C   UNL     1      -4.822   1.479   5.504  0.00  0.00    +0.005 A 
ATOM     27  C   UNL     1      -6.074   0.908   5.636  0.00  0.00    +0.000 A 
ATOM     28  C   UNL     1      -6.207  -0.342   6.211  0.00  0.00    +0.000 A 
ATOM     29  C   UNL     1      -5.087  -1.024   6.649  0.00  0.00    +0.000 A 
ATOM     30  C   UNL     1      -3.834  -0.455   6.511  0.00  0.00    +0.005 A 
ENDBRANCH  24  25
ENDBRANCH  22  24
ENDBRANCH  19  20
BRANCH  19  32
ATOM     31  C   UNL     1      -0.329   1.058   0.343  0.00  0.00    +0.006 C 
ATOM     32  C   UNL     1      -0.860   1.567   1.685  0.00  0.00    +0.033 C 
ENDBRANCH  19  32
ENDBRANCH   1  19
TORSDOF 6
