REMARK  Name = ZINC36207969
REMARK  14 active torsions:
REMARK  status: ('A' for Active; 'I' for Inactive)
REMARK    1  A    between atoms: C_1  and  C_2
REMARK    2  A    between atoms: C_5  and  C_9
REMARK    3  A    between atoms: C_6  and  C_8
REMARK    4  A    between atoms: C_18  and  C_20
REMARK    5  A    between atoms: C_20  and  N_21
REMARK    6  A    between atoms: N_21  and  C_22
REMARK    7  A    between atoms: N_21  and  C_36
REMARK    8  A    between atoms: C_22  and  C_23
REMARK    9  A    between atoms: C_23  and  C_25
REMARK   10  A    between atoms: C_23  and  O_35
REMARK   11  A    between atoms: C_25  and  O_26
REMARK   12  A    between atoms: O_26  and  C_27
REMARK   13  A    between atoms: C_30  and  O_33
REMARK   14  A    between atoms: O_33  and  C_34
REMARK                            x       y       z     vdW  Elec       q    Type
REMARK                         _______ _______ _______ _____ _____    ______ ____
ROOT
ATOM      1  C   UNL     1      -4.031  -7.744   1.904  0.00  0.00    -0.003 C 
ENDROOT
BRANCH   1  11
ATOM      2  C   UNL     1      -4.223  -6.910   7.540  0.00  0.00    +0.004 A 
ATOM      3  C   UNL     1      -3.625  -7.910   8.232  0.00  0.00    +0.056 A 
ATOM      4  S   UNL     1      -3.057  -9.015   6.955  0.00  0.00    -0.076 S 
ATOM      5  C   UNL     1      -3.630  -8.119   5.535  0.00  0.00    +0.116 A 
ATOM      6  C   UNL     1      -4.253  -6.987   6.084  0.00  0.00    +0.080 A 
ATOM      7  C   UNL     1      -4.821  -6.073   5.141  0.00  0.00    +0.260 A 
ATOM      8  O   UNL     1      -5.379  -5.058   5.521  0.00  0.00    -0.267 OA
ATOM      9  N   UNL     1      -4.729  -6.350   3.827  0.00  0.00    -0.312 N 
ATOM     10  H   UNL     1      -5.112  -5.734   3.183  0.00  0.00    +0.170 HD
ATOM     11  C   UNL     1      -4.110  -7.475   3.385  0.00  0.00    +0.094 A 
ATOM     12  N   UNL     1      -3.574  -8.323   4.221  0.00  0.00    -0.229 NA
BRANCH   2  17
ATOM     13  C   UNL     1      -6.619  -2.457  10.292  0.00  0.00    +0.044 C 
ATOM     14  C   UNL     1      -5.992  -3.622   9.572  0.00  0.00    -0.050 A 
ATOM     15  C   UNL     1      -4.624  -3.819   9.640  0.00  0.00    +0.004 A 
ATOM     16  C   UNL     1      -4.044  -4.885   8.982  0.00  0.00    +0.009 A 
ATOM     17  C   UNL     1      -4.840  -5.764   8.249  0.00  0.00    -0.014 A 
ATOM     18  C   UNL     1      -6.217  -5.561   8.184  0.00  0.00    -0.042 A 
ATOM     19  C   UNL     1      -6.787  -4.495   8.851  0.00  0.00    +0.007 A 
ATOM     20  C   UNL     1      -7.084  -6.506   7.393  0.00  0.00    +0.044 C 
ENDBRANCH   2  17
ENDBRANCH   1  11
BRANCH   1  21
ATOM     21  N   UNL     1      -3.445  -9.072   1.678  0.00  0.00    +0.388 N 
ATOM     22  H   UNL     1      -2.564  -9.138   2.167  0.00  0.00    -0.081 HD
BRANCH  21  23
ATOM     23  C   UNL     1      -3.223  -9.271   0.240  0.00  0.00    -0.068 C 
ATOM     24  C   UNL     1      -1.873  -9.847  -0.193  0.00  0.00    -0.017 C 
ATOM     25  C   UNL     1      -2.191  -8.372  -0.446  0.00  0.00    -0.017 C 
ENDBRANCH  21  23
BRANCH  21  26
ATOM     26  C   UNL     1      -4.362 -10.104   2.179  0.00  0.00    -0.043 C 
BRANCH  26  27
ATOM     27  C   UNL     1      -3.699 -11.477   2.058  0.00  0.00    +0.135 C 
BRANCH  27  28
ATOM     28  O   UNL     1      -2.560 -11.534   2.919  0.00  0.00    -0.390 OA
ATOM     29  H   UNL     1      -2.766 -11.398   3.854  0.00  0.00    +0.210 HD
ENDBRANCH  27  28
BRANCH  27  30
ATOM     30  C   UNL     1      -4.698 -12.563   2.463  0.00  0.00    +0.258 C 
BRANCH  30  31
ATOM     31  O   UNL     1      -4.119 -13.851   2.239  0.00  0.00    -0.489 OA
BRANCH  31  32
ATOM     32  C   UNL     1      -4.882 -14.933   2.550  0.00  0.00    +0.121 A 
ATOM     33  C   UNL     1      -6.162 -14.758   3.053  0.00  0.00    +0.049 A 
ATOM     34  C   UNL     1      -6.937 -15.857   3.368  0.00  0.00    +0.049 A 
ATOM     35  C   UNL     1      -6.434 -17.136   3.180  0.00  0.00    +0.120 A 
ATOM     36  C   UNL     1      -5.154 -17.311   2.676  0.00  0.00    +0.049 A 
ATOM     37  C   UNL     1      -4.381 -16.212   2.357  0.00  0.00    +0.049 A 
BRANCH  35  38
ATOM     38  O   UNL     1      -7.197 -18.218   3.491  0.00  0.00    -0.495 OA
ATOM     39  C   UNL     1      -6.615 -19.506   3.273  0.00  0.00    +0.277 C 
ENDBRANCH  35  38
ENDBRANCH  31  32
ENDBRANCH  30  31
ENDBRANCH  27  30
ENDBRANCH  26  27
ENDBRANCH  21  26
ENDBRANCH   1  21
TORSDOF 11
