REMARK  Name = ZINC16679437
REMARK  7 active torsions:
REMARK  status: ('A' for Active; 'I' for Inactive)
REMARK    1  A    between atoms: C_4  and  N_7
REMARK    2  A    between atoms: C_11  and  S_12
REMARK    3  A    between atoms: S_12  and  C_13
REMARK    4  A    between atoms: C_13  and  C_14
REMARK    5  A    between atoms: C_14  and  C_16
REMARK    6  A    between atoms: C_17  and  N_28
REMARK    7  A    between atoms: N_18  and  C_25
REMARK                            x       y       z     vdW  Elec       q    Type
REMARK                         _______ _______ _______ _____ _____    ______ ____
ROOT
ATOM      1  S   UNL     1       4.459   3.320   0.069  0.00  0.00    -0.078 S 
ENDROOT
BRANCH   1   6
ATOM      2  N   UNL     1       2.413   1.417  -0.048  0.00  0.00    -0.259 N 
ATOM      3  C   UNL     1       2.254   0.070   0.133  0.00  0.00    +0.225 A 
ATOM      4  N   UNL     1       3.418  -0.435   0.457  0.00  0.00    -0.112 NA
ATOM      5  N   UNL     1       4.354   0.607   0.478  0.00  0.00    -0.120 NA
ATOM      6  C   UNL     1       3.730   1.719   0.174  0.00  0.00    +0.198 A 
ATOM      7  N   UNL     1       1.065  -0.636   0.001  0.00  0.00    -0.299 N 
ATOM      8  C   UNL     1       1.106  -1.522  -1.169  0.00  0.00    +0.108 C 
ATOM      9  C   UNL     1      -0.265  -2.172  -1.366  0.00  0.00    +0.019 C 
ATOM     10  C   UNL     1      -0.632  -2.969  -0.111  0.00  0.00    +0.003 C 
ATOM     11  C   UNL     1      -0.621  -2.033   1.100  0.00  0.00    +0.019 C 
ATOM     12  C   UNL     1       0.761  -1.387   1.226  0.00  0.00    +0.108 C 
BRANCH   2  16
ATOM     13  C   UNL     1      -0.581   4.125  -1.090  0.00  0.00    +0.000 A 
ATOM     14  C   UNL     1       0.014   4.199   0.156  0.00  0.00    +0.002 A 
ATOM     15  C   UNL     1       1.006   3.304   0.504  0.00  0.00    +0.026 A 
ATOM     16  C   UNL     1       1.406   2.328  -0.399  0.00  0.00    +0.052 A 
ATOM     17  C   UNL     1       0.811   2.259  -1.651  0.00  0.00    +0.026 A 
ATOM     18  C   UNL     1      -0.185   3.154  -1.991  0.00  0.00    +0.002 A 
ENDBRANCH   2  16
ENDBRANCH   1   6
BRANCH   1  19
ATOM     19  C   UNL     1       6.204   3.036   0.471  0.00  0.00    +0.157 C 
BRANCH  19  20
ATOM     20  C   UNL     1       6.952   4.343   0.417  0.00  0.00    +0.182 C 
ATOM     21  O   UNL     1       6.364   5.368   0.134  0.00  0.00    -0.291 OA
BRANCH  20  22
ATOM     22  C   UNL     1       8.335   4.377   0.695  0.00  0.00    +0.120 A 
ATOM     23  C   UNL     1       9.037   5.594   0.734  0.00  0.00    +0.116 A 
ATOM     24  N   UNL     1      10.374   5.576   1.013  0.00  0.00    -0.278 N 
ATOM     25  C   UNL     1      11.025   4.424   1.237  0.00  0.00    +0.331 A 
ATOM     26  O   UNL     1      12.216   4.462   1.476  0.00  0.00    -0.246 OA
ATOM     27  N   UNL     1      10.409   3.232   1.207  0.00  0.00    -0.274 N 
ATOM     28  H   UNL     1      10.935   2.399   1.380  0.00  0.00    +0.173 HD
ATOM     29  C   UNL     1       9.088   3.142   0.946  0.00  0.00    +0.266 A 
ATOM     30  O   UNL     1       8.532   2.059   0.920  0.00  0.00    -0.267 OA
BRANCH  24  31
ATOM     31  C   UNL     1      11.114   6.840   1.062  0.00  0.00    +0.094 C 
ATOM     32  C   UNL     1      12.055   7.062   2.248  0.00  0.00    +0.027 C 
ATOM     33  C   UNL     1      10.738   7.836   2.161  0.00  0.00    +0.027 C 
ENDBRANCH  24  31
BRANCH  23  34
ATOM     34  N   UNL     1       8.395   6.771   0.504  0.00  0.00    -0.344 N 
ATOM     35  H   UNL     1       7.427   6.792   0.447  0.00  0.00    +0.144 HD
ATOM     36  H   UNL     1       8.905   7.589   0.397  0.00  0.00    +0.144 HD
ENDBRANCH  23  34
ENDBRANCH  20  22
ENDBRANCH  19  20
ENDBRANCH   1  19
TORSDOF 7
