REMARK  Name = ZINC39674758
REMARK  8 active torsions:
REMARK  status: ('A' for Active; 'I' for Inactive)
REMARK    1  A    between atoms: C_1  and  C_2
REMARK    2  A    between atoms: C_4  and  C_14
REMARK    3  A    between atoms: C_7  and  C_12
REMARK    4  A    between atoms: C_14  and  C_15
REMARK    5  A    between atoms: C_15  and  N_16
REMARK    6  A    between atoms: C_17  and  C_19
REMARK    7  A    between atoms: C_30  and  C_32
REMARK    8  A    between atoms: N_36  and  C_37
REMARK                            x       y       z     vdW  Elec       q    Type
REMARK                         _______ _______ _______ _____ _____    ______ ____
ROOT
ATOM      1  C   UNL     1      -7.372  -0.736  -3.301  0.00  0.00    +0.100 C 
ATOM      2  C   UNL     1      -6.902  -1.541  -4.533  0.00  0.00    +0.121 C 
ATOM      3  N   UNL     1      -7.299  -2.939  -4.239  0.00  0.00    -0.295 N 
ATOM      4  C   UNL     1      -8.628  -2.817  -3.594  0.00  0.00    +0.115 C 
ATOM      5  C   UNL     1      -8.507  -1.574  -2.690  0.00  0.00    -0.004 C 
ATOM      6  C   UNL     1      -9.813  -0.784  -2.700  0.00  0.00    -0.010 C 
ATOM      7  C   UNL     1     -10.913  -1.615  -2.035  0.00  0.00    -0.082 C 
ATOM      8  N   UNL     1     -10.522  -1.935  -0.657  0.00  0.00    +0.379 N 
ATOM      9  C   UNL     1      -9.317  -2.773  -0.659  0.00  0.00    -0.082 C 
ATOM     10  C   UNL     1      -8.149  -1.991  -1.267  0.00  0.00    -0.010 C 
ATOM     11  C   UNL     1      -6.608  -4.066  -4.501  0.00  0.00    +0.263 C 
ATOM     12  O   UNL     1      -7.144  -5.151  -4.376  0.00  0.00    -0.268 OA
ATOM     13  H   UNL     1     -10.333  -1.079  -0.155  0.00  0.00    -0.086 HD
ATOM     14  H   UNL     1     -11.274  -2.430  -0.201  0.00  0.00    -0.086 HD
ENDROOT
BRANCH  11  15
ATOM     15  C   UNL     1      -5.210  -3.985  -4.936  0.00  0.00    +0.104 A 
ATOM     16  C   UNL     1      -4.373  -2.899  -4.789  0.00  0.00    +0.032 A 
ATOM     17  C   UNL     1      -3.138  -3.255  -5.341  0.00  0.00    +0.020 A 
ATOM     18  C   UNL     1      -3.240  -4.524  -5.804  0.00  0.00    +0.086 A 
ATOM     19  N   UNL     1      -4.493  -4.980  -5.560  0.00  0.00    -0.346 N 
ATOM     20  C   UNL     1      -4.999  -6.311  -5.904  0.00  0.00    +0.149 C 
ENDBRANCH  11  15
BRANCH   1  22
ATOM     21  N   UNL     1      -6.180   0.513  -1.530  0.00  0.00    -0.315 N 
ATOM     22  C   UNL     1      -6.244  -0.581  -2.314  0.00  0.00    +0.218 C 
ATOM     23  O   UNL     1      -5.394  -1.441  -2.225  0.00  0.00    -0.275 OA
ATOM     24  H   UNL     1      -6.860   1.201  -1.601  0.00  0.00    +0.149 HD
BRANCH  21  25
ATOM     25  C   UNL     1      -5.083   0.664  -0.570  0.00  0.00    +0.108 C 
BRANCH  25  26
ATOM     26  C   UNL     1      -5.246   1.983   0.188  0.00  0.00    +0.052 C 
BRANCH  26  29
ATOM     27  C   UNL     1      -5.076   3.421   3.087  0.00  0.00    +0.035 C 
ATOM     28  C   UNL     1      -3.893   3.292   2.125  0.00  0.00    +0.103 C 
ATOM     29  C   UNL     1      -4.118   2.138   1.175  0.00  0.00    -0.037 C 
ATOM     30  C   UNL     1      -3.098   1.269   1.391  0.00  0.00    +0.000 A 
ATOM     31  C   UNL     1      -2.779   0.017   0.802  0.00  0.00    +0.028 A 
ATOM     32  C   UNL     1      -1.663  -0.675   1.214  0.00  0.00    +0.052 A 
ATOM     33  C   UNL     1      -0.786  -0.148   2.253  0.00  0.00    +0.021 A 
ATOM     34  C   UNL     1      -1.039   1.036   2.848  0.00  0.00    +0.027 A 
ATOM     35  C   UNL     1      -2.217   1.814   2.448  0.00  0.00    +0.043 A 
ATOM     36  N   UNL     1      -2.670   2.972   2.868  0.00  0.00    -0.378 N 
ATOM     37  H   UNL     1      -2.264   3.523   3.555  0.00  0.00    +0.160 HD
BRANCH  32  38
ATOM     38  C   UNL     1      -1.357  -1.936   0.609  0.00  0.00    +0.099 C 
ATOM     39  N   UNL     1      -1.113  -2.936   0.129  0.00  0.00    -0.191 NA
ENDBRANCH  32  38
ENDBRANCH  26  29
ENDBRANCH  25  26
ENDBRANCH  21  25
ENDBRANCH   1  22
TORSDOF 6
