REMARK  Name = ZINC21042014
REMARK  4 active torsions:
REMARK  status: ('A' for Active; 'I' for Inactive)
REMARK    1  A    between atoms: C_6  and  S_7
REMARK    2  A    between atoms: S_7  and  N_10
REMARK    3  A    between atoms: C_13  and  C_16
REMARK    4  A    between atoms: C_16  and  C_17
REMARK                            x       y       z     vdW  Elec       q    Type
REMARK                         _______ _______ _______ _____ _____    ______ ____
ROOT
ATOM      1  N   UNL     1       1.223  -2.922  -1.606  0.00  0.00    -0.103 NA
ATOM      2  C   UNL     1       2.300  -2.624  -2.427  0.00  0.00    +0.192 A 
ATOM      3  N   UNL     1       2.480  -2.923  -3.699  0.00  0.00    -0.336 N 
ATOM      4  C   UNL     1       3.574  -2.555  -4.339  0.00  0.00    +0.035 A 
ATOM      5  C   UNL     1       4.522  -1.870  -3.656  0.00  0.00    +0.070 A 
ATOM      6  S   UNL     1       3.761  -1.769  -2.042  0.00  0.00    -0.057 S 
ATOM      7  H   UNL     1       1.710  -3.488  -4.246  0.00  0.00    +0.168 HD
ENDROOT
BRANCH   1   8
ATOM      8  S   UNL     1       1.232  -2.441  -0.022  0.00  0.00    +0.101 S 
ATOM      9  O   UNL     1       2.487  -2.833   0.515  0.00  0.00    -0.146 OA
ATOM     10  O   UNL     1      -0.003  -2.866   0.538  0.00  0.00    -0.146 OA
BRANCH   8  16
ATOM     11  C   UNL     1       0.002  -0.004   0.002  0.00  0.00    +0.030 A 
ATOM     12  C   UNL     1      -0.017   1.378   0.010  0.00  0.00    +0.017 A 
ATOM     13  C   UNL     1       1.172   2.086   0.002  0.00  0.00    +0.018 A 
ATOM     14  C   UNL     1       2.379   1.410  -0.013  0.00  0.00    +0.017 A 
ATOM     15  C   UNL     1       2.396   0.028  -0.021  0.00  0.00    +0.030 A 
ATOM     16  C   UNL     1       1.208  -0.679  -0.013  0.00  0.00    +0.113 A 
ATOM     17 BR   UNL     1       1.147   3.976   0.013  0.00  0.00    -0.050 Br
ENDBRANCH   8  16
ENDBRANCH   1   8
BRANCH   4  18
ATOM     18  C   UNL     1       3.768  -2.895  -5.794  0.00  0.00    +0.178 C 
BRANCH  18  19
ATOM     19  C   UNL     1       3.615  -4.382  -5.987  0.00  0.00    +0.362 C 
ATOM     20  O   UNL     1       3.373  -5.092  -5.040  0.00  0.00    -0.246 OA
ATOM     21  O   UNL     1       3.747  -4.916  -7.211  0.00  0.00    -0.246 OA
ENDBRANCH  18  19
ENDBRANCH   4  18
TORSDOF 4
