REMARK  Name = ZINC15171875
REMARK  5 active torsions:
REMARK  status: ('A' for Active; 'I' for Inactive)
REMARK    1  A    between atoms: C_3  and  N_21
REMARK    2  A    between atoms: N_7  and  C_8
REMARK    3  A    between atoms: C_8  and  C_9
REMARK    4  A    between atoms: C_9  and  C_11
REMARK    5  A    between atoms: C_9  and  N_16
REMARK                            x       y       z     vdW  Elec       q    Type
REMARK                         _______ _______ _______ _____ _____    ______ ____
ROOT
ATOM      1  C   UNL     1       2.889   2.517  -1.367  0.00  0.00    +0.095 C 
ENDROOT
BRANCH   1   8
ATOM      2  C   UNL     1       5.315   1.937  -5.700  0.00  0.00    +0.022 A 
ATOM      3  C   UNL     1       6.253   1.563  -4.746  0.00  0.00    +0.038 A 
ATOM      4  C   UNL     1       5.902   1.639  -3.411  0.00  0.00    +0.166 A 
ATOM      5  C   UNL     1       4.629   2.084  -3.069  0.00  0.00    +0.149 A 
ATOM      6  N   UNL     1       3.761   2.427  -4.008  0.00  0.00    -0.238 NA
ATOM      7  C   UNL     1       4.070   2.370  -5.290  0.00  0.00    +0.113 A 
ATOM      8  N   UNL     1       4.264   2.165  -1.731  0.00  0.00    -0.328 N 
ATOM      9  H   UNL     1       5.007   1.964  -0.945  0.00  0.00    +0.147 HD
BRANCH   4  10
ATOM     10  N   UNL     1       6.787   1.284  -2.448  0.00  0.00    +0.060 N 
ATOM     11  O   UNL     1       7.966   1.563  -2.571  0.00  0.00    -0.126 OA
ATOM     12  O   UNL     1       6.403   0.687  -1.458  0.00  0.00    -0.126 OA
ENDBRANCH   4  10
ENDBRANCH   1   8
BRANCH   1  13
ATOM     13  C   UNL     1       2.754   2.536   0.157  0.00  0.00    +0.016 C 
BRANCH  13  14
ATOM     14  N   UNL     1       3.761   3.441   0.727  0.00  0.00    +0.387 N 
ATOM     15  C   UNL     1       3.713   4.772   0.070  0.00  0.00    -0.078 C 
ATOM     16  C   UNL     1       4.410   5.700   1.096  0.00  0.00    -0.020 C 
ATOM     17  C   UNL     1       3.925   5.141   2.453  0.00  0.00    -0.020 C 
ATOM     18  C   UNL     1       3.499   3.690   2.161  0.00  0.00    -0.078 C 
ATOM     19  H   UNL     1       4.730   2.944   0.575  0.00  0.00    -0.081 HD
ENDBRANCH  13  14
BRANCH  13  20
ATOM     20  C   UNL     1       1.376   3.017   0.533  0.00  0.00    +0.093 A 
ATOM     21  C   UNL     1       0.335   2.235   0.871  0.00  0.00    +0.043 A 
ATOM     22  C   UNL     1      -0.754   3.095   1.139  0.00  0.00    +0.041 A 
ATOM     23  C   UNL     1      -0.311   4.353   0.958  0.00  0.00    +0.195 A 
ATOM     24  O   UNL     1       0.979   4.298   0.588  0.00  0.00    -0.469 OA
ENDBRANCH  13  20
ENDBRANCH   1  13
TORSDOF 5
