REMARK  Name = ZINC38762315
REMARK  8 active torsions:
REMARK  status: ('A' for Active; 'I' for Inactive)
REMARK    1  A    between atoms: C_1  and  C_2
REMARK    2  A    between atoms: N_5  and  C_8
REMARK    3  A    between atoms: C_8  and  C_9
REMARK    4  A    between atoms: C_11  and  N_15
REMARK    5  A    between atoms: C_16  and  C_18
REMARK    6  A    between atoms: C_18  and  C_19
REMARK    7  A    between atoms: C_19  and  C_20
REMARK    8  A    between atoms: N_27  and  C_30
REMARK                            x       y       z     vdW  Elec       q    Type
REMARK                         _______ _______ _______ _____ _____    ______ ____
ROOT
ATOM      1  C   UNL     1       3.810  -2.627   6.669  0.00  0.00    +0.103 C 
ENDROOT
BRANCH   1   3
ATOM      2  N   UNL     1       3.448  -3.269   4.308  0.00  0.00    -0.285 N 
ATOM      3  C   UNL     1       4.258  -3.277   5.386  0.00  0.00    +0.216 C 
ATOM      4  O   UNL     1       5.347  -3.808   5.322  0.00  0.00    -0.276 OA
ATOM      5  H   UNL     1       2.578  -2.845   4.359  0.00  0.00    +0.152 HD
BRANCH   2   8
ATOM      6  C   UNL     1       2.569  -4.335   1.129  0.00  0.00    +0.010 C 
ATOM      7  N   UNL     1       3.035  -3.483   1.926  0.00  0.00    -0.261 NA
ATOM      8  C   UNL     1       3.884  -3.901   3.060  0.00  0.00    +0.251 C 
ATOM      9  S   UNL     1       3.554  -5.718   3.081  0.00  0.00    -0.110 S 
ATOM     10  C   UNL     1       2.888  -5.805   1.362  0.00  0.00    +0.121 C 
BRANCH   6  11
ATOM     11  C   UNL     1       1.704  -3.911  -0.029  0.00  0.00    -0.027 C 
BRANCH  11  16
ATOM     12  C   UNL     1      -0.019   1.526   0.010  0.00  0.00    +0.007 C 
ATOM     13  C   UNL     1       0.002  -0.004   0.002  0.00  0.00    -0.018 C 
ATOM     14  C   UNL     1       0.727  -0.499  -1.252  0.00  0.00    -0.016 C 
ATOM     15  C   UNL     1       0.814  -2.027  -1.215  0.00  0.00    -0.078 C 
ATOM     16  N   UNL     1       1.556  -2.449  -0.021  0.00  0.00    +0.383 N 
ATOM     17  C   UNL     1       0.829  -2.040   1.187  0.00  0.00    -0.078 C 
ATOM     18  C   UNL     1       0.743  -0.513   1.242  0.00  0.00    -0.016 C 
ATOM     19  H   UNL     1       2.469  -2.020  -0.024  0.00  0.00    -0.081 HD
ENDBRANCH  11  16
ENDBRANCH   6  11
ENDBRANCH   2   8
ENDBRANCH   1   3
BRANCH   1  20
ATOM     20  C   UNL     1       4.906  -2.776   7.726  0.00  0.00    +0.083 C 
BRANCH  20  21
ATOM     21  C   UNL     1       4.459  -2.126   9.010  0.00  0.00    +0.113 A 
ATOM     22  N   UNL     1       5.301  -2.147  10.074  0.00  0.00    -0.310 N 
ATOM     23  C   UNL     1       4.935  -1.574  11.244  0.00  0.00    +0.262 A 
ATOM     24  O   UNL     1       5.677  -1.583  12.211  0.00  0.00    -0.267 OA
ATOM     25  C   UNL     1       3.617  -0.944  11.306  0.00  0.00    +0.103 A 
ATOM     26  C   UNL     1       2.891  -0.265  12.302  0.00  0.00    +0.150 A 
ATOM     27  N   UNL     1       1.740   0.093  11.802  0.00  0.00    -0.172 NA
ATOM     28  N   UNL     1       1.659  -0.329  10.469  0.00  0.00    -0.214 N 
ATOM     29  C   UNL     1       2.816  -0.972  10.153  0.00  0.00    +0.170 A 
ATOM     30  N   UNL     1       3.285  -1.565   9.045  0.00  0.00    -0.214 NA
ATOM     31  H   UNL     1       6.167  -2.575   9.995  0.00  0.00    +0.170 HD
BRANCH  28  32
ATOM     32  C   UNL     1       0.572  -0.125   9.608  0.00  0.00    +0.068 A 
ATOM     33  C   UNL     1       0.789   0.098   8.255  0.00  0.00    +0.028 A 
ATOM     34  C   UNL     1      -0.285   0.298   7.409  0.00  0.00    +0.002 A 
ATOM     35  C   UNL     1      -1.574   0.277   7.909  0.00  0.00    +0.000 A 
ATOM     36  C   UNL     1      -1.793   0.056   9.256  0.00  0.00    +0.002 A 
ATOM     37  C   UNL     1      -0.724  -0.151  10.106  0.00  0.00    +0.028 A 
ENDBRANCH  28  32
ENDBRANCH  20  21
ENDBRANCH   1  20
TORSDOF 7
