REMARK  Name = ZINC39532177
REMARK  10 active torsions:
REMARK  status: ('A' for Active; 'I' for Inactive)
REMARK    1  A    between atoms: C_1  and  C_2
REMARK    2  A    between atoms: C_2  and  C_3
REMARK    3  A    between atoms: C_6  and  C_9
REMARK    4  A    between atoms: C_9  and  C_11
REMARK    5  A    between atoms: C_9  and  N_20
REMARK    6  A    between atoms: C_11  and  N_12
REMARK    7  A    between atoms: N_12  and  C_13
REMARK    8  A    between atoms: C_13  and  C_14
REMARK    9  A    between atoms: C_24  and  S_27
REMARK   10  A    between atoms: S_27  and  C_28
REMARK                            x       y       z     vdW  Elec       q    Type
REMARK                         _______ _______ _______ _____ _____    ______ ____
ROOT
ATOM      1  C   UNL     1       2.681  -1.879  -4.722  0.00  0.00    -0.023 C 
ENDROOT
BRANCH   1   2
ATOM      2  N   UNL     1       3.709  -2.791  -4.202  0.00  0.00    +0.387 N 
ATOM      3  C   UNL     1       4.594  -3.207  -5.298  0.00  0.00    -0.062 C 
ATOM      4  C   UNL     1       5.676  -4.141  -4.753  0.00  0.00    +0.063 C 
ATOM      5  N   UNL     1       5.041  -5.317  -4.141  0.00  0.00    -0.308 NA
ATOM      6  C   UNL     1       4.132  -4.914  -3.058  0.00  0.00    +0.095 C 
ATOM      7  C   UNL     1       3.063  -3.973  -3.616  0.00  0.00    -0.048 C 
ATOM      8  H   UNL     1       4.556  -5.868  -4.833  0.00  0.00    +0.123 HD
ATOM      9  H   UNL     1       4.250  -2.318  -3.494  0.00  0.00    -0.081 HD
BRANCH   6  10
ATOM     10  S   UNL     1       3.337  -6.386  -2.356  0.00  0.00    -0.147 S 
ATOM     11  C   UNL     1       4.336  -7.765  -2.982  0.00  0.00    +0.086 C 
ENDBRANCH   6  10
ENDBRANCH   1   2
BRANCH   1  15
ATOM     12  C   UNL     1       0.041  -0.757  -1.556  0.00  0.00    -0.048 A 
ATOM     13  C   UNL     1      -0.463  -1.021  -2.816  0.00  0.00    +0.004 A 
ATOM     14  C   UNL     1       0.391  -1.384  -3.841  0.00  0.00    +0.002 A 
ATOM     15  C   UNL     1       1.750  -1.482  -3.606  0.00  0.00    -0.060 A 
ATOM     16  C   UNL     1       2.254  -1.218  -2.346  0.00  0.00    +0.002 A 
ATOM     17  C   UNL     1       1.401  -0.851  -1.323  0.00  0.00    +0.004 A 
BRANCH  12  19
ATOM     18  C   UNL     1      -1.048   1.161  -0.422  0.00  0.00    +0.009 C 
ATOM     19  C   UNL     1      -0.890  -0.361  -0.440  0.00  0.00    +0.032 C 
ENDBRANCH  12  19
ENDBRANCH   1  15
BRANCH   1  20
ATOM     20  C   UNL     1       3.351  -0.629  -5.296  0.00  0.00    +0.070 C 
BRANCH  20  21
ATOM     21  N   UNL     1       2.329   0.249  -5.881  0.00  0.00    -0.313 NA
ATOM     22  H   UNL     1       1.744  -0.258  -6.528  0.00  0.00    +0.122 HD
BRANCH  21  23
ATOM     23  C   UNL     1       2.946   1.413  -6.532  0.00  0.00    +0.116 C 
BRANCH  23  24
ATOM     24  C   UNL     1       1.870   2.289  -7.119  0.00  0.00    -0.034 A 
ATOM     25  C   UNL     1       1.438   2.078  -8.415  0.00  0.00    +0.005 A 
ATOM     26  C   UNL     1       0.450   2.881  -8.955  0.00  0.00    +0.000 A 
ATOM     27  C   UNL     1      -0.105   3.895  -8.198  0.00  0.00    +0.000 A 
ATOM     28  C   UNL     1       0.326   4.106  -6.901  0.00  0.00    +0.000 A 
ATOM     29  C   UNL     1       1.310   3.300  -6.361  0.00  0.00    +0.005 A 
ENDBRANCH  23  24
ENDBRANCH  21  23
ENDBRANCH  20  21
ENDBRANCH   1  20
TORSDOF 8
