REMARK  Name = ZINC05953571
REMARK  7 active torsions:
REMARK  status: ('A' for Active; 'I' for Inactive)
REMARK    1  A    between atoms: C_1  and  C_2
REMARK    2  A    between atoms: C_2  and  O_3
REMARK    3  A    between atoms: O_3  and  C_4
REMARK    4  A    between atoms: C_7  and  C_10
REMARK    5  A    between atoms: N_11  and  N_12
REMARK    6  A    between atoms: C_15  and  C_18
REMARK    7  A    between atoms: C_21  and  C_24
REMARK                            x       y       z     vdW  Elec       q    Type
REMARK                         _______ _______ _______ _____ _____    ______ ____
ROOT
ATOM      1  N   UNL     1       1.812  -7.772  -3.050  0.00  0.00    -0.124 NA
ATOM      2  C   UNL     1       2.425  -8.264  -4.115  0.00  0.00    +0.192 A 
ATOM      3  N   UNL     1       2.633  -9.575  -4.469  0.00  0.00    -0.332 N 
ATOM      4  C   UNL     1       3.300  -9.844  -5.631  0.00  0.00    +0.055 A 
ATOM      5  C   UNL     1       3.737  -8.825  -6.401  0.00  0.00    +0.075 A 
ATOM      6  S   UNL     1       3.192  -7.398  -5.476  0.00  0.00    -0.056 S 
ATOM      7  H   UNL     1       2.313 -10.296  -3.905  0.00  0.00    +0.168 HD
ENDROOT
BRANCH   4   8
ATOM      8  C   UNL     1       3.542 -11.244  -6.043  0.00  0.00    -0.001 A 
ATOM      9  C   UNL     1       3.085 -12.297  -5.249  0.00  0.00    +0.010 A 
ATOM     10  C   UNL     1       3.314 -13.600  -5.639  0.00  0.00    +0.004 A 
ATOM     11  C   UNL     1       3.995 -13.864  -6.814  0.00  0.00    -0.050 A 
ATOM     12  C   UNL     1       4.451 -12.825  -7.605  0.00  0.00    +0.004 A 
ATOM     13  C   UNL     1       4.224 -11.517  -7.230  0.00  0.00    +0.010 A 
ATOM     14  C   UNL     1       4.242 -15.291  -7.234  0.00  0.00    +0.044 C 
ENDBRANCH   4   8
BRANCH   1  16
ATOM     15  C   UNL     1       1.106  -6.009  -1.844  0.00  0.00    +0.143 C 
ATOM     16  N   UNL     1       1.711  -6.495  -2.896  0.00  0.00    -0.155 NA
BRANCH  15  20
ATOM     17  C   UNL     1       0.777  -1.810  -1.336  0.00  0.00    +0.121 A 
ATOM     18  C   UNL     1       0.241  -2.666  -0.383  0.00  0.00    +0.046 A 
ATOM     19  C   UNL     1       0.345  -4.031  -0.543  0.00  0.00    +0.013 A 
ATOM     20  C   UNL     1       0.992  -4.554  -1.668  0.00  0.00    -0.005 A 
ATOM     21  C   UNL     1       1.530  -3.686  -2.625  0.00  0.00    +0.013 A 
ATOM     22  C   UNL     1       1.415  -2.323  -2.458  0.00  0.00    +0.046 A 
BRANCH  17  23
ATOM     23  O   UNL     1       0.671  -0.465  -1.174  0.00  0.00    -0.492 OA
BRANCH  23  25
ATOM     24  C   UNL     1      -0.019   1.526   0.010  0.00  0.00    +0.048 C 
ATOM     25  C   UNL     1       0.002  -0.004   0.002  0.00  0.00    +0.225 C 
ENDBRANCH  23  25
ENDBRANCH  17  23
ENDBRANCH  15  20
ENDBRANCH   1  16
TORSDOF 5
