REMARK  Name = ZINC39693419
REMARK  10 active torsions:
REMARK  status: ('A' for Active; 'I' for Inactive)
REMARK    1  A    between atoms: C_1  and  C_2
REMARK    2  A    between atoms: C_2  and  C_3
REMARK    3  A    between atoms: C_2  and  C_4
REMARK    4  A    between atoms: C_2  and  O_5
REMARK    5  A    between atoms: O_5  and  C_6
REMARK    6  A    between atoms: N_8  and  C_9
REMARK    7  A    between atoms: C_9  and  C_10
REMARK    8  A    between atoms: C_10  and  N_11
REMARK    9  A    between atoms: C_12  and  C_14
REMARK   10  A    between atoms: C_25  and  C_27
REMARK                            x       y       z     vdW  Elec       q    Type
REMARK                         _______ _______ _______ _____ _____    ______ ____
ROOT
ATOM      1  C   UNL     1       8.689   0.108  -5.215  0.00  0.00    +0.100 C 
ATOM      2  C   UNL     1       9.270  -0.582  -3.961  0.00  0.00    +0.121 C 
ATOM      3  N   UNL     1       9.787  -1.881  -4.454  0.00  0.00    -0.296 N 
ATOM      4  C   UNL     1      10.392  -1.562  -5.769  0.00  0.00    +0.115 C 
ATOM      5  C   UNL     1       9.431  -0.535  -6.399  0.00  0.00    -0.004 C 
ATOM      6  C   UNL     1      10.217   0.523  -7.168  0.00  0.00    -0.010 C 
ATOM      7  C   UNL     1      10.898  -0.129  -8.374  0.00  0.00    -0.082 C 
ATOM      8  N   UNL     1       9.883  -0.739  -9.241  0.00  0.00    +0.379 N 
ATOM      9  C   UNL     1       9.194  -1.819  -8.524  0.00  0.00    -0.082 C 
ATOM     10  C   UNL     1       8.441  -1.237  -7.324  0.00  0.00    -0.010 C 
ATOM     11  C   UNL     1       9.721  -3.081  -3.844  0.00  0.00    +0.247 C 
ATOM     12  O   UNL     1       9.079  -3.208  -2.820  0.00  0.00    -0.270 OA
ATOM     13  H   UNL     1       9.211  -0.037  -9.515  0.00  0.00    -0.086 HD
ATOM     14  H   UNL     1      10.327  -1.115 -10.065  0.00  0.00    -0.086 HD
ENDROOT
BRANCH  11  15
ATOM     15  C   UNL     1      10.429  -4.243  -4.421  0.00  0.00    +0.037 A 
ATOM     16  C   UNL     1      11.491  -4.047  -5.307  0.00  0.00    +0.014 A 
ATOM     17  C   UNL     1      12.148  -5.135  -5.842  0.00  0.00    +0.021 A 
ATOM     18  C   UNL     1      11.757  -6.420  -5.502  0.00  0.00    +0.041 A 
ATOM     19  C   UNL     1      10.705  -6.620  -4.624  0.00  0.00    +0.021 A 
ATOM     20  C   UNL     1      10.043  -5.540  -4.078  0.00  0.00    +0.014 A 
ATOM     21 CL   UNL     1      12.589  -7.784  -6.180  0.00  0.00    -0.084 Cl
ENDBRANCH  11  15
BRANCH   1  23
ATOM     22  N   UNL     1       6.422   0.695  -6.012  0.00  0.00    -0.314 N 
ATOM     23  C   UNL     1       7.209  -0.153  -5.319  0.00  0.00    +0.218 C 
ATOM     24  O   UNL     1       6.725  -1.125  -4.779  0.00  0.00    -0.275 OA
ATOM     25  H   UNL     1       6.809   1.472  -6.444  0.00  0.00    +0.149 HD
BRANCH  22  26
ATOM     26  C   UNL     1       4.983   0.441  -6.113  0.00  0.00    +0.123 C 
BRANCH  26  27
ATOM     27  C   UNL     1       4.328   1.544  -6.947  0.00  0.00    +0.126 C 
BRANCH  27  30
ATOM     28  C   UNL     1       2.102   2.138  -7.741  0.00  0.00    +0.401 C 
ATOM     29  O   UNL     1       2.587   3.112  -8.282  0.00  0.00    -0.226 OA
ATOM     30  N   UNL     1       2.889   1.290  -7.048  0.00  0.00    -0.280 N 
ATOM     31  H   UNL     1       2.502   0.513  -6.616  0.00  0.00    +0.152 HD
BRANCH  28  32
ATOM     32  O   UNL     1       0.779   1.905  -7.834  0.00  0.00    -0.445 OA
BRANCH  32  34
ATOM     33  C   UNL     1       0.517   2.890 -10.025  0.00  0.00    +0.055 C 
ATOM     34  C   UNL     1       0.006   2.844  -8.584  0.00  0.00    +0.107 C 
ATOM     35  C   UNL     1       0.136   4.231  -7.952  0.00  0.00    +0.055 C 
ATOM     36  C   UNL     1      -1.463   2.416  -8.577  0.00  0.00    +0.055 C 
ENDBRANCH  32  34
ENDBRANCH  28  32
ENDBRANCH  27  30
ENDBRANCH  26  27
ENDBRANCH  22  26
ENDBRANCH   1  23
TORSDOF 7
