REMARK  Name = ZINC09052725
REMARK  16 active torsions:
REMARK  status: ('A' for Active; 'I' for Inactive)
REMARK    1  A    between atoms: C_1  and  C_2
REMARK    2  A    between atoms: C_2  and  O_3
REMARK    3  A    between atoms: O_3  and  C_4
REMARK    4  A    between atoms: C_4  and  C_6
REMARK    5  A    between atoms: C_7  and  C_22
REMARK    6  A    between atoms: C_12  and  C_14
REMARK    7  A    between atoms: C_17  and  O_20
REMARK    8  A    between atoms: O_20  and  C_21
REMARK    9  A    between atoms: C_22  and  N_63
REMARK   10  A    between atoms: C_23  and  N_63
REMARK   11  A    between atoms: C_24  and  C_25
REMARK   12  A    between atoms: C_24  and  N_63
REMARK   13  A    between atoms: C_27  and  C_31
REMARK   14  A    between atoms: C_28  and  C_30
REMARK   15  A    between atoms: C_31  and  O_33
REMARK   16  A    between atoms: O_33  and  C_34
REMARK                            x       y       z     vdW  Elec       q    Type
REMARK                         _______ _______ _______ _____ _____    ______ ____
ROOT
ATOM      1  C   UNL     1      -0.476   1.864   3.381  0.00  0.00    +0.076 C 
ATOM      2  C   UNL     1      -0.275   1.332   4.606  0.00  0.00    +0.008 C 
ATOM      3  N   UNL     1      -1.036   1.713   5.674  0.00  0.00    -0.274 N 
ATOM      4  C   UNL     1      -2.025   2.613   5.598  0.00  0.00    +0.304 C 
ATOM      5  O   UNL     1      -2.651   2.885   6.603  0.00  0.00    -0.252 OA
ATOM      6  N   UNL     1      -2.348   3.227   4.442  0.00  0.00    -0.288 N 
ATOM      7  C   UNL     1      -1.582   2.889   3.231  0.00  0.00    +0.143 C 
ATOM      8  H   UNL     1      -0.854   1.306   6.535  0.00  0.00    +0.156 HD
ATOM      9  H   UNL     1      -3.068   3.876   4.410  0.00  0.00    +0.151 HD
ENDROOT
BRANCH   7  10
ATOM     10  C   UNL     1      -2.551   2.379   2.196  0.00  0.00    -0.022 A 
ATOM     11  C   UNL     1      -3.493   1.428   2.543  0.00  0.00    +0.009 A 
ATOM     12  C   UNL     1      -4.386   0.962   1.598  0.00  0.00    +0.046 A 
ATOM     13  C   UNL     1      -4.330   1.441   0.297  0.00  0.00    +0.120 A 
ATOM     14  C   UNL     1      -3.381   2.391  -0.050  0.00  0.00    +0.046 A 
ATOM     15  C   UNL     1      -2.493   2.858   0.900  0.00  0.00    +0.009 A 
BRANCH  13  16
ATOM     16  O   UNL     1      -5.205   0.981  -0.636  0.00  0.00    -0.495 OA
ATOM     17  C   UNL     1      -6.155   0.003  -0.208  0.00  0.00    +0.277 C 
ENDBRANCH  13  16
ENDBRANCH   7  10
BRANCH   1  18
ATOM     18  C   UNL     1       0.315   1.474   2.276  0.00  0.00    +0.339 C 
ATOM     19  O   UNL     1       1.269   0.737   2.440  0.00  0.00    -0.245 OA
BRANCH  18  20
ATOM     20  O   UNL     1       0.012   1.919   1.038  0.00  0.00    -0.462 OA
BRANCH  20  22
ATOM     21  C   UNL     1       0.357   2.088  -1.347  0.00  0.00    +0.048 C 
ATOM     22  C   UNL     1       0.854   1.485  -0.032  0.00  0.00    +0.229 C 
ENDBRANCH  20  22
ENDBRANCH  18  20
ENDBRANCH   1  18
BRANCH   2  23
ATOM     23  C   UNL     1       0.810   0.304   4.799  0.00  0.00    -0.026 C 
BRANCH  23  25
ATOM     24  C   UNL     1       2.155   1.531   6.396  0.00  0.00    -0.095 C 
ATOM     25  N   UNL     1       2.093   1.006   5.016  0.00  0.00    +0.386 N 
ATOM     26  H   UNL     1       2.160   1.791   4.357  0.00  0.00    -0.081 HD
BRANCH  25  27
ATOM     27  C   UNL     1       3.221   0.081   4.776  0.00  0.00    -0.003 C 
BRANCH  27  28
ATOM     28  C   UNL     1       4.506   0.869   4.786  0.00  0.00    +0.090 A 
ATOM     29  C   UNL     1       5.271   1.096   5.865  0.00  0.00    +0.058 A 
ATOM     30  C   UNL     1       6.407   1.900   5.393  0.00  0.00    +0.100 A 
ATOM     31  C   UNL     1       6.202   2.076   4.055  0.00  0.00    +0.116 A 
ATOM     32  O   UNL     1       5.071   1.451   3.717  0.00  0.00    -0.466 OA
ATOM     33  C   UNL     1       7.102   2.839   3.118  0.00  0.00    +0.087 C 
BRANCH  30  34
ATOM     34  C   UNL     1       7.532   2.409   6.196  0.00  0.00    +0.342 C 
ATOM     35  O   UNL     1       8.408   3.066   5.667  0.00  0.00    -0.245 OA
BRANCH  34  36
ATOM     36  O   UNL     1       7.590   2.148   7.516  0.00  0.00    -0.464 OA
ATOM     37  C   UNL     1       8.727   2.682   8.245  0.00  0.00    +0.280 C 
ENDBRANCH  34  36
ENDBRANCH  30  34
ENDBRANCH  27  28
ENDBRANCH  25  27
ENDBRANCH  23  25
ENDBRANCH   2  23
TORSDOF 11
