REMARK  Name = ZINC41635196
REMARK  7 active torsions:
REMARK  status: ('A' for Active; 'I' for Inactive)
REMARK    1  A    between atoms: C_1  and  C_2
REMARK    2  A    between atoms: C_8  and  C_10
REMARK    3  A    between atoms: C_10  and  C_12
REMARK    4  A    between atoms: C_10  and  N_20
REMARK    5  A    between atoms: C_17  and  O_18
REMARK    6  A    between atoms: O_18  and  C_19
REMARK    7  A    between atoms: C_25  and  C_27
REMARK                            x       y       z     vdW  Elec       q    Type
REMARK                         _______ _______ _______ _____ _____    ______ ____
ROOT
ATOM      1  C   UNL     1       0.018  -6.091   0.160  0.00  0.00    +0.010 C 
ENDROOT
BRANCH   1   9
ATOM      2  C   UNL     1       0.843   1.014  -1.956  0.00  0.00    +0.090 C 
ATOM      3  C   UNL     1       0.617  -0.450  -1.678  0.00  0.00    +0.150 A 
ATOM      4  N   UNL     1       0.120  -1.331  -2.542  0.00  0.00    -0.205 NA
ATOM      5  C   UNL     1       0.060  -2.505  -1.976  0.00  0.00    +0.199 A 
ATOM      6  N   UNL     1       0.526  -2.421  -0.699  0.00  0.00    -0.170 N 
ATOM      7  N   UNL     1       0.885  -1.055  -0.552  0.00  0.00    -0.147 NA
ATOM      8  C   UNL     1       0.532  -3.575   0.046  0.00  0.00    +0.282 A 
ATOM      9  C   UNL     1       0.095  -4.726  -0.476  0.00  0.00    +0.050 A 
ATOM     10  S   UNL     1      -0.372  -4.222  -2.125  0.00  0.00    -0.050 S 
ATOM     11  O   UNL     1       0.988  -3.546   1.328  0.00  0.00    -0.265 OA
ENDBRANCH   1   9
BRANCH   1  12
ATOM     12  N   UNL     1      -1.320  -6.658  -0.059  0.00  0.00    +0.389 N 
ATOM     13  C   UNL     1      -1.339  -8.053   0.398  0.00  0.00    -0.077 C 
ATOM     14  C   UNL     1      -2.705  -8.673   0.098  0.00  0.00    -0.019 C 
ATOM     15  C   UNL     1      -3.791  -7.879   0.830  0.00  0.00    -0.003 C 
ATOM     16  C   UNL     1      -3.714  -6.411   0.401  0.00  0.00    -0.016 C 
ATOM     17  C   UNL     1      -2.310  -5.875   0.690  0.00  0.00    -0.070 C 
ATOM     18  C   UNL     1      -2.228  -4.408   0.263  0.00  0.00    -0.013 C 
ATOM     19  H   UNL     1      -1.541  -6.625  -1.043  0.00  0.00    -0.080 HD
ENDBRANCH   1  12
BRANCH   1  20
ATOM     20  C   UNL     1       1.054  -6.993  -0.460  0.00  0.00    -0.014 A 
ATOM     21  C   UNL     1       0.709  -7.821  -1.512  0.00  0.00    +0.006 A 
ATOM     22  C   UNL     1       1.659  -8.649  -2.081  0.00  0.00    +0.000 A 
ATOM     23  C   UNL     1       2.955  -8.651  -1.599  0.00  0.00    +0.004 A 
ATOM     24  C   UNL     1       3.304  -7.825  -0.549  0.00  0.00    +0.046 A 
ATOM     25  C   UNL     1       2.355  -6.989   0.021  0.00  0.00    +0.122 A 
BRANCH  25  26
ATOM     26  O   UNL     1       2.697  -6.172   1.051  0.00  0.00    -0.495 OA
ATOM     27  C   UNL     1       4.055  -6.221   1.494  0.00  0.00    +0.277 C 
ENDBRANCH  25  26
ENDBRANCH   1  20
TORSDOF 4
