REMARK  Name = ZINC39315916
REMARK  4 active torsions:
REMARK  status: ('A' for Active; 'I' for Inactive)
REMARK    1  A    between atoms: C_1  and  C_2
REMARK    2  A    between atoms: C_4  and  C_20
REMARK    3  A    between atoms: C_9  and  C_13
REMARK    4  A    between atoms: C_9  and  C_14
REMARK                            x       y       z     vdW  Elec       q    Type
REMARK                         _______ _______ _______ _____ _____    ______ ____
ROOT
ATOM      1  C   UNL     1      -0.018   1.503   0.010  0.00  0.00    +0.067 C 
ATOM      2  C   UNL     1       0.002  -0.004   0.002  0.00  0.00    +0.064 C 
ATOM      3  C   UNL     1      -1.064  -0.767   0.003  0.00  0.00    +0.008 C 
ATOM      4  C   UNL     1      -2.532  -0.504   0.162  0.00  0.00    +0.085 C 
ATOM      5  C   UNL     1      -3.070  -1.552   1.124  0.00  0.00    +0.023 C 
ATOM      6  C   UNL     1      -2.342  -2.623   1.504  0.00  0.00    +0.014 C 
ATOM      7  C   UNL     1      -2.942  -3.657   2.436  0.00  0.00    +0.057 C 
ATOM      8  C   UNL     1      -3.920  -2.981   3.397  0.00  0.00    -0.023 C 
ATOM      9  C   UNL     1      -5.018  -2.305   2.569  0.00  0.00    +0.086 C 
ATOM     10  C   UNL     1      -4.375  -1.347   1.605  0.00  0.00    +0.162 C 
ATOM     11  O   UNL     1      -4.998  -0.373   1.232  0.00  0.00    -0.292 OA
ATOM     12  C   UNL     1      -3.181  -1.931   4.230  0.00  0.00    +0.011 C 
ATOM     13  C   UNL     1      -4.542  -4.030   4.321  0.00  0.00    +0.011 C 
ATOM     14  N   UNL     1      -1.048  -2.854   1.111  0.00  0.00    -0.321 N 
ATOM     15  C   UNL     1      -0.528  -2.198  -0.091  0.00  0.00    +0.241 C 
ATOM     16  N   UNL     1       0.921  -1.985  -0.031  0.00  0.00    -0.160 NA
ATOM     17  N   UNL     1       1.127  -0.764  -0.013  0.00  0.00    -0.157 NA
ATOM     18  H   UNL     1      -0.481  -3.449   1.626  0.00  0.00    +0.148 HD
ENDROOT
BRANCH   4  19
ATOM     19  C   UNL     1      -3.223  -0.624  -1.171  0.00  0.00    -0.035 A 
ATOM     20  C   UNL     1      -3.184  -1.820  -1.865  0.00  0.00    +0.007 A 
ATOM     21  C   UNL     1      -3.818  -1.931  -3.087  0.00  0.00    +0.038 A 
ATOM     22  C   UNL     1      -4.493  -0.845  -3.618  0.00  0.00    +0.123 A 
ATOM     23  C   UNL     1      -4.533   0.351  -2.922  0.00  0.00    +0.038 A 
ATOM     24  C   UNL     1      -3.902   0.459  -1.697  0.00  0.00    +0.007 A 
ATOM     25  F   UNL     1      -5.113  -0.953  -4.813  0.00  0.00    -0.205 F 
ENDBRANCH   4  19
TORSDOF 1
