REMARK  Name = ZINC22610953
REMARK  5 active torsions:
REMARK  status: ('A' for Active; 'I' for Inactive)
REMARK    1  A    between atoms: C_1  and  S_2
REMARK    2  A    between atoms: S_2  and  C_3
REMARK    3  A    between atoms: C_8  and  C_16
REMARK    4  A    between atoms: CA_11  and  C_13
REMARK    5  A    between atoms: C_25  and  O_26
REMARK                            x       y       z     vdW  Elec       q    Type
REMARK                         _______ _______ _______ _____ _____    ______ ____
ROOT
ATOM      1  C   UNL     1       0.940  -0.233   1.612  0.00  0.00    +0.210 A 
ATOM      2  N   UNL     1       1.495   0.567   2.523  0.00  0.00    -0.184 NA
ATOM      3  C   UNL     1       2.071  -0.155   3.456  0.00  0.00    +0.251 A 
ATOM      4  N   UNL     1       1.874  -1.472   3.138  0.00  0.00    -0.221 N 
ATOM      5  N   UNL     1       1.148  -1.494   1.953  0.00  0.00    -0.141 NA
ATOM      6  C   UNL     1       2.370  -2.568   3.972  0.00  0.00    +0.151 C 
ATOM      7  C   UNL     1       3.632  -2.078   4.693  0.00  0.00    +0.095 C 
ATOM      8  CA  UNL     1       3.451  -0.676   5.202  0.00  0.00    +0.135 C 
ATOM      9  N   UNL     1       2.735   0.214   4.572  0.00  0.00    -0.208 NA
ENDROOT
BRANCH   6  10
ATOM     10  C   UNL     1       1.322  -2.954   4.983  0.00  0.00    +0.026 A 
ATOM     11  C   UNL     1       1.523  -4.063   5.821  0.00  0.00    -0.009 A 
ATOM     12  C   UNL     1       2.695  -4.834   5.740  0.00  0.00    +0.009 A 
ATOM     13  C   UNL     1       2.857  -5.902   6.568  0.00  0.00    +0.001 A 
ATOM     14  C   UNL     1       1.877  -6.245   7.497  0.00  0.00    +0.001 A 
ATOM     15  C   UNL     1       0.729  -5.521   7.604  0.00  0.00    +0.008 A 
ATOM     16  C   UNL     1       0.526  -4.411   6.767  0.00  0.00    -0.017 A 
ATOM     17  C   UNL     1      -0.647  -3.640   6.849  0.00  0.00    +0.012 A 
ATOM     18  C   UNL     1      -0.812  -2.572   6.024  0.00  0.00    +0.046 A 
ATOM     19  C   UNL     1       0.173  -2.224   5.094  0.00  0.00    +0.123 A 
BRANCH  19  20
ATOM     20  O   UNL     1      -0.018  -1.148   4.287  0.00  0.00    -0.506 OA
ATOM     21  H   UNL     1      -0.462  -1.355   3.453  0.00  0.00    +0.292 HD
ENDBRANCH  19  20
ENDBRANCH   6  10
BRANCH   8  22
ATOM     22  C   UNL     1       4.107  -0.291   6.462  0.00  0.00    +0.401 C 
ATOM     23  O   UNL     1       3.975   0.844   6.898  0.00  0.00    -0.239 OA
ATOM     24  OXT UNL     1       4.784  -1.107   7.073  0.00  0.00    -0.239 OA
ENDBRANCH   8  22
BRANCH   1  26
ATOM     25  C   UNL     1       0.127   2.115   0.283  0.00  0.00    +0.093 C 
ATOM     26  S   UNL     1       0.062   0.305   0.182  0.00  0.00    -0.088 S 
ENDBRANCH   1  26
TORSDOF 4
