REMARK  Name = ZINC04087204
REMARK  5 active torsions:
REMARK  status: ('A' for Active; 'I' for Inactive)
REMARK    1  A    between atoms: C_1  and  C_2
REMARK    2  A    between atoms: C_2  and  N_39
REMARK    3  A    between atoms: C_8  and  N_13
REMARK    4  A    between atoms: C_9  and  C_10
REMARK    5  A    between atoms: C_14  and  C_16
REMARK                            x       y       z     vdW  Elec       q    Type
REMARK                         _______ _______ _______ _____ _____    ______ ____
ROOT
ATOM      1  C   UNL     1       7.044   0.003   0.377  0.00  0.00    -0.074 C 
ATOM      2  C   UNL     1       6.216   1.219  -0.047  0.00  0.00    +0.018 C 
ATOM      3  C   UNL     1       4.745   0.819  -0.038  0.00  0.00    -0.027 A 
ATOM      4  C   UNL     1       4.397  -0.488  -0.043  0.00  0.00    -0.021 A 
ATOM      5  S   UNL     1       2.629  -0.484  -0.018  0.00  0.00    -0.079 S 
ATOM      6  C   UNL     1       2.352   1.227  -0.014  0.00  0.00    +0.085 A 
ATOM      7  C   UNL     1       3.637   1.755  -0.023  0.00  0.00    +0.068 A 
ATOM      8  C   UNL     1       5.333  -1.656  -0.061  0.00  0.00    -0.035 C 
ATOM      9  N   UNL     1       6.672  -1.158  -0.458  0.00  0.00    +0.383 N 
ATOM     10  H   UNL     1       6.643  -0.866  -1.442  0.00  0.00    -0.081 HD
ENDROOT
BRANCH   7  11
ATOM     11  C   UNL     1       3.864   3.204  -0.018  0.00  0.00    +0.244 C 
ATOM     12  O   UNL     1       3.968   3.799   1.039  0.00  0.00    -0.270 OA
ATOM     13  N   UNL     1       3.958   3.876  -1.182  0.00  0.00    -0.325 N 
ATOM     14  H   UNL     1       3.875   3.401  -2.024  0.00  0.00    +0.145 HD
ATOM     15  H   UNL     1       4.108   4.834  -1.178  0.00  0.00    +0.145 HD
ENDBRANCH   7  11
BRANCH   6  16
ATOM     16  N   UNL     1       1.143   1.903   0.001  0.00  0.00    -0.275 N 
ATOM     17  C   UNL     1      -0.014   1.213   0.009  0.00  0.00    +0.255 C 
ATOM     18  O   UNL     1       0.002  -0.004   0.002  0.00  0.00    -0.269 OA
ATOM     19  H   UNL     1       1.130   2.873   0.007  0.00  0.00    +0.156 HD
BRANCH  17  20
ATOM     20  C   UNL     1      -1.292   1.928   0.019  0.00  0.00    +0.075 A 
ATOM     21  C   UNL     1      -2.581   1.415   0.022  0.00  0.00    +0.022 A 
ATOM     22  C   UNL     1      -3.613   2.318   0.032  0.00  0.00    +0.024 A 
ATOM     23  C   UNL     1      -3.331   3.649   0.038  0.00  0.00    +0.056 A 
ATOM     24  S   UNL     1      -1.597   3.686   0.037  0.00  0.00    -0.077 S 
ATOM     25 BR   UNL     1      -4.536   5.106   0.052  0.00  0.00    -0.043 Br
ENDBRANCH  17  20
ENDBRANCH   6  16
BRANCH   9  27
ATOM     26  C   UNL     1       7.826  -2.621   1.167  0.00  0.00    -0.017 C 
ATOM     27  C   UNL     1       7.677  -2.233  -0.305  0.00  0.00    -0.082 C 
ENDBRANCH   9  27
TORSDOF 4
