REMARK  Name = ZINC03878455
REMARK  3 active torsions:
REMARK  status: ('A' for Active; 'I' for Inactive)
REMARK    1  A    between atoms: C_3  and  N_22
REMARK    2  A    between atoms: C_6  and  C_7
REMARK    3  A    between atoms: N_9  and  C_13
REMARK                            x       y       z     vdW  Elec       q    Type
REMARK                         _______ _______ _______ _____ _____    ______ ____
ROOT
ATOM      1  C   UNL     1       1.203  -0.489  -0.012  0.00  0.00    +0.076 C 
ATOM      2  N   UNL     1       0.002  -0.004   0.002  0.00  0.00    -0.176 NA
ATOM      3  N   UNL     1      -0.017   1.387   0.010  0.00  0.00    -0.157 N 
ATOM      4  C   UNL     1       1.233   1.894   0.001  0.00  0.00    +0.245 C 
ATOM      5  O   UNL     1       1.552   3.064   0.003  0.00  0.00    -0.273 OA
ATOM      6  C   UNL     1       2.154   0.690  -0.015  0.00  0.00    +0.155 C 
ENDROOT
BRANCH   3   7
ATOM      7  C   UNL     1      -1.184   2.162   0.020  0.00  0.00    +0.097 A 
ATOM      8  C   UNL     1      -1.767   2.558  -1.178  0.00  0.00    +0.067 A 
ATOM      9  C   UNL     1      -2.922   3.317  -1.165  0.00  0.00    +0.042 A 
ATOM     10  C   UNL     1      -3.491   3.693   0.039  0.00  0.00    +0.044 A 
ATOM     11  C   UNL     1      -2.909   3.306   1.234  0.00  0.00    +0.042 A 
ATOM     12  C   UNL     1      -1.758   2.541   1.227  0.00  0.00    +0.067 A 
ATOM     13 CL   UNL     1      -1.029   2.055   2.726  0.00  0.00    -0.081 Cl
ATOM     14 CL   UNL     1      -4.937   4.653   0.052  0.00  0.00    -0.083 Cl
ATOM     15 CL   UNL     1      -1.050   2.093  -2.689  0.00  0.00    -0.081 Cl
ENDBRANCH   3   7
BRANCH   1  21
ATOM     16  C   UNL     1       2.920  -2.289  -0.045  0.00  0.00    +0.011 A 
ATOM     17  C   UNL     1       3.262  -3.623  -0.051  0.00  0.00    +0.023 A 
ATOM     18  C   UNL     1       2.269  -4.598  -0.046  0.00  0.00    +0.025 A 
ATOM     19  C   UNL     1       0.928  -4.229  -0.031  0.00  0.00    +0.023 A 
ATOM     20  C   UNL     1       0.578  -2.897  -0.019  0.00  0.00    +0.011 A 
ATOM     21  C   UNL     1       1.573  -1.915  -0.024  0.00  0.00    -0.002 A 
BRANCH  18  22
ATOM     22  N   UNL     1       2.620  -5.947  -0.057  0.00  0.00    -0.358 N 
ATOM     23  H   UNL     1       1.929  -6.628  -0.054  0.00  0.00    +0.142 HD
ATOM     24  H   UNL     1       3.555  -6.206  -0.068  0.00  0.00    +0.142 HD
ENDBRANCH  18  22
ENDBRANCH   1  21
TORSDOF 3
