REMARK  Name = ZINC45257242
REMARK  5 active torsions:
REMARK  status: ('A' for Active; 'I' for Inactive)
REMARK    1  A    between atoms: C_3  and  C_30
REMARK    2  A    between atoms: C_5  and  C_7
REMARK    3  A    between atoms: C_7  and  C_19
REMARK    4  A    between atoms: C_22  and  O_25
REMARK    5  A    between atoms: O_25  and  C_26
REMARK                            x       y       z     vdW  Elec       q    Type
REMARK                         _______ _______ _______ _____ _____    ______ ____
ROOT
ATOM      1  C   UNL     1       1.219  -2.192  -0.022  0.00  0.00    +0.168 C 
ATOM      2  C   UNL     1       0.352  -3.097  -0.874  0.00  0.00    +0.114 C 
ATOM      3  N   UNL     1      -0.906  -3.315  -0.697  0.00  0.00    -0.374 N 
ATOM      4  C   UNL     1      -1.670  -4.156  -1.620  0.00  0.00    +0.114 C 
ATOM      5  C   UNL     1      -1.467  -5.631  -1.304  0.00  0.00    +0.021 C 
ATOM      6  C   UNL     1      -0.039  -5.909  -0.857  0.00  0.00    +0.003 C 
ATOM      7  C   UNL     1       0.863  -6.012  -2.095  0.00  0.00    +0.019 C 
ATOM      8  C   UNL     1       0.852  -4.650  -2.806  0.00  0.00    +0.115 C 
ATOM      9  N   UNL     1       1.194  -3.616  -1.821  0.00  0.00    -0.261 N 
ATOM     10  C   UNL     1       2.440  -3.039  -1.698  0.00  0.00    +0.182 C 
ATOM     11  N   UNL     1       2.528  -2.228  -0.692  0.00  0.00    -0.232 NA
ATOM     12  N   UNL     1       3.482  -3.298  -2.556  0.00  0.00    -0.331 N 
ATOM     13  H   UNL     1       3.361  -3.915  -3.295  0.00  0.00    +0.145 HD
ATOM     14  H   UNL     1       4.340  -2.864  -2.423  0.00  0.00    +0.145 HD
ATOM     15  H   UNL     1      -1.356  -2.914   0.063  0.00  0.00    +0.161 HD
ENDROOT
BRANCH   1  20
ATOM     16  C   UNL     1      -1.082   0.748   0.563  0.00  0.00    +0.001 A 
ATOM     17  C   UNL     1      -0.358   1.787   0.016  0.00  0.00    +0.008 A 
ATOM     18  C   UNL     1       0.891   1.540  -0.551  0.00  0.00    -0.013 A 
ATOM     19  C   UNL     1       1.401   0.243  -0.561  0.00  0.00    +0.015 A 
ATOM     20  C   UNL     1       0.668  -0.789  -0.011  0.00  0.00    -0.008 A 
ATOM     21  C   UNL     1      -0.571  -0.537   0.550  0.00  0.00    +0.007 A 
BRANCH  18  22
ATOM     22  C   UNL     1       1.674   2.653  -1.142  0.00  0.00    +0.036 A 
ATOM     23  C   UNL     1       1.083   3.533  -2.051  0.00  0.00    +0.014 A 
ATOM     24  C   UNL     1       1.856   4.555  -2.574  0.00  0.00    +0.020 A 
ATOM     25  C   UNL     1       3.177   4.673  -2.184  0.00  0.00    +0.114 A 
ATOM     26  N   UNL     1       3.711   3.828  -1.324  0.00  0.00    -0.227 NA
ATOM     27  C   UNL     1       3.013   2.842  -0.794  0.00  0.00    +0.221 A 
ATOM     28  F   UNL     1       3.600   2.004   0.089  0.00  0.00    -0.183 F 
ENDBRANCH  18  22
ENDBRANCH   1  20
BRANCH   1  29
ATOM     29  C   UNL     1       1.328  -2.727   1.383  0.00  0.00    -0.008 A 
ATOM     30  C   UNL     1       2.570  -2.859   1.977  0.00  0.00    +0.010 A 
ATOM     31  C   UNL     1       2.672  -3.349   3.264  0.00  0.00    +0.046 A 
ATOM     32  C   UNL     1       1.528  -3.710   3.961  0.00  0.00    +0.130 A 
ATOM     33  C   UNL     1       0.283  -3.576   3.363  0.00  0.00    +0.046 A 
ATOM     34  C   UNL     1       0.186  -3.080   2.078  0.00  0.00    +0.010 A 
BRANCH  32  35
ATOM     35  O   UNL     1       1.627  -4.193   5.227  0.00  0.00    -0.406 OA
BRANCH  35  36
ATOM     36  C   UNL     1       0.407  -4.544   5.885  0.00  0.00    +0.575 C 
ATOM     37  F   UNL     1      -0.248  -5.539   5.152  0.00  0.00    -0.133 F 
ATOM     38  F   UNL     1       0.690  -5.020   7.169  0.00  0.00    -0.133 F 
ATOM     39  F   UNL     1      -0.415  -3.415   5.976  0.00  0.00    -0.133 F 
ENDBRANCH  35  36
ENDBRANCH  32  35
ENDBRANCH   1  29
TORSDOF 5
