REMARK  Name = ZINC21875717
REMARK  12 active torsions:
REMARK  status: ('A' for Active; 'I' for Inactive)
REMARK    1  A    between atoms: C_1  and  C_2
REMARK    2  A    between atoms: C_2  and  C_4
REMARK    3  A    between atoms: C_2  and  N_10
REMARK    4  A    between atoms: C_11  and  C_13
REMARK    5  A    between atoms: C_19  and  C_24
REMARK    6  A    between atoms: C_19  and  C_25
REMARK    7  A    between atoms: N_20  and  C_23
REMARK    8  A    between atoms: N_27  and  C_28
REMARK    9  A    between atoms: C_28  and  C_29
REMARK   10  A    between atoms: C_29  and  C_30
REMARK   11  A    between atoms: C_30  and  C_31
REMARK   12  A    between atoms: C_30  and  C_32
REMARK                            x       y       z     vdW  Elec       q    Type
REMARK                         _______ _______ _______ _____ _____    ______ ____
ROOT
ATOM      1  C   UNL     1       2.768  -1.089   2.371  0.00  0.00    +0.148 A 
ATOM      2  C   UNL     1       4.167  -1.250   2.501  0.00  0.00    +0.067 A 
ATOM      3  C   UNL     1       4.353  -1.717   3.757  0.00  0.00    +0.124 A 
ATOM      4  N   UNL     1       3.110  -1.828   4.346  0.00  0.00    -0.256 N 
ATOM      5  N   UNL     1       2.216  -1.451   3.518  0.00  0.00    -0.166 NA
ATOM      6  C   UNL     1       2.967  -2.313   5.724  0.00  0.00    +0.179 C 
ATOM      7  C   UNL     1       4.099  -3.292   6.033  0.00  0.00    +0.130 C 
ATOM      8  N   UNL     1       5.407  -2.785   5.634  0.00  0.00    -0.284 N 
ATOM      9  C   UNL     1       5.579  -2.080   4.489  0.00  0.00    +0.265 C 
ATOM     10  O   UNL     1       6.683  -1.764   4.089  0.00  0.00    -0.268 OA
ATOM     11  C   UNL     1       6.564  -3.043   6.494  0.00  0.00    +0.133 C 
ATOM     12  C   UNL     1       4.114  -3.569   7.538  0.00  0.00    +0.044 C 
ENDROOT
BRANCH   1  14
ATOM     13  N   UNL     1       0.711  -0.489   1.189  0.00  0.00    -0.303 N 
ATOM     14  C   UNL     1       2.054  -0.600   1.174  0.00  0.00    +0.265 C 
ATOM     15  O   UNL     1       2.677  -0.297   0.175  0.00  0.00    -0.268 OA
ATOM     16  H   UNL     1       0.213  -0.731   1.986  0.00  0.00    +0.150 HD
BRANCH  13  18
ATOM     17  C   UNL     1      -0.019   1.526   0.010  0.00  0.00    +0.033 C 
ATOM     18  C   UNL     1       0.002  -0.004   0.002  0.00  0.00    +0.100 C 
BRANCH  18  19
ATOM     19  C   UNL     1      -1.412  -0.526   0.013  0.00  0.00    -0.027 A 
ATOM     20  C   UNL     1      -2.123  -0.571   1.197  0.00  0.00    +0.005 A 
ATOM     21  C   UNL     1      -3.420  -1.049   1.207  0.00  0.00    +0.000 A 
ATOM     22  C   UNL     1      -4.006  -1.482   0.032  0.00  0.00    +0.000 A 
ATOM     23  C   UNL     1      -3.295  -1.436  -1.153  0.00  0.00    +0.000 A 
ATOM     24  C   UNL     1      -2.000  -0.954  -1.163  0.00  0.00    +0.005 A 
ENDBRANCH  18  19
ENDBRANCH  13  18
ENDBRANCH   1  14
BRANCH   7  25
ATOM     25  C   UNL     1       3.836  -4.585   5.306  0.00  0.00    +0.238 C 
ATOM     26  O   UNL     1       2.702  -4.891   5.003  0.00  0.00    -0.273 OA
ATOM     27  N   UNL     1       4.861  -5.402   4.991  0.00  0.00    -0.313 N 
ATOM     28  H   UNL     1       5.768  -5.157   5.233  0.00  0.00    +0.149 HD
BRANCH  27  29
ATOM     29  C   UNL     1       4.606  -6.659   4.284  0.00  0.00    +0.104 C 
BRANCH  29  30
ATOM     30  C   UNL     1       5.929  -7.391   4.051  0.00  0.00    +0.022 C 
BRANCH  30  31
ATOM     31  C   UNL     1       5.662  -8.704   3.313  0.00  0.00    -0.016 C 
ATOM     32  C   UNL     1       5.115  -8.402   1.916  0.00  0.00    +0.007 C 
ATOM     33  C   UNL     1       6.966  -9.495   3.190  0.00  0.00    +0.007 C 
ENDBRANCH  30  31
ENDBRANCH  29  30
ENDBRANCH  27  29
ENDBRANCH   7  25
TORSDOF 7
