REMARK  Name = ZINC12527662
REMARK  3 active torsions:
REMARK  status: ('A' for Active; 'I' for Inactive)
REMARK    1  A    between atoms: N_9  and  C_24
REMARK    2  A    between atoms: C_10  and  C_13
REMARK    3  A    between atoms: C_16  and  N_19
REMARK                            x       y       z     vdW  Elec       q    Type
REMARK                         _______ _______ _______ _____ _____    ______ ____
ROOT
ATOM      1  C   UNL     1      -3.673  -4.869  -0.019  0.00  0.00    +0.001 A 
ATOM      2  C   UNL     1      -4.794  -4.204   0.454  0.00  0.00    +0.002 A 
ATOM      3  C   UNL     1      -4.738  -2.856   0.750  0.00  0.00    +0.024 A 
ATOM      4  C   UNL     1      -3.552  -2.163   0.573  0.00  0.00    +0.041 A 
ATOM      5  C   UNL     1      -2.415  -2.832   0.087  0.00  0.00    +0.058 A 
ATOM      6  C   UNL     1      -2.485  -4.193  -0.204  0.00  0.00    +0.015 A 
ATOM      7  C   UNL     1      -1.172  -2.064  -0.102  0.00  0.00    +0.254 C 
ATOM      8  O   UNL     1      -0.129  -2.637  -0.354  0.00  0.00    -0.270 OA
ATOM      9  N   UNL     1      -1.201  -0.721   0.008  0.00  0.00    -0.244 N 
ATOM     10  C   UNL     1      -2.467   0.000   0.139  0.00  0.00    +0.198 C 
ATOM     11  N   UNL     1      -3.444  -0.809   0.871  0.00  0.00    -0.321 N 
ATOM     12  H   UNL     1      -4.004  -0.407   1.553  0.00  0.00    +0.148 HD
ENDROOT
BRANCH   9  13
ATOM     13  C   UNL     1       0.002  -0.004   0.002  0.00  0.00    +0.042 A 
ATOM     14  C   UNL     1       0.330   0.811   1.077  0.00  0.00    +0.027 A 
ATOM     15  C   UNL     1       1.516   1.520   1.071  0.00  0.00    +0.051 A 
ATOM     16  C   UNL     1       2.382   1.419  -0.008  0.00  0.00    +0.162 A 
ATOM     17  C   UNL     1       2.058   0.603  -1.084  0.00  0.00    +0.164 A 
ATOM     18  C   UNL     1       0.867  -0.107  -1.079  0.00  0.00    +0.073 A 
ATOM     19  O   UNL     1       2.899   0.485  -2.148  0.00  0.00    -0.485 OA
ATOM     20  C   UNL     1       3.905   1.494  -2.288  0.00  0.00    +0.270 C 
ATOM     21  C   UNL     1       4.560   1.712  -0.917  0.00  0.00    +0.270 C 
ATOM     22  O   UNL     1       3.545   2.128   0.003  0.00  0.00    -0.485 OA
ENDBRANCH   9  13
BRANCH  10  23
ATOM     23  C   UNL     1      -3.010   0.309  -1.232  0.00  0.00    -0.009 A 
ATOM     24  C   UNL     1      -2.141   0.509  -2.289  0.00  0.00    +0.009 A 
ATOM     25  C   UNL     1      -2.635   0.787  -3.549  0.00  0.00    +0.028 A 
ATOM     26  C   UNL     1      -4.006   0.876  -3.750  0.00  0.00    +0.067 A 
ATOM     27  C   UNL     1      -4.876   0.680  -2.686  0.00  0.00    +0.028 A 
ATOM     28  C   UNL     1      -4.375   0.397  -1.430  0.00  0.00    +0.009 A 
BRANCH  26  29
ATOM     29  N   UNL     1      -4.511   1.163  -5.027  0.00  0.00    -0.220 N 
ATOM     30  C   UNL     1      -3.797   1.377  -6.149  0.00  0.00    +0.225 A 
ATOM     31  N   UNL     1      -4.636   1.611  -7.125  0.00  0.00    -0.222 NA
ATOM     32  C   UNL     1      -5.887   1.556  -6.668  0.00  0.00    +0.245 A 
ATOM     33  N   UNL     1      -5.862   1.279  -5.391  0.00  0.00    -0.154 NA
ENDBRANCH  26  29
ENDBRANCH  10  23
TORSDOF 3
