REMARK  Name = ZINC11916003
REMARK  4 active torsions:
REMARK  status: ('A' for Active; 'I' for Inactive)
REMARK    1  A    between atoms: C_6  and  C_7
REMARK    2  A    between atoms: C_9  and  C_12
REMARK    3  A    between atoms: N_14  and  C_15
REMARK    4  A    between atoms: C_16  and  C_24
REMARK                            x       y       z     vdW  Elec       q    Type
REMARK                         _______ _______ _______ _____ _____    ______ ____
ROOT
ATOM      1  C   UNL     1      -7.264  -1.409   0.034  0.00  0.00    +0.270 C 
ATOM      2  O   UNL     1      -7.880  -0.361   0.045  0.00  0.00    -0.268 OA
ATOM      3  N   UNL     1      -7.929  -2.581   0.029  0.00  0.00    -0.274 N 
ATOM      4  H   UNL     1      -7.437  -3.417   0.020  0.00  0.00    +0.156 HD
ENDROOT
BRANCH   3   5
ATOM      5  C   UNL     1      -9.314  -2.592   0.037  0.00  0.00    +0.085 A 
ATOM      6  C   UNL     1     -10.168  -3.686   0.029  0.00  0.00    +0.068 A 
ATOM      7  C   UNL     1     -11.597  -3.423   0.045  0.00  0.00    -0.023 A 
ATOM      8  C   UNL     1     -11.941  -2.117   0.056  0.00  0.00    -0.004 A 
ATOM      9  S   UNL     1     -10.401  -1.243   0.053  0.00  0.00    -0.077 S 
ATOM     10  C   UNL     1     -13.326  -1.548   0.068  0.00  0.00    +0.043 C 
ATOM     11  C   UNL     1     -14.310  -2.663  -0.313  0.00  0.00    +0.005 C 
ATOM     12  C   UNL     1     -13.985  -3.911   0.513  0.00  0.00    +0.005 C 
ATOM     13  C   UNL     1     -12.660  -4.514   0.044  0.00  0.00    +0.037 C 
BRANCH   6  14
ATOM     14  C   UNL     1      -9.648  -5.057   0.007  0.00  0.00    +0.244 C 
ATOM     15  O   UNL     1      -9.425  -5.639   1.053  0.00  0.00    -0.270 OA
ATOM     16  N   UNL     1      -9.415  -5.671  -1.169  0.00  0.00    -0.325 N 
ATOM     17  H   UNL     1      -9.592  -5.207  -2.002  0.00  0.00    +0.145 HD
ATOM     18  H   UNL     1      -9.071  -6.578  -1.183  0.00  0.00    +0.145 HD
ENDBRANCH   6  14
ENDBRANCH   3   5
BRANCH   1  21
ATOM     19  C   UNL     1      -3.676  -0.780   0.017  0.00  0.00    +0.168 A 
ATOM     20  C   UNL     1      -4.939  -0.255   0.034  0.00  0.00    +0.086 A 
ATOM     21  C   UNL     1      -5.781  -1.397   0.025  0.00  0.00    +0.169 A 
ATOM     22  N   UNL     1      -4.987  -2.440   0.013  0.00  0.00    -0.073 NA
ATOM     23  O   UNL     1      -3.822  -2.117   0.009  0.00  0.00    -0.354 OA
BRANCH  19  29
ATOM     24  C   UNL     1      -2.417   1.368   0.026  0.00  0.00    +0.015 A 
ATOM     25  C   UNL     1      -1.228   2.067   0.019  0.00  0.00    +0.050 A 
ATOM     26  C   UNL     1      -0.017   1.388   0.010  0.00  0.00    +0.162 A 
ATOM     27  C   UNL     1       0.002  -0.004   0.002  0.00  0.00    +0.163 A 
ATOM     28  C   UNL     1      -1.187  -0.711   0.004  0.00  0.00    +0.061 A 
ATOM     29  C   UNL     1      -2.404  -0.028   0.016  0.00  0.00    +0.024 A 
ATOM     30  O   UNL     1       1.181  -0.684  -0.006  0.00  0.00    -0.485 OA
ATOM     31  C   UNL     1       2.347   0.054  -0.386  0.00  0.00    +0.270 C 
ATOM     32  C   UNL     1       2.334   1.392   0.366  0.00  0.00    +0.270 C 
ATOM     33  O   UNL     1       1.144   2.099   0.002  0.00  0.00    -0.485 OA
ENDBRANCH  19  29
ENDBRANCH   1  21
TORSDOF 4
