REMARK  Name = ZINC20985138
REMARK  7 active torsions:
REMARK  status: ('A' for Active; 'I' for Inactive)
REMARK    1  A    between atoms: C_1  and  C_2
REMARK    2  A    between atoms: C_3  and  C_28
REMARK    3  A    between atoms: C_4  and  C_18
REMARK    4  A    between atoms: N_9  and  C_10
REMARK    5  A    between atoms: C_22  and  N_24
REMARK    6  A    between atoms: N_30  and  C_31
REMARK    7  A    between atoms: N_30  and  C_32
REMARK                            x       y       z     vdW  Elec       q    Type
REMARK                         _______ _______ _______ _____ _____    ______ ____
ROOT
ATOM      1  C   UNL     1       0.044   4.070   0.123  0.00  0.00    +0.062 C 
ATOM      2  C   UNL     1      -1.300   3.388   0.088  0.00  0.00    +0.025 C 
ATOM      3  C   UNL     1      -2.422   4.125   0.233  0.00  0.00    +0.056 C 
ATOM      4  C   UNL     1      -3.752   3.400   0.191  0.00  0.00    +0.139 C 
ATOM      5  N   UNL     1      -3.711   1.941  -0.006  0.00  0.00    -0.315 N 
ATOM      6  C   UNL     1      -2.510   1.345  -0.140  0.00  0.00    +0.142 C 
ATOM      7  S   UNL     1      -2.448  -0.349  -0.377  0.00  0.00    -0.018 S 
ATOM      8  N   UNL     1      -1.363   2.035  -0.090  0.00  0.00    -0.255 N 
ATOM      9  H   UNL     1      -4.647   1.365  -0.040  0.00  0.00    +0.149 HD
ENDROOT
BRANCH   8  10
ATOM     10  C   UNL     1      -0.161   1.330  -0.235  0.00  0.00    +0.042 A 
ATOM     11  C   UNL     1       0.407   1.174  -1.493  0.00  0.00    +0.027 A 
ATOM     12  C   UNL     1       1.589   0.474  -1.634  0.00  0.00    +0.041 A 
ATOM     13  C   UNL     1       2.209  -0.072  -0.523  0.00  0.00    +0.142 A 
ATOM     14  C   UNL     1       1.645   0.082   0.733  0.00  0.00    +0.078 A 
ATOM     15  C   UNL     1       0.462   0.782   0.879  0.00  0.00    +0.046 A 
ATOM     16 CL   UNL     1       2.424  -0.604   2.124  0.00  0.00    -0.081 Cl
ATOM     17  F   UNL     1       3.366  -0.756  -0.664  0.00  0.00    -0.204 F 
ENDBRANCH   8  10
BRANCH   4  18
ATOM     18  C   UNL     1      -4.471   3.674   1.487  0.00  0.00    -0.020 A 
ATOM     19  C   UNL     1      -4.059   3.053   2.651  0.00  0.00    +0.007 A 
ATOM     20  C   UNL     1      -4.718   3.304   3.839  0.00  0.00    +0.022 A 
ATOM     21  C   UNL     1      -5.792   4.177   3.864  0.00  0.00    +0.071 A 
ATOM     22  C   UNL     1      -6.204   4.798   2.699  0.00  0.00    +0.145 A 
ATOM     23  C   UNL     1      -5.540   4.551   1.512  0.00  0.00    +0.040 A 
ATOM     24 CL   UNL     1      -6.621   4.492   5.356  0.00  0.00    -0.081 Cl
BRANCH  22  25
ATOM     25  N   UNL     1      -7.351   5.733   2.724  0.00  0.00    +0.058 N 
ATOM     26  O   UNL     1      -7.714   6.280   1.698  0.00  0.00    -0.126 OA
ATOM     27  O   UNL     1      -7.933   5.955   3.771  0.00  0.00    -0.126 OA
ENDBRANCH  22  25
ENDBRANCH   4  18
BRANCH   3  28
ATOM     28  C   UNL     1      -2.358   5.528   0.418  0.00  0.00    +0.246 C 
ATOM     29  O   UNL     1      -2.430   5.998   1.539  0.00  0.00    -0.270 OA
ATOM     30  N   UNL     1      -2.217   6.342  -0.647  0.00  0.00    -0.304 N 
ATOM     31  C   UNL     1      -2.260   7.796  -0.468  0.00  0.00    +0.132 C 
ATOM     32  C   UNL     1      -2.022   5.774  -1.983  0.00  0.00    +0.132 C 
ENDBRANCH   3  28
TORSDOF 4
