REMARK  Name = ZINC36062057
REMARK  6 active torsions:
REMARK  status: ('A' for Active; 'I' for Inactive)
REMARK    1  A    between atoms: C_7  and  C_12
REMARK    2  A    between atoms: C_12  and  C_13
REMARK    3  A    between atoms: N_15  and  N_16
REMARK    4  A    between atoms: C_17  and  C_18
REMARK    5  A    between atoms: C_21  and  O_27
REMARK    6  A    between atoms: C_22  and  N_24
REMARK                            x       y       z     vdW  Elec       q    Type
REMARK                         _______ _______ _______ _____ _____    ______ ____
ROOT
ATOM      1  C   UNL     1      -0.482  -3.057  -1.424  0.00  0.00    +0.237 C 
ATOM      2  O   UNL     1       0.130  -2.559  -2.346  0.00  0.00    -0.274 OA
ATOM      3  N   UNL     1      -1.613  -3.751  -1.662  0.00  0.00    -0.207 N 
ATOM      4  H   UNL     1      -2.102  -4.148  -0.925  0.00  0.00    +0.177 HD
ENDROOT
BRANCH   3   5
ATOM      5  N   UNL     1      -2.081  -3.898  -2.974  0.00  0.00    -0.188 NA
ATOM      6  C   UNL     1      -3.170  -4.566  -3.203  0.00  0.00    +0.138 C 
BRANCH   6   7
ATOM      7  C   UNL     1      -3.663  -4.722  -4.584  0.00  0.00    -0.003 A 
ATOM      8  C   UNL     1      -2.956  -4.155  -5.648  0.00  0.00    +0.013 A 
ATOM      9  C   UNL     1      -3.421  -4.302  -6.937  0.00  0.00    +0.048 A 
ATOM     10  C   UNL     1      -4.590  -5.013  -7.179  0.00  0.00    +0.147 A 
ATOM     11  C   UNL     1      -5.295  -5.578  -6.125  0.00  0.00    +0.168 A 
ATOM     12  C   UNL     1      -4.835  -5.441  -4.833  0.00  0.00    +0.046 A 
BRANCH  11  13
ATOM     13  N   UNL     1      -6.540  -6.333  -6.389  0.00  0.00    +0.060 N 
ATOM     14  O   UNL     1      -7.155  -6.825  -5.472  0.00  0.00    -0.126 OA
ATOM     15  O   UNL     1      -6.942  -6.458  -7.522  0.00  0.00    -0.126 OA
ENDBRANCH  11  13
BRANCH  10  16
ATOM     16  O   UNL     1      -5.044  -5.155  -8.451  0.00  0.00    -0.504 OA
ATOM     17  H   UNL     1      -4.706  -5.940  -8.904  0.00  0.00    +0.292 HD
ENDBRANCH  10  16
ENDBRANCH   6   7
ENDBRANCH   3   5
BRANCH   1  18
ATOM     18  C   UNL     1       0.022  -2.898  -0.013  0.00  0.00    +0.133 C 
BRANCH  18  25
ATOM     19  C   UNL     1      -0.016   1.357   0.009  0.00  0.00    +0.001 A 
ATOM     20  C   UNL     1       1.169   2.091   0.002  0.00  0.00    +0.001 A 
ATOM     21  C   UNL     1       2.378   1.468  -0.013  0.00  0.00    +0.009 A 
ATOM     22  C   UNL     1       2.438   0.064  -0.021  0.00  0.00    -0.004 A 
ATOM     23  C   UNL     1       1.233  -0.683  -0.013  0.00  0.00    -0.013 A 
ATOM     24  C   UNL     1       0.002  -0.004   0.002  0.00  0.00    +0.009 A 
ATOM     25  C   UNL     1       1.292  -2.087  -0.021  0.00  0.00    -0.031 A 
ATOM     26  C   UNL     1       2.502  -2.710  -0.036  0.00  0.00    +0.006 A 
ATOM     27  C   UNL     1       3.687  -1.977  -0.043  0.00  0.00    +0.016 A 
ATOM     28  C   UNL     1       3.669  -0.615  -0.036  0.00  0.00    +0.026 A 
ATOM     29 BR   UNL     1       5.290   0.357  -0.046  0.00  0.00    -0.050 Br
ENDBRANCH  18  25
ENDBRANCH   1  18
TORSDOF 6
