REMARK  Name = ZINC16904499
REMARK  5 active torsions:
REMARK  status: ('A' for Active; 'I' for Inactive)
REMARK    1  A    between atoms: C_1  and  C_2
REMARK    2  A    between atoms: C_7  and  C_8
REMARK    3  A    between atoms: N_12  and  C_23
REMARK    4  A    between atoms: N_14  and  C_15
REMARK    5  A    between atoms: C_18  and  O_21
REMARK                            x       y       z     vdW  Elec       q    Type
REMARK                         _______ _______ _______ _____ _____    ______ ____
ROOT
ATOM      1  C   UNL     1      -0.070   5.316   0.030  0.00  0.00    +0.028 C 
ATOM      2  C   UNL     1       1.092   6.009   0.126  0.00  0.00    +0.078 C 
ATOM      3  C   UNL     1       1.306   7.465   0.252  0.00  0.00    +0.259 C 
ATOM      4  O   UNL     1       0.373   8.246   0.284  0.00  0.00    -0.269 OA
ATOM      5  N   UNL     1       2.559   7.881   0.329  0.00  0.00    -0.249 N 
ATOM      6  C   UNL     1       3.602   6.981   0.290  0.00  0.00    +0.168 C 
ATOM      7  N   UNL     1       4.892   7.222   0.354  0.00  0.00    -0.226 NA
ATOM      8  S   UNL     1       2.774   5.406   0.141  0.00  0.00    -0.049 S 
ATOM      9  C   UNL     1       2.841   9.313   0.455  0.00  0.00    +0.140 C 
ENDROOT
BRANCH   1  16
ATOM     10  C   UNL     1      -2.407   3.708   0.603  0.00  0.00    +0.044 C 
ATOM     11  C   UNL     1      -1.166   3.083   0.020  0.00  0.00    -0.043 A 
ATOM     12  C   UNL     1      -1.135   1.732  -0.252  0.00  0.00    +0.004 A 
ATOM     13  C   UNL     1       0.005   1.155  -0.782  0.00  0.00    +0.000 A 
ATOM     14  C   UNL     1       1.120   1.929  -1.054  0.00  0.00    +0.001 A 
ATOM     15  C   UNL     1       1.104   3.283  -0.793  0.00  0.00    +0.008 A 
ATOM     16  C   UNL     1      -0.044   3.873  -0.252  0.00  0.00    -0.021 A 
ENDBRANCH   1  16
BRANCH   7  17
ATOM     17  C   UNL     1       5.786   6.186   0.299  0.00  0.00    +0.067 A 
ATOM     18  C   UNL     1       5.571   5.035   1.060  0.00  0.00    +0.031 A 
ATOM     19  C   UNL     1       6.471   3.992   0.999  0.00  0.00    +0.047 A 
ATOM     20  C   UNL     1       7.595   4.090   0.191  0.00  0.00    +0.117 A 
ATOM     21  C   UNL     1       7.816   5.234  -0.563  0.00  0.00    +0.047 A 
ATOM     22  C   UNL     1       6.918   6.280  -0.512  0.00  0.00    +0.031 A 
BRANCH  20  23
ATOM     23  O   UNL     1       8.483   3.061   0.137  0.00  0.00    -0.507 OA
ATOM     24  H   UNL     1       9.191   3.119   0.793  0.00  0.00    +0.292 HD
ENDBRANCH  20  23
ENDBRANCH   7  17
TORSDOF 3
