REMARK  Name = ZINC29999712
REMARK  5 active torsions:
REMARK  status: ('A' for Active; 'I' for Inactive)
REMARK    1  A    between atoms: C_1  and  N_2
REMARK    2  A    between atoms: C_6  and  C_7
REMARK    3  A    between atoms: C_7  and  C_9
REMARK    4  A    between atoms: C_7  and  N_16
REMARK    5  A    between atoms: C_17  and  C_19
REMARK                            x       y       z     vdW  Elec       q    Type
REMARK                         _______ _______ _______ _____ _____    ______ ____
ROOT
ATOM      1  N   UNL     1      -1.399   3.263  -0.986  0.00  0.00    -0.297 N 
ATOM      2  C   UNL     1      -1.667   2.940  -2.267  0.00  0.00    +0.245 C 
ATOM      3  O   UNL     1      -1.787   1.774  -2.587  0.00  0.00    -0.270 OA
ATOM      4  H   UNL     1      -1.290   4.318  -0.695  0.00  0.00    +0.150 HD
ENDROOT
BRANCH   2   5
ATOM      5  C   UNL     1      -1.815   4.003  -3.280  0.00  0.00    +0.040 A 
ATOM      6  C   UNL     1      -1.677   5.344  -2.912  0.00  0.00    +0.015 A 
ATOM      7  C   UNL     1      -1.814   6.337  -3.857  0.00  0.00    +0.028 A 
ATOM      8  C   UNL     1      -2.090   6.006  -5.177  0.00  0.00    +0.076 A 
ATOM      9  C   UNL     1      -2.229   4.668  -5.551  0.00  0.00    +0.143 A 
ATOM     10  C   UNL     1      -2.087   3.669  -4.610  0.00  0.00    +0.060 A 
ATOM     11  O   UNL     1      -2.501   4.361  -6.848  0.00  0.00    -0.481 OA
ATOM     12  C   UNL     1      -3.306   5.294  -7.574  0.00  0.00    +0.325 C 
ATOM     13  C   UNL     1      -2.801   6.694  -7.330  0.00  0.00    +0.255 C 
ATOM     14  O   UNL     1      -2.907   7.538  -8.194  0.00  0.00    -0.272 OA
ATOM     15  N   UNL     1      -2.232   7.004  -6.145  0.00  0.00    -0.280 N 
ATOM     16  H   UNL     1      -1.881   8.026  -5.938  0.00  0.00    +0.155 HD
ENDBRANCH   2   5
BRANCH   1  17
ATOM     17  C   UNL     1      -1.253   2.208   0.020  0.00  0.00    +0.172 C 
BRANCH  17  18
ATOM     18  C   UNL     1      -1.617   2.753   1.377  0.00  0.00    +0.015 A 
ATOM     19  C   UNL     1      -1.458   4.100   1.646  0.00  0.00    +0.009 A 
ATOM     20  C   UNL     1      -1.797   4.601   2.889  0.00  0.00    +0.001 A 
ATOM     21  C   UNL     1      -2.284   3.755   3.868  0.00  0.00    +0.003 A 
ATOM     22  C   UNL     1      -2.439   2.408   3.603  0.00  0.00    +0.039 A 
ATOM     23  C   UNL     1      -2.105   1.905   2.356  0.00  0.00    +0.129 A 
ATOM     24  F   UNL     1      -2.255   0.588   2.096  0.00  0.00    -0.205 F 
ENDBRANCH  17  18
BRANCH  17  30
ATOM     25  C   UNL     1      -0.303  -0.740   0.108  0.00  0.00    +0.150 C 
ATOM     26  N   UNL     1       0.570   0.435   0.075  0.00  0.00    -0.336 N 
ATOM     27  C   UNL     1       1.939   0.431   0.074  0.00  0.00    +0.106 A 
ATOM     28  C   UNL     1       2.333   1.718   0.038  0.00  0.00    +0.130 A 
ATOM     29  N   UNL     1       1.235   2.488   0.017  0.00  0.00    -0.238 NA
ATOM     30  C   UNL     1       0.175   1.726   0.039  0.00  0.00    +0.134 A 
ENDBRANCH  17  30
ENDBRANCH   1  17
TORSDOF 4
