REMARK  Name = ZINC39467115
REMARK  4 active torsions:
REMARK  status: ('A' for Active; 'I' for Inactive)
REMARK    1  A    between atoms: C_4  and  O_33
REMARK    2  A    between atoms: C_5  and  C_7
REMARK    3  A    between atoms: P_16  and  C_26
REMARK    4  A    between atoms: C_31  and  O_32
REMARK                            x       y       z     vdW  Elec       q    Type
REMARK                         _______ _______ _______ _____ _____    ______ ____
ROOT
ATOM      1  C   UNL     1       1.245  -2.165  -0.022  0.00  0.00    +0.017 C 
ATOM      2  C   UNL     1       0.951  -2.844  -1.144  0.00  0.00    -0.012 C 
ATOM      3  C   UNL     1       0.973  -4.348  -1.123  0.00  0.00    +0.016 C 
ATOM      4  C   UNL     1       0.103  -4.913  -2.238  0.00  0.00    -0.003 C 
ATOM      5  C   UNL     1      -1.371  -4.553  -2.013  0.00  0.00    -0.020 C 
ATOM      6  C   UNL     1      -2.169  -5.185  -3.161  0.00  0.00    +0.157 C 
ATOM      7  O   UNL     1      -3.559  -4.839  -3.028  0.00  0.00    -0.316 OA
ATOM      8  P   UNL     1      -4.264  -5.086  -1.582  0.00  0.00    +0.291 P 
ATOM      9  O   UNL     1      -4.637  -6.510  -1.430  0.00  0.00    -0.269 OA
ATOM     10  N   UNL     1      -3.120  -4.672  -0.467  0.00  0.00    -0.288 NA
ATOM     11  N   UNL     1      -1.818  -5.056  -0.712  0.00  0.00    +0.398 N 
ATOM     12  C   UNL     1      -1.014  -4.466   0.370  0.00  0.00    -0.046 C 
ATOM     13  C   UNL     1       0.442  -4.850   0.223  0.00  0.00    +0.007 C 
ATOM     14  C   UNL     1       1.217  -4.184   1.334  0.00  0.00    +0.014 C 
ATOM     15  C   UNL     1       1.601  -2.915   1.204  0.00  0.00    +0.127 C 
ATOM     16  F   UNL     1       2.307  -2.314   2.186  0.00  0.00    -0.205 F 
ATOM     17  H   UNL     1      -3.356  -4.177   0.333  0.00  0.00    +0.111 HD
ATOM     18  H   UNL     1      -1.748  -6.062  -0.694  0.00  0.00    -0.055 HD
ENDROOT
BRANCH   1  23
ATOM     19  C   UNL     1      -0.017   1.376   0.010  0.00  0.00    +0.001 A 
ATOM     20  C   UNL     1       1.169   2.089   0.002  0.00  0.00    +0.004 A 
ATOM     21  C   UNL     1       2.382   1.426  -0.013  0.00  0.00    +0.046 A 
ATOM     22  C   UNL     1       2.416   0.041  -0.021  0.00  0.00    +0.125 A 
ATOM     23  C   UNL     1       1.219  -0.683  -0.013  0.00  0.00    +0.026 A 
ATOM     24  C   UNL     1       0.002  -0.004   0.002  0.00  0.00    +0.012 A 
BRANCH  22  25
ATOM     25  O   UNL     1       3.607  -0.612  -0.037  0.00  0.00    -0.506 OA
ATOM     26  H   UNL     1       3.961  -0.806   0.842  0.00  0.00    +0.292 HD
ENDBRANCH  22  25
ENDBRANCH   1  23
BRANCH   8  27
ATOM     27  C   UNL     1      -5.729  -4.031  -1.408  0.00  0.00    +0.091 A 
ATOM     28  C   UNL     1      -5.609  -2.764  -0.868  0.00  0.00    +0.018 A 
ATOM     29  C   UNL     1      -6.725  -1.960  -0.735  0.00  0.00    +0.001 A 
ATOM     30  C   UNL     1      -7.965  -2.420  -1.140  0.00  0.00    +0.004 A 
ATOM     31  C   UNL     1      -8.090  -3.685  -1.681  0.00  0.00    +0.046 A 
ATOM     32  C   UNL     1      -6.970  -4.492  -1.821  0.00  0.00    +0.131 A 
BRANCH  32  33
ATOM     33  O   UNL     1      -7.090  -5.735  -2.357  0.00  0.00    -0.506 OA
ATOM     34  H   UNL     1      -7.269  -6.429  -1.707  0.00  0.00    +0.292 HD
ENDBRANCH  32  33
ENDBRANCH   8  27
TORSDOF 4
