REMARK  Name = ZINC12246269
REMARK  9 active torsions:
REMARK  status: ('A' for Active; 'I' for Inactive)
REMARK    1  A    between atoms: C_1  and  O_2
REMARK    2  A    between atoms: O_2  and  C_3
REMARK    3  A    between atoms: C_3  and  C_4
REMARK    4  A    between atoms: C_4  and  N_5
REMARK    5  A    between atoms: C_8  and  C_12
REMARK    6  A    between atoms: C_8  and  C_20
REMARK    7  A    between atoms: C_12  and  C_13
REMARK    8  A    between atoms: C_25  and  C_26
REMARK    9  A    between atoms: C_25  and  N_65
REMARK                            x       y       z     vdW  Elec       q    Type
REMARK                         _______ _______ _______ _____ _____    ______ ____
ROOT
ATOM      1  N   UNL     1       0.710   3.076   0.011  0.00  0.00    -0.222 N 
ATOM      2  C   UNL     1      -0.628   3.232   0.024  0.00  0.00    +0.247 C 
ATOM      3  O   UNL     1      -1.244   4.276   0.034  0.00  0.00    -0.273 OA
ATOM      4  C   UNL     1      -1.204   1.830   0.017  0.00  0.00    +0.119 C 
ATOM      5  N   UNL     1      -0.011   0.966   0.007  0.00  0.00    -0.284 N 
ATOM      6  C   UNL     1       1.057   1.784   0.002  0.00  0.00    +0.309 C 
ATOM      7  O   UNL     1       2.207   1.393  -0.011  0.00  0.00    -0.252 OA
ATOM      8  H   UNL     1       0.002  -0.004   0.002  0.00  0.00    +0.151 HD
ENDROOT
BRANCH   4   9
ATOM      9  C   UNL     1      -2.047   1.598  -1.239  0.00  0.00    +0.018 C 
ATOM     10  C   UNL     1      -2.507   0.138  -1.284  0.00  0.00    -0.013 C 
ATOM     11  C   UNL     1      -3.297  -0.103  -2.572  0.00  0.00    -0.078 C 
ATOM     12  C   UNL     1      -2.034   1.607  -3.736  0.00  0.00    -0.078 C 
ATOM     13  C   UNL     1      -1.206   1.899  -2.482  0.00  0.00    -0.013 C 
ATOM     14  N   UNL     1      -2.424   0.181  -3.732  0.00  0.00    +0.384 N 
ATOM     15  H   UNL     1      -1.577  -0.395  -3.660  0.00  0.00    -0.081 HD
BRANCH  14  16
ATOM     16  C   UNL     1      -3.128  -0.153  -4.987  0.00  0.00    -0.003 C 
BRANCH  16  17
ATOM     17  C   UNL     1      -3.318  -1.647  -5.054  0.00  0.00    +0.091 A 
ATOM     18  N   UNL     1      -4.442  -2.307  -4.665  0.00  0.00    -0.343 N 
ATOM     19  H   UNL     1      -5.272  -1.895  -4.291  0.00  0.00    +0.167 HD
ATOM     20  C   UNL     1      -4.224  -3.653  -4.884  0.00  0.00    +0.066 A 
ATOM     21  C   UNL     1      -4.983  -4.799  -4.692  0.00  0.00    +0.028 A 
ATOM     22  C   UNL     1      -4.455  -6.030  -5.018  0.00  0.00    +0.002 A 
ATOM     23  C   UNL     1      -3.171  -6.130  -5.536  0.00  0.00    +0.002 A 
ATOM     24  C   UNL     1      -2.410  -5.013  -5.732  0.00  0.00    +0.030 A 
ATOM     25  C   UNL     1      -2.924  -3.755  -5.409  0.00  0.00    +0.089 A 
ATOM     26  N   UNL     1      -2.429  -2.493  -5.486  0.00  0.00    -0.234 NA
ENDBRANCH  16  17
ENDBRANCH  14  16
ENDBRANCH   4   9
BRANCH   1  27
ATOM     27  C   UNL     1       1.668   4.185   0.007  0.00  0.00    +0.146 C 
BRANCH  27  28
ATOM     28  C   UNL     1       1.987   4.578  -1.437  0.00  0.00    +0.179 C 
BRANCH  28  30
ATOM     29  C   UNL     1       1.001   5.491  -3.422  0.00  0.00    +0.194 C 
ATOM     30  O   UNL     1       0.810   5.092  -2.062  0.00  0.00    -0.381 OA
ENDBRANCH  28  30
ENDBRANCH  27  28
ENDBRANCH   1  27
BRANCH   4  31
ATOM     31  C   UNL     1      -2.036   1.585   1.278  0.00  0.00    +0.070 C 
BRANCH  31  32
ATOM     32  C   UNL     1      -1.197   1.873   2.496  0.00  0.00    -0.045 A 
ATOM     33  C   UNL     1      -0.453   0.864   3.077  0.00  0.00    +0.006 A 
ATOM     34  C   UNL     1       0.320   1.128   4.192  0.00  0.00    +0.038 A 
ATOM     35  C   UNL     1       0.341   2.402   4.733  0.00  0.00    +0.123 A 
ATOM     36  C   UNL     1      -0.409   3.412   4.153  0.00  0.00    +0.038 A 
ATOM     37  C   UNL     1      -1.177   3.146   3.036  0.00  0.00    +0.006 A 
ATOM     38  F   UNL     1       1.093   2.660   5.825  0.00  0.00    -0.205 F 
ENDBRANCH  31  32
ENDBRANCH   4  31
TORSDOF 8
