REMARK  Name = ZINC12932952
REMARK  5 active torsions:
REMARK  status: ('A' for Active; 'I' for Inactive)
REMARK    1  A    between atoms: C_4  and  C_7
REMARK    2  A    between atoms: C_7  and  N_8
REMARK    3  A    between atoms: C_14  and  S_15
REMARK    4  A    between atoms: S_15  and  C_16
REMARK    5  A    between atoms: C_16  and  C_17
REMARK                            x       y       z     vdW  Elec       q    Type
REMARK                         _______ _______ _______ _____ _____    ______ ____
ROOT
ATOM      1  C   UNL     1      -5.948   4.874   2.796  0.00  0.00    +0.143 A 
ATOM      2  N   UNL     1      -7.183   4.886   2.326  0.00  0.00    -0.216 NA
ATOM      3  C   UNL     1      -7.903   5.995   2.266  0.00  0.00    +0.128 A 
ATOM      4  C   UNL     1      -7.332   7.216   2.720  0.00  0.00    +0.051 A 
ATOM      5  C   UNL     1      -7.937   8.552   2.750  0.00  0.00    -0.025 A 
ATOM      6  C   UNL     1      -7.171   9.553   3.227  0.00  0.00    -0.004 A 
ATOM      7  S   UNL     1      -5.631   8.791   3.671  0.00  0.00    -0.073 S 
ATOM      8  C   UNL     1      -6.013   7.124   3.205  0.00  0.00    +0.114 A 
ATOM      9  N   UNL     1      -5.368   5.974   3.236  0.00  0.00    -0.224 NA
ATOM     10  C   UNL     1      -7.528  11.002   3.354  0.00  0.00    +0.043 C 
ATOM     11  C   UNL     1      -8.894  11.129   4.042  0.00  0.00    +0.005 C 
ATOM     12  C   UNL     1      -9.976  11.111   2.967  0.00  0.00    +0.001 C 
ATOM     13  C   UNL     1      -9.544  10.217   1.806  0.00  0.00    +0.005 C 
ATOM     14  C   UNL     1      -9.370   8.778   2.275  0.00  0.00    +0.037 C 
ATOM     15  N   UNL     1      -9.194   5.966   1.769  0.00  0.00    -0.343 N 
ATOM     16  H   UNL     1      -9.842   6.625   2.064  0.00  0.00    +0.144 HD
ATOM     17  H   UNL     1      -9.451   5.287   1.126  0.00  0.00    +0.144 HD
ENDROOT
BRANCH   1  18
ATOM     18  C   UNL     1      -5.188   3.574   2.834  0.00  0.00    +0.153 C 
BRANCH  18  19
ATOM     19  S   UNL     1      -4.284   3.357   1.281  0.00  0.00    -0.078 S 
BRANCH  19  26
ATOM     20  N   UNL     1      -2.675   1.136   0.725  0.00  0.00    -0.266 N 
ATOM     21  C   UNL     1      -2.285  -0.013   1.313  0.00  0.00    +0.345 A 
ATOM     22  O   UNL     1      -1.548  -0.854   0.830  0.00  0.00    -0.245 OA
ATOM     23  N   UNL     1      -2.857  -0.060   2.533  0.00  0.00    -0.226 N 
ATOM     24  H   UNL     1      -2.757  -0.769   3.187  0.00  0.00    +0.194 HD
ATOM     25  N   UNL     1      -3.628   1.102   2.681  0.00  0.00    -0.145 NA
ATOM     26  C   UNL     1      -3.509   1.805   1.592  0.00  0.00    +0.193 A 
BRANCH  20  27
ATOM     27  C   UNL     1      -2.284   1.591  -0.612  0.00  0.00    +0.164 C 
BRANCH  27  31
ATOM     28  C   UNL     1       1.272   3.942  -0.337  0.00  0.00    +0.000 A 
ATOM     29  C   UNL     1       1.360   2.575  -0.524  0.00  0.00    +0.000 A 
ATOM     30  C   UNL     1       0.209   1.814  -0.609  0.00  0.00    +0.005 A 
ATOM     31  C   UNL     1      -1.030   2.420  -0.513  0.00  0.00    -0.028 A 
ATOM     32  C   UNL     1      -1.117   3.786  -0.321  0.00  0.00    +0.005 A 
ATOM     33  C   UNL     1       0.034   4.547  -0.235  0.00  0.00    +0.000 A 
ENDBRANCH  27  31
ENDBRANCH  20  27
ENDBRANCH  19  26
ENDBRANCH  18  19
ENDBRANCH   1  18
TORSDOF 5
