REMARK  Name = ZINC05162591
REMARK  7 active torsions:
REMARK  status: ('A' for Active; 'I' for Inactive)
REMARK    1  A    between atoms: C_4  and  C_7
REMARK    2  A    between atoms: C_9  and  O_21
REMARK    3  A    between atoms: C_12  and  O_13
REMARK    4  A    between atoms: O_13  and  C_14
REMARK    5  A    between atoms: C_17  and  N_20
REMARK    6  A    between atoms: O_21  and  C_22
REMARK    7  A    between atoms: C_25  and  N_28
REMARK                            x       y       z     vdW  Elec       q    Type
REMARK                         _______ _______ _______ _____ _____    ______ ____
ROOT
ATOM      1  C   UNL     1       3.806  -1.031  -0.011  0.00  0.00    +0.028 A 
ATOM      2  C   UNL     1       4.722  -0.715  -1.012  0.00  0.00    +0.058 A 
ATOM      3  C   UNL     1       6.025  -1.176  -0.925  0.00  0.00    +0.129 A 
ATOM      4  C   UNL     1       6.419  -1.953   0.156  0.00  0.00    +0.050 A 
ATOM      5  C   UNL     1       5.515  -2.270   1.151  0.00  0.00    +0.050 A 
ATOM      6  C   UNL     1       4.210  -1.809   1.079  0.00  0.00    +0.136 A 
ENDROOT
BRANCH   1  10
ATOM      7  C   UNL     1      -0.198   0.377  -0.261  0.00  0.00    +0.000 A 
ATOM      8  C   UNL     1       0.854   1.258  -0.433  0.00  0.00    +0.001 A 
ATOM      9  C   UNL     1       2.156   0.806  -0.353  0.00  0.00    +0.008 A 
ATOM     10  C   UNL     1       2.409  -0.540  -0.098  0.00  0.00    -0.014 A 
ATOM     11  C   UNL     1       1.345  -1.423   0.076  0.00  0.00    +0.008 A 
ATOM     12  C   UNL     1       0.048  -0.961  -0.007  0.00  0.00    +0.001 A 
ENDBRANCH   1  10
BRANCH   6  13
ATOM     13  O   UNL     1       3.323  -2.117   2.061  0.00  0.00    -0.455 OA
BRANCH  13  14
ATOM     14  C   UNL     1       3.785  -2.786   3.151  0.00  0.00    +0.129 A 
ATOM     15  C   UNL     1       4.494  -2.107   4.132  0.00  0.00    +0.048 A 
ATOM     16  C   UNL     1       4.964  -2.787   5.239  0.00  0.00    +0.026 A 
ATOM     17  C   UNL     1       4.726  -4.149   5.370  0.00  0.00    +0.025 A 
ATOM     18  C   UNL     1       4.017  -4.827   4.388  0.00  0.00    +0.026 A 
ATOM     19  C   UNL     1       3.543  -4.145   3.284  0.00  0.00    +0.048 A 
BRANCH  17  20
ATOM     20  N   UNL     1       5.202  -4.837   6.491  0.00  0.00    -0.358 N 
ATOM     21  H   UNL     1       5.698  -4.363   7.177  0.00  0.00    +0.142 HD
ATOM     22  H   UNL     1       5.037  -5.788   6.583  0.00  0.00    +0.142 HD
ENDBRANCH  17  20
ENDBRANCH  13  14
ENDBRANCH   6  13
BRANCH   3  23
ATOM     23  O   UNL     1       6.919  -0.868  -1.902  0.00  0.00    -0.456 OA
BRANCH  23  24
ATOM     24  C   UNL     1       7.207  -1.822  -2.828  0.00  0.00    +0.129 A 
ATOM     25  C   UNL     1       6.585  -3.060  -2.764  0.00  0.00    +0.048 A 
ATOM     26  C   UNL     1       6.877  -4.029  -3.704  0.00  0.00    +0.026 A 
ATOM     27  C   UNL     1       7.793  -3.763  -4.713  0.00  0.00    +0.025 A 
ATOM     28  C   UNL     1       8.415  -2.523  -4.776  0.00  0.00    +0.026 A 
ATOM     29  C   UNL     1       8.118  -1.554  -3.839  0.00  0.00    +0.048 A 
BRANCH  27  30
ATOM     30  N   UNL     1       8.090  -4.744  -5.665  0.00  0.00    -0.358 N 
ATOM     31  H   UNL     1       7.655  -5.610  -5.621  0.00  0.00    +0.142 HD
ATOM     32  H   UNL     1       8.730  -4.559  -6.370  0.00  0.00    +0.142 HD
ENDBRANCH  27  30
ENDBRANCH  23  24
ENDBRANCH   3  23
TORSDOF 7
