REMARK  Name = ZINC06115661
REMARK  5 active torsions:
REMARK  status: ('A' for Active; 'I' for Inactive)
REMARK    1  A    between atoms: C_1  and  C_2
REMARK    2  A    between atoms: C_8  and  N_10
REMARK    3  A    between atoms: C_14  and  C_16
REMARK    4  A    between atoms: C_16  and  S_17
REMARK    5  A    between atoms: S_17  and  C_18
REMARK                            x       y       z     vdW  Elec       q    Type
REMARK                         _______ _______ _______ _____ _____    ______ ____
ROOT
ATOM      1  N   UNL     1      -3.525   1.834   0.029  0.00  0.00    -0.296 N 
ATOM      2  C   UNL     1      -2.349   1.176   0.020  0.00  0.00    +0.306 C 
ATOM      3  O   UNL     1      -2.332  -0.039   0.013  0.00  0.00    -0.252 OA
ATOM      4  N   UNL     1      -1.191   1.866   0.018  0.00  0.00    -0.240 N 
ATOM      5  C   UNL     1      -0.014   1.208   0.009  0.00  0.00    +0.231 C 
ATOM      6  O   UNL     1       0.002  -0.004   0.002  0.00  0.00    -0.274 OA
ATOM      7  H   UNL     1      -3.538   2.804   0.034  0.00  0.00    +0.151 HD
ATOM      8  H   UNL     1      -1.204   2.836   0.023  0.00  0.00    +0.159 HD
ENDROOT
BRANCH   1  15
ATOM      9  C   UNL     1      -5.507   2.305   2.087  0.00  0.00    +0.009 C 
ATOM     10  C   UNL     1      -5.888   1.944   0.650  0.00  0.00    +0.006 C 
ATOM     11  C   UNL     1      -6.058   3.224  -0.170  0.00  0.00    +0.005 C 
ATOM     12  C   UNL     1      -6.439   2.863  -1.607  0.00  0.00    +0.000 C 
ATOM     13  C   UNL     1      -5.334   2.004  -2.226  0.00  0.00    +0.002 C 
ATOM     14  C   UNL     1      -5.164   0.724  -1.407  0.00  0.00    +0.022 C 
ATOM     15  C   UNL     1      -4.783   1.085   0.031  0.00  0.00    +0.077 C 
ENDBRANCH   1  15
BRANCH   5  16
ATOM     16  C   UNL     1       1.280   1.979   0.001  0.00  0.00    +0.172 C 
BRANCH  16  17
ATOM     17  S   UNL     1       2.672   0.822  -0.019  0.00  0.00    -0.096 S 
BRANCH  17  18
ATOM     18  C   UNL     1       4.017   1.960  -0.026  0.00  0.00    +0.109 A 
ATOM     19  C   UNL     1       5.359   1.489  -0.041  0.00  0.00    +0.040 A 
ATOM     20  C   UNL     1       5.866   0.129  -0.053  0.00  0.00    +0.020 A 
ATOM     21  C   UNL     1       7.191  -0.077  -0.066  0.00  0.00    +0.048 A 
ATOM     22  S   UNL     1       7.868   1.573  -0.064  0.00  0.00    -0.077 S 
ATOM     23  C   UNL     1       6.353   2.493  -0.045  0.00  0.00    +0.112 A 
ATOM     24  N   UNL     1       6.036   3.773  -0.035  0.00  0.00    -0.228 NA
ATOM     25  C   UNL     1       4.772   4.149  -0.021  0.00  0.00    +0.223 A 
ATOM     26  N   UNL     1       3.791   3.265  -0.022  0.00  0.00    -0.229 NA
ENDBRANCH  17  18
ENDBRANCH  16  17
ENDBRANCH   5  16
TORSDOF 4
