REMARK  Name = ZINC33024216
REMARK  13 active torsions:
REMARK  status: ('A' for Active; 'I' for Inactive)
REMARK    1  A    between atoms: C_1  and  C_2
REMARK    2  A    between atoms: C_2  and  O_3
REMARK    3  A    between atoms: O_3  and  C_4
REMARK    4  A    between atoms: C_4  and  C_6
REMARK    5  A    between atoms: C_7  and  C_36
REMARK    6  A    between atoms: C_8  and  C_13
REMARK    7  A    between atoms: C_11  and  C_12
REMARK    8  A    between atoms: C_18  and  C_21
REMARK    9  A    between atoms: C_21  and  C_23
REMARK   10  A    between atoms: C_21  and  C_24
REMARK   11  A    between atoms: N_26  and  C_27
REMARK   12  A    between atoms: C_27  and  C_28
REMARK   13  A    between atoms: C_28  and  N_29
REMARK                            x       y       z     vdW  Elec       q    Type
REMARK                         _______ _______ _______ _____ _____    ______ ____
ROOT
ATOM      1  C   UNL     1      -2.529   1.257   0.019  0.00  0.00    +0.263 C 
ATOM      2  O   UNL     1      -3.453   2.041   0.130  0.00  0.00    -0.268 OA
ATOM      3  N   UNL     1      -2.775  -0.064  -0.089  0.00  0.00    -0.296 N 
ATOM      4  C   UNL     1      -1.670  -1.032  -0.107  0.00  0.00    +0.108 C 
ATOM      5  C   UNL     1      -1.927  -2.086   0.982  0.00  0.00    +0.023 C 
ATOM      6  C   UNL     1      -3.310  -2.706   0.767  0.00  0.00    +0.004 C 
ATOM      7  C   UNL     1      -4.382  -1.620   0.885  0.00  0.00    +0.023 C 
ATOM      8  C   UNL     1      -4.153  -0.562  -0.198  0.00  0.00    +0.108 C 
ENDROOT
BRANCH   1  11
ATOM      9  C   UNL     1       0.909   2.326  -0.654  0.00  0.00    +0.083 A 
ATOM     10  C   UNL     1      -0.326   1.789  -1.086  0.00  0.00    -0.006 A 
ATOM     11  C   UNL     1      -1.146   1.750   0.002  0.00  0.00    +0.106 A 
ATOM     12  N   UNL     1      -0.456   2.254   1.083  0.00  0.00    -0.354 N 
ATOM     13  H   UNL     1      -0.945   2.318   2.066  0.00  0.00    +0.166 HD
ATOM     14  C   UNL     1       0.782   2.600   0.695  0.00  0.00    +0.028 A 
ATOM     15  C   UNL     1       1.852   3.185   1.580  0.00  0.00    +0.064 C 
ATOM     16  C   UNL     1      -0.668   1.339  -2.483  0.00  0.00    +0.047 C 
BRANCH   9  17
ATOM     17  C   UNL     1       2.103   2.552  -1.485  0.00  0.00    +0.341 C 
ATOM     18  O   UNL     1       2.938   1.676  -1.600  0.00  0.00    -0.245 OA
BRANCH  17  19
ATOM     19  O   UNL     1       2.271   3.730  -2.118  0.00  0.00    -0.461 OA
BRANCH  19  21
ATOM     20  C   UNL     1       3.488   5.274  -3.555  0.00  0.00    +0.048 C 
ATOM     21  C   UNL     1       3.473   3.882  -2.919  0.00  0.00    +0.229 C 
ENDBRANCH  19  21
ENDBRANCH  17  19
ENDBRANCH   9  17
ENDBRANCH   1  11
BRANCH   6  22
ATOM     22  C   UNL     1      -3.555  -3.783   1.825  0.00  0.00    +0.075 C 
ATOM     23  C   UNL     1      -2.484  -4.869   1.707  0.00  0.00    +0.017 C 
BRANCH  22  24
ATOM     24  C   UNL     1      -4.916  -4.395   1.613  0.00  0.00    +0.216 C 
ATOM     25  O   UNL     1      -5.620  -4.008   0.704  0.00  0.00    -0.276 OA
ATOM     26  N   UNL     1      -5.351  -5.372   2.433  0.00  0.00    -0.317 N 
ATOM     27  H   UNL     1      -4.712  -5.723   3.257  0.00  0.00    +0.149 HD
BRANCH  26  28
ATOM     28  C   UNL     1      -6.673  -5.967   2.226  0.00  0.00    +0.085 C 
BRANCH  28  29
ATOM     29  C   UNL     1      -6.919  -7.044   3.285  0.00  0.00    -0.060 C 
BRANCH  29  30
ATOM     30  N   UNL     1      -8.245  -7.641   3.078  0.00  0.00    +0.381 N 
ATOM     31  C   UNL     1      -9.312  -6.624   3.216  0.00  0.00    -0.079 C 
ATOM     32  C   UNL     1     -10.688  -7.227   3.283  0.00  0.00    -0.019 C 
ATOM     33  C   UNL     1     -11.066  -7.420   4.766  0.00  0.00    -0.002 C 
ATOM     34  C   UNL     1     -10.434  -8.600   5.347  0.00  0.00    -0.002 C 
ATOM     35  C   UNL     1      -8.894  -8.510   5.315  0.00  0.00    -0.019 C 
ATOM     36  C   UNL     1      -8.425  -8.841   3.925  0.00  0.00    -0.079 C 
ATOM     37  H   UNL     1      -8.315  -8.000   2.041  0.00  0.00    -0.082 HD
ENDBRANCH  29  30
ENDBRANCH  28  29
ENDBRANCH  26  28
ENDBRANCH  22  24
ENDBRANCH   6  22
TORSDOF 9
