REMARK  Name = ZINC08809755
REMARK  10 active torsions:
REMARK  status: ('A' for Active; 'I' for Inactive)
REMARK    1  A    between atoms: C_1  and  C_2
REMARK    2  A    between atoms: C_2  and  O_3
REMARK    3  A    between atoms: O_3  and  C_4
REMARK    4  A    between atoms: C_4  and  C_6
REMARK    5  A    between atoms: C_7  and  N_35
REMARK    6  A    between atoms: N_8  and  C_26
REMARK    7  A    between atoms: C_11  and  C_13
REMARK    8  A    between atoms: C_16  and  S_19
REMARK    9  A    between atoms: S_19  and  C_20
REMARK   10  A    between atoms: C_29  and  N_32
REMARK                            x       y       z     vdW  Elec       q    Type
REMARK                         _______ _______ _______ _____ _____    ______ ____
ROOT
ATOM      1  C   UNL     1      -1.442   1.496   3.622  0.00  0.00    +0.084 C 
ATOM      2  C   UNL     1      -0.772   0.942   4.670  0.00  0.00    +0.103 C 
ATOM      3  N   UNL     1      -0.752   1.577   5.888  0.00  0.00    -0.261 N 
ATOM      4  C   UNL     1      -1.035   2.916   5.981  0.00  0.00    +0.024 C 
ATOM      5  C   UNL     1      -1.710   3.546   4.997  0.00  0.00    +0.025 C 
ATOM      6  C   UNL     1      -2.171   2.800   3.772  0.00  0.00    +0.094 C 
ATOM      7  C   UNL     1      -2.005   4.918   5.083  0.00  0.00    +0.162 C 
ATOM      8  O   UNL     1      -2.598   5.459   4.171  0.00  0.00    -0.292 OA
ATOM      9  C   UNL     1      -1.598   5.729   6.283  0.00  0.00    +0.080 C 
ATOM     10  C   UNL     1      -1.538   4.809   7.508  0.00  0.00    +0.014 C 
ATOM     11  C   UNL     1      -0.569   3.664   7.206  0.00  0.00    +0.052 C 
ENDROOT
BRANCH   6  12
ATOM     12  C   UNL     1      -3.648   2.529   3.890  0.00  0.00    -0.035 A 
ATOM     13  C   UNL     1      -4.125   1.746   4.926  0.00  0.00    +0.005 A 
ATOM     14  C   UNL     1      -5.479   1.500   5.040  0.00  0.00    +0.015 A 
ATOM     15  C   UNL     1      -6.362   2.030   4.107  0.00  0.00    +0.008 A 
ATOM     16  C   UNL     1      -5.878   2.812   3.064  0.00  0.00    +0.015 A 
ATOM     17  C   UNL     1      -4.524   3.058   2.959  0.00  0.00    +0.005 A 
BRANCH  15  18
ATOM     18  S   UNL     1      -8.089   1.713   4.245  0.00  0.00    -0.129 S 
ATOM     19  C   UNL     1      -8.228   0.674   5.725  0.00  0.00    +0.090 C 
ENDBRANCH  15  18
ENDBRANCH   6  12
BRANCH   3  20
ATOM     20  C   UNL     1      -0.439   0.852   7.044  0.00  0.00    +0.040 A 
ATOM     21  C   UNL     1      -1.447   0.231   7.770  0.00  0.00    +0.026 A 
ATOM     22  C   UNL     1      -1.134  -0.489   8.906  0.00  0.00    +0.034 A 
ATOM     23  C   UNL     1       0.180  -0.581   9.329  0.00  0.00    +0.126 A 
ATOM     24  C   UNL     1       1.185   0.042   8.611  0.00  0.00    +0.034 A 
ATOM     25  C   UNL     1       0.879   0.758   7.471  0.00  0.00    +0.026 A 
BRANCH  23  26
ATOM     26  N   UNL     1       0.511  -1.348  10.551  0.00  0.00    +0.056 N 
ATOM     27  O   UNL     1       1.667  -1.430  10.924  0.00  0.00    -0.126 OA
ATOM     28  O   UNL     1      -0.374  -1.897  11.183  0.00  0.00    -0.126 OA
ENDBRANCH  23  26
ENDBRANCH   3  20
BRANCH   2  29
ATOM     29  N   UNL     1      -0.116  -0.251   4.508  0.00  0.00    -0.346 N 
ATOM     30  H   UNL     1       0.381  -0.425   3.694  0.00  0.00    +0.143 HD
ATOM     31  H   UNL     1      -0.149  -0.921   5.209  0.00  0.00    +0.143 HD
ENDBRANCH   2  29
BRANCH   1  32
ATOM     32  C   UNL     1      -1.447   0.842   2.382  0.00  0.00    +0.339 C 
ATOM     33  O   UNL     1      -0.935  -0.258   2.272  0.00  0.00    -0.245 OA
BRANCH  32  34
ATOM     34  O   UNL     1      -2.019   1.431   1.310  0.00  0.00    -0.462 OA
BRANCH  34  36
ATOM     35  C   UNL     1      -2.679   1.527  -1.013  0.00  0.00    +0.048 C 
ATOM     36  C   UNL     1      -1.988   0.707   0.078  0.00  0.00    +0.229 C 
ENDBRANCH  34  36
ENDBRANCH  32  34
ENDBRANCH   1  32
TORSDOF 8
