REMARK  Name = ZINC37869284
REMARK  6 active torsions:
REMARK  status: ('A' for Active; 'I' for Inactive)
REMARK    1  A    between atoms: C_1  and  C_2
REMARK    2  A    between atoms: C_2  and  C_3
REMARK    3  A    between atoms: C_2  and  N_4
REMARK    4  A    between atoms: N_4  and  C_5
REMARK    5  A    between atoms: C_5  and  C_7
REMARK    6  A    between atoms: C_5  and  C_19
REMARK                            x       y       z     vdW  Elec       q    Type
REMARK                         _______ _______ _______ _____ _____    ______ ____
ROOT
ATOM      1  C   UNL     1      -1.359  -1.976  -0.116  0.00  0.00    +0.047 C 
ENDROOT
BRANCH   1   2
ATOM      2  C   UNL     1      -2.763  -2.508   0.018  0.00  0.00    -0.048 A 
ATOM      3  C   UNL     1      -2.994  -3.671   0.731  0.00  0.00    +0.052 A 
ATOM      4  C   UNL     1      -4.285  -4.157   0.853  0.00  0.00    +0.163 A 
ATOM      5  C   UNL     1      -5.341  -3.479   0.260  0.00  0.00    +0.176 A 
ATOM      6  C   UNL     1      -5.106  -2.316  -0.454  0.00  0.00    +0.063 A 
ATOM      7  C   UNL     1      -3.815  -1.830  -0.569  0.00  0.00    +0.021 A 
ATOM      8 BR   UNL     1      -6.544  -1.392  -1.263  0.00  0.00    -0.046 Br
ATOM      9  O   UNL     1      -6.610  -3.966   0.386  0.00  0.00    -0.487 OA
ATOM     10  C   UNL     1      -6.878  -5.194  -0.293  0.00  0.00    +0.232 C 
ATOM     11  C   UNL     1      -6.457  -6.384   0.555  0.00  0.00    +0.082 C 
ATOM     12  C   UNL     1      -4.954  -6.427   0.785  0.00  0.00    +0.232 C 
ATOM     13  O   UNL     1      -4.527  -5.301   1.555  0.00  0.00    -0.488 OA
ENDBRANCH   1   2
BRANCH   1  14
ATOM     14  C   UNL     1      -0.804  -2.355  -1.465  0.00  0.00    +0.201 C 
ATOM     15  O   UNL     1      -0.458  -1.491  -2.243  0.00  0.00    -0.277 OA
ATOM     16  N   UNL     1      -0.694  -3.654  -1.808  0.00  0.00    -0.330 N 
ATOM     17  H   UNL     1      -0.972  -4.345  -1.186  0.00  0.00    +0.145 HD
ATOM     18  H   UNL     1      -0.337  -3.898  -2.676  0.00  0.00    +0.145 HD
ENDBRANCH   1  14
BRANCH   1  19
ATOM     19  N   UNL     1      -1.376  -0.512   0.012  0.00  0.00    +0.391 N 
ATOM     20  H   UNL     1      -1.823  -0.256   0.880  0.00  0.00    -0.084 HD
ATOM     21  H   UNL     1      -1.888  -0.113  -0.760  0.00  0.00    -0.084 HD
BRANCH  19  23
ATOM     22  C   UNL     1      -0.019   1.526   0.010  0.00  0.00    -0.014 C 
ATOM     23  C   UNL     1       0.002  -0.004   0.002  0.00  0.00    -0.077 C 
ATOM     24  C   UNL     1       0.742  -0.511   1.242  0.00  0.00    -0.014 C 
ENDBRANCH  19  23
ENDBRANCH   1  19
TORSDOF 4
