REMARK  Name = ZINC16292735
REMARK  6 active torsions:
REMARK  status: ('A' for Active; 'I' for Inactive)
REMARK    1  A    between atoms: C_1  and  C_2
REMARK    2  A    between atoms: C_5  and  N_8
REMARK    3  A    between atoms: C_12  and  C_13
REMARK    4  A    between atoms: C_16  and  O_22
REMARK    5  A    between atoms: C_17  and  N_19
REMARK    6  A    between atoms: C_23  and  C_25
REMARK                            x       y       z     vdW  Elec       q    Type
REMARK                         _______ _______ _______ _____ _____    ______ ____
ROOT
ATOM      1  N   UNL     1       0.409  -4.197  -0.049  0.00  0.00    -0.156 N 
ATOM      2  C   UNL     1       0.477  -4.981   1.046  0.00  0.00    +0.272 C 
ATOM      3  O   UNL     1       0.745  -4.632   2.183  0.00  0.00    -0.268 OA
ATOM      4  C   UNL     1       0.159  -6.344   0.589  0.00  0.00    +0.062 C 
ATOM      5  C   UNL     1       0.102  -7.498   1.351  0.00  0.00    +0.023 C 
ATOM      6  C   UNL     1      -0.084  -6.211  -0.856  0.00  0.00    +0.069 C 
ATOM      7  N   UNL     1       0.068  -4.960  -1.165  0.00  0.00    -0.177 NA
ATOM      8  C   UNL     1      -0.449  -7.324  -1.803  0.00  0.00    +0.068 C 
ENDROOT
BRANCH   1  13
ATOM      9  C   UNL     1       1.352   1.399  -0.103  0.00  0.00    +0.044 C 
ATOM     10  C   UNL     1       1.102  -0.087  -0.088  0.00  0.00    -0.050 A 
ATOM     11  C   UNL     1       0.769  -0.742  -1.260  0.00  0.00    +0.005 A 
ATOM     12  C   UNL     1       0.539  -2.104  -1.250  0.00  0.00    +0.026 A 
ATOM     13  C   UNL     1       0.642  -2.816  -0.062  0.00  0.00    +0.060 A 
ATOM     14  C   UNL     1       0.977  -2.155   1.113  0.00  0.00    +0.026 A 
ATOM     15  C   UNL     1       1.210  -0.794   1.095  0.00  0.00    +0.005 A 
ENDBRANCH   1  13
BRANCH   5  16
ATOM     16  C   UNL     1       0.212  -7.418   2.807  0.00  0.00    -0.022 A 
ATOM     17  C   UNL     1      -0.403  -6.367   3.504  0.00  0.00    +0.011 A 
ATOM     18  C   UNL     1      -0.295  -6.298   4.863  0.00  0.00    +0.048 A 
ATOM     19  C   UNL     1       0.421  -7.269   5.558  0.00  0.00    +0.147 A 
ATOM     20  C   UNL     1       1.032  -8.314   4.873  0.00  0.00    +0.168 A 
ATOM     21  C   UNL     1       0.928  -8.397   3.513  0.00  0.00    +0.044 A 
BRANCH  20  22
ATOM     22  N   UNL     1       1.792  -9.342   5.619  0.00  0.00    +0.060 N 
ATOM     23  O   UNL     1       2.324 -10.251   5.025  0.00  0.00    -0.126 OA
ATOM     24  O   UNL     1       1.881  -9.272   6.823  0.00  0.00    -0.126 OA
ENDBRANCH  20  22
BRANCH  19  25
ATOM     25  O   UNL     1       0.524  -7.195   6.908  0.00  0.00    -0.504 OA
ATOM     26  H   UNL     1      -0.181  -7.657   7.382  0.00  0.00    +0.292 HD
ENDBRANCH  19  25
ENDBRANCH   5  16
TORSDOF 4
