REMARK  Name = ZINC36213554
REMARK  9 active torsions:
REMARK  status: ('A' for Active; 'I' for Inactive)
REMARK    1  A    between atoms: C_1  and  C_2
REMARK    2  A    between atoms: C_7  and  N_12
REMARK    3  A    between atoms: C_9  and  C_11
REMARK    4  A    between atoms: C_13  and  C_15
REMARK    5  A    between atoms: C_25  and  C_26
REMARK    6  A    between atoms: C_29  and  O_34
REMARK    7  A    between atoms: C_30  and  O_32
REMARK    8  A    between atoms: O_32  and  C_33
REMARK    9  A    between atoms: O_34  and  C_35
REMARK                            x       y       z     vdW  Elec       q    Type
REMARK                         _______ _______ _______ _____ _____    ______ ____
ROOT
ATOM      1  C   UNL     1       3.769  -4.454   3.121  0.00  0.00    +0.039 A 
ATOM      2  C   UNL     1       3.559  -3.613   4.219  0.00  0.00    +0.014 A 
ATOM      3  C   UNL     1       3.967  -4.014   5.471  0.00  0.00    +0.017 A 
ATOM      4  C   UNL     1       4.583  -5.247   5.644  0.00  0.00    +0.034 A 
ATOM      5  C   UNL     1       4.799  -6.101   4.557  0.00  0.00    +0.048 A 
ATOM      6  C   UNL     1       4.383  -5.695   3.295  0.00  0.00    +0.037 A 
ATOM      7  N   UNL     1       5.406  -7.345   4.684  0.00  0.00    -0.280 N 
ATOM      8  C   UNL     1       5.521  -8.066   5.802  0.00  0.00    +0.255 C 
ATOM      9  O   UNL     1       6.001  -9.183   5.754  0.00  0.00    -0.269 OA
ATOM     10  C   UNL     1       5.070  -7.518   7.099  0.00  0.00    +0.075 C 
ATOM     11  C   UNL     1       4.654  -8.319   8.110  0.00  0.00    +0.028 C 
ATOM     12  S   UNL     1       5.105  -5.752   7.256  0.00  0.00    -0.082 S 
ATOM     13  H   UNL     1       5.785  -7.729   3.878  0.00  0.00    +0.155 HD
ENDROOT
BRANCH  11  14
ATOM     14  C   UNL     1       4.456  -9.756   7.875  0.00  0.00    -0.020 A 
ATOM     15  C   UNL     1       3.962 -10.205   6.645  0.00  0.00    +0.012 A 
ATOM     16  C   UNL     1       3.778 -11.553   6.427  0.00  0.00    +0.050 A 
ATOM     17  C   UNL     1       4.081 -12.469   7.425  0.00  0.00    +0.162 A 
ATOM     18  C   UNL     1       4.573 -12.030   8.653  0.00  0.00    +0.162 A 
ATOM     19  C   UNL     1       4.767 -10.681   8.879  0.00  0.00    +0.057 A 
BRANCH  18  20
ATOM     20  O   UNL     1       4.868 -12.931   9.628  0.00  0.00    -0.491 OA
ATOM     21  C   UNL     1       5.369 -12.412  10.862  0.00  0.00    +0.277 C 
ENDBRANCH  18  20
BRANCH  17  22
ATOM     22  O   UNL     1       3.896 -13.797   7.205  0.00  0.00    -0.491 OA
ATOM     23  C   UNL     1       3.388 -14.178   5.924  0.00  0.00    +0.277 C 
ENDBRANCH  17  22
ENDBRANCH  11  14
BRANCH   1  25
ATOM     24  N   UNL     1       2.743  -2.831   1.607  0.00  0.00    -0.308 N 
ATOM     25  C   UNL     1       3.336  -4.029   1.777  0.00  0.00    +0.244 C 
ATOM     26  O   UNL     1       3.513  -4.761   0.822  0.00  0.00    -0.270 OA
ATOM     27  H   UNL     1       2.602  -2.247   2.368  0.00  0.00    +0.149 HD
BRANCH  24  33
ATOM     28  C   UNL     1       1.770   1.086  -1.248  0.00  0.00    +0.008 C 
ATOM     29  C   UNL     1       1.816  -0.442  -1.186  0.00  0.00    -0.009 C 
ATOM     30  C   UNL     1       0.424  -1.007  -1.475  0.00  0.00    +0.003 C 
ATOM     31  C   UNL     1       0.471  -2.535  -1.413  0.00  0.00    +0.002 C 
ATOM     32  C   UNL     1       0.921  -2.975  -0.018  0.00  0.00    +0.022 C 
ATOM     33  C   UNL     1       2.313  -2.410   0.271  0.00  0.00    +0.076 C 
ATOM     34  C   UNL     1       2.266  -0.882   0.209  0.00  0.00    +0.009 C 
ATOM     35  C   UNL     1       1.276  -0.359   1.252  0.00  0.00    +0.009 C 
ENDBRANCH  24  33
ENDBRANCH   1  25
TORSDOF 5
