REMARK  Name = ZINC16791634
REMARK  10 active torsions:
REMARK  status: ('A' for Active; 'I' for Inactive)
REMARK    1  A    between atoms: C_1  and  C_2
REMARK    2  A    between atoms: C_2  and  C_4
REMARK    3  A    between atoms: C_2  and  S_14
REMARK    4  A    between atoms: N_9  and  C_10
REMARK    5  A    between atoms: C_10  and  C_11
REMARK    6  A    between atoms: C_10  and  C_12
REMARK    7  A    between atoms: C_10  and  C_13
REMARK    8  A    between atoms: S_14  and  C_15
REMARK    9  A    between atoms: N_25  and  C_26
REMARK   10  A    between atoms: C_26  and  C_27
REMARK                            x       y       z     vdW  Elec       q    Type
REMARK                         _______ _______ _______ _____ _____    ______ ____
ROOT
ATOM      1  C   UNL     1      -2.463   5.823   0.782  0.00  0.00    +0.173 A 
ATOM      2  N   UNL     1      -1.319   6.264   0.320  0.00  0.00    -0.223 NA
ATOM      3  C   UNL     1      -1.022   7.579   0.308  0.00  0.00    +0.079 A 
ATOM      4  C   UNL     1       0.198   8.051  -0.185  0.00  0.00    +0.028 A 
ATOM      5  C   UNL     1       0.457   9.392  -0.178  0.00  0.00    +0.002 A 
ATOM      6  C   UNL     1      -0.475  10.298   0.311  0.00  0.00    +0.001 A 
ATOM      7  C   UNL     1      -1.678   9.867   0.799  0.00  0.00    +0.015 A 
ATOM      8  C   UNL     1      -1.969   8.504   0.805  0.00  0.00    +0.065 A 
ATOM      9  C   UNL     1      -3.244   7.984   1.317  0.00  0.00    +0.262 A 
ATOM     10  O   UNL     1      -4.098   8.731   1.758  0.00  0.00    -0.267 OA
ATOM     11  N   UNL     1      -3.435   6.645   1.276  0.00  0.00    -0.285 N 
ENDROOT
BRANCH   1  12
ATOM     12  S   UNL     1      -2.764   4.087   0.759  0.00  0.00    -0.075 S 
BRANCH  12  14
ATOM     13  C   UNL     1      -1.101   4.028  -1.408  0.00  0.00    +0.029 C 
ATOM     14  C   UNL     1      -1.213   3.508   0.027  0.00  0.00    +0.137 C 
BRANCH  14  15
ATOM     15  C   UNL     1      -1.192   2.002   0.019  0.00  0.00    +0.233 C 
ATOM     16  O   UNL     1      -2.234   1.381   0.020  0.00  0.00    -0.274 OA
ATOM     17  N   UNL     1      -0.016   1.344   0.009  0.00  0.00    -0.239 N 
ATOM     18  C   UNL     1       0.002  -0.004   0.002  0.00  0.00    +0.306 C 
ATOM     19  O   UNL     1      -1.042  -0.626   0.009  0.00  0.00    -0.252 OA
ATOM     20  N   UNL     1       1.178  -0.662  -0.013  0.00  0.00    -0.294 N 
ATOM     21  H   UNL     1       0.817   1.840   0.004  0.00  0.00    +0.159 HD
ATOM     22  H   UNL     1       2.012  -0.166  -0.018  0.00  0.00    +0.151 HD
BRANCH  20  23
ATOM     23  C   UNL     1       1.198  -2.127  -0.021  0.00  0.00    +0.028 C 
ATOM     24  C   UNL     1       0.472  -2.640  -1.266  0.00  0.00    +0.031 C 
ATOM     25  C   UNL     1       2.647  -2.617  -0.037  0.00  0.00    +0.031 C 
ATOM     26  C   UNL     1       0.496  -2.653   1.232  0.00  0.00    +0.031 C 
ENDBRANCH  20  23
ENDBRANCH  14  15
ENDBRANCH  12  14
ENDBRANCH   1  12
BRANCH  11  27
ATOM     27  C   UNL     1      -4.690   6.074   1.769  0.00  0.00    +0.159 C 
BRANCH  27  28
ATOM     28  C   UNL     1      -4.556   5.758   3.260  0.00  0.00    +0.138 C 
ATOM     29  C   UNL     1      -5.832   5.050   3.763  0.00  0.00    +0.035 C 
ATOM     30  C   UNL     1      -6.031   5.685   5.166  0.00  0.00    +0.031 C 
ATOM     31  C   UNL     1      -5.516   7.125   4.913  0.00  0.00    +0.160 C 
ATOM     32  O   UNL     1      -4.415   6.975   4.003  0.00  0.00    -0.375 OA
ENDBRANCH  27  28
ENDBRANCH  11  27
TORSDOF 6
