REMARK  Name = ZINC01467971
REMARK  10 active torsions:
REMARK  status: ('A' for Active; 'I' for Inactive)
REMARK    1  A    between atoms: C_1  and  C_2
REMARK    2  A    between atoms: C_3  and  C_22
REMARK    3  A    between atoms: C_4  and  N_17
REMARK    4  A    between atoms: C_14  and  C_15
REMARK    5  A    between atoms: N_17  and  C_18
REMARK    6  A    between atoms: C_18  and  C_19
REMARK    7  A    between atoms: C_19  and  C_20
REMARK    8  A    between atoms: C_19  and  C_21
REMARK    9  A    between atoms: C_22  and  C_23
REMARK   10  A    between atoms: C_23  and  C_25
REMARK                            x       y       z     vdW  Elec       q    Type
REMARK                         _______ _______ _______ _____ _____    ______ ____
ROOT
ATOM      1  C   UNL     1       1.773   2.207  -2.341  0.00  0.00    +0.045 C 
ATOM      2  C   UNL     1       2.433   1.089  -1.576  0.00  0.00    -0.023 A 
ATOM      3  C   UNL     1       3.542   1.344  -0.782  0.00  0.00    -0.001 A 
ATOM      4  C   UNL     1       4.155   0.332  -0.078  0.00  0.00    +0.109 A 
ATOM      5  N   UNL     1       3.697  -0.954  -0.134  0.00  0.00    -0.279 N 
ATOM      6  C   UNL     1       4.130  -2.124   0.468  0.00  0.00    +0.075 A 
ATOM      7  C   UNL     1       5.168  -2.431   1.335  0.00  0.00    +0.028 A 
ATOM      8  C   UNL     1       5.339  -3.731   1.765  0.00  0.00    +0.002 A 
ATOM      9  C   UNL     1       4.480  -4.732   1.336  0.00  0.00    +0.002 A 
ATOM     10  C   UNL     1       3.452  -4.450   0.482  0.00  0.00    +0.030 A 
ATOM     11  C   UNL     1       3.259  -3.139   0.032  0.00  0.00    +0.090 A 
ATOM     12  N   UNL     1       2.353  -2.565  -0.795  0.00  0.00    -0.226 NA
ATOM     13  C   UNL     1       2.603  -1.273  -0.901  0.00  0.00    +0.158 A 
ATOM     14  C   UNL     1       1.934  -0.211  -1.660  0.00  0.00    +0.098 A 
ENDROOT
BRANCH  14  15
ATOM     15  C   UNL     1       0.791  -0.503  -2.471  0.00  0.00    +0.103 C 
ATOM     16  N   UNL     1      -0.117  -0.734  -3.114  0.00  0.00    -0.191 NA
ENDBRANCH  14  15
BRANCH   4  17
ATOM     17  N   UNL     1       5.251   0.622   0.698  0.00  0.00    -0.330 N 
ATOM     18  H   UNL     1       5.373   0.528   1.787  0.00  0.00    +0.147 HD
BRANCH  17  19
ATOM     19  C   UNL     1       6.362   1.117  -0.125  0.00  0.00    +0.106 C 
BRANCH  19  20
ATOM     20  C   UNL     1       7.613   0.280   0.148  0.00  0.00    -0.000 C 
ATOM     21  C   UNL     1       7.375  -1.159  -0.317  0.00  0.00    +0.009 C 
ATOM     22  C   UNL     1       8.801   0.872  -0.613  0.00  0.00    +0.009 C 
ENDBRANCH  19  20
ENDBRANCH  17  19
ENDBRANCH   4  17
BRANCH   3  23
ATOM     23  C   UNL     1       4.084   2.748  -0.690  0.00  0.00    +0.068 C 
BRANCH  23  24
ATOM     24  C   UNL     1       3.792   3.309   0.678  0.00  0.00    -0.075 C 
ATOM     25  C   UNL     1       4.700   3.245   1.620  0.00  0.00    +0.007 C 
ATOM     26  C   UNL     1       2.455   3.945   0.962  0.00  0.00    +0.039 C 
ENDBRANCH  23  24
ENDBRANCH   3  23
TORSDOF 6
