REMARK  Name = ZINC22146431
REMARK  5 active torsions:
REMARK  status: ('A' for Active; 'I' for Inactive)
REMARK    1  A    between atoms: C_3  and  N_25
REMARK    2  A    between atoms: C_6  and  C_7
REMARK    3  A    between atoms: C_10  and  C_20
REMARK    4  A    between atoms: C_10  and  O_24
REMARK    5  A    between atoms: C_12  and  C_14
REMARK                            x       y       z     vdW  Elec       q    Type
REMARK                         _______ _______ _______ _____ _____    ______ ____
ROOT
ATOM      1  C   UNL     1      -0.353   6.614  -0.108  0.00  0.00    +0.269 C 
ATOM      2  O   UNL     1      -0.040   7.781   0.024  0.00  0.00    -0.268 OA
ATOM      3  N   UNL     1       0.590   5.652  -0.051  0.00  0.00    -0.148 N 
ATOM      4  C   UNL     1       2.041   5.879   0.050  0.00  0.00    +0.257 C 
ATOM      5  C   UNL     1       2.621   4.450   0.085  0.00  0.00    +0.119 C 
ATOM      6  C   UNL     1       1.400   3.563  -0.011  0.00  0.00    +0.045 C 
ATOM      7  N   UNL     1       0.353   4.279  -0.076  0.00  0.00    -0.183 NA
ENDROOT
BRANCH   1  13
ATOM      8  C   UNL     1      -2.142   4.904  -0.375  0.00  0.00    +0.015 A 
ATOM      9  C   UNL     1      -3.461   4.567  -0.580  0.00  0.00    +0.023 A 
ATOM     10  C   UNL     1      -4.417   5.564  -0.752  0.00  0.00    +0.025 A 
ATOM     11  C   UNL     1      -4.043   6.905  -0.714  0.00  0.00    +0.023 A 
ATOM     12  C   UNL     1      -2.727   7.248  -0.505  0.00  0.00    +0.015 A 
ATOM     13  C   UNL     1      -1.765   6.249  -0.331  0.00  0.00    +0.039 A 
BRANCH  10  14
ATOM     14  N   UNL     1      -5.747   5.221  -0.964  0.00  0.00    -0.358 N 
ATOM     15  H   UNL     1      -6.504   6.008  -1.100  0.00  0.00    +0.142 HD
ATOM     16  H   UNL     1      -6.044   4.162  -0.994  0.00  0.00    +0.142 HD
ENDBRANCH  10  14
ENDBRANCH   1  13
BRANCH   6  17
ATOM     17  C   UNL     1       1.421   2.057  -0.020  0.00  0.00    +0.035 C 
ATOM     18  C   UNL     1      -0.014   1.526   0.004  0.00  0.00    +0.009 C 
ATOM     19  C   UNL     1       0.008  -0.004  -0.005  0.00  0.00    +0.001 C 
ATOM     20  C   UNL     1       0.713  -0.496  -1.271  0.00  0.00    +0.000 C 
ATOM     21  C   UNL     1       2.147   0.035  -1.295  0.00  0.00    +0.001 C 
ATOM     22  C   UNL     1       2.126   1.565  -1.286  0.00  0.00    +0.009 C 
ENDBRANCH   6  17
BRANCH   4  23
ATOM     23  C   UNL     1       2.554   6.645  -1.172  0.00  0.00    +0.438 C 
ATOM     24  F   UNL     1       1.931   7.896  -1.232  0.00  0.00    -0.166 F 
ATOM     25  F   UNL     1       3.938   6.817  -1.067  0.00  0.00    -0.166 F 
ATOM     26  F   UNL     1       2.260   5.921  -2.333  0.00  0.00    -0.166 F 
ENDBRANCH   4  23
BRANCH   4  27
ATOM     27  O   UNL     1       2.361   6.577   1.255  0.00  0.00    -0.363 OA
ATOM     28  H   UNL     1       3.407   6.827   1.485  0.00  0.00    +0.212 HD
ENDBRANCH   4  27
TORSDOF 5
