REMARK  Name = ZINC36576220
REMARK  9 active torsions:
REMARK  status: ('A' for Active; 'I' for Inactive)
REMARK    1  A    between atoms: C_1  and  C_2
REMARK    2  A    between atoms: C_2  and  C_3
REMARK    3  A    between atoms: C_3  and  C_5
REMARK    4  A    between atoms: C_3  and  C_6
REMARK    5  A    between atoms: C_6  and  C_8
REMARK    6  A    between atoms: C_6  and  N_12
REMARK    7  A    between atoms: C_8  and  O_10
REMARK    8  A    between atoms: O_10  and  C_11
REMARK    9  A    between atoms: C_24  and  C_26
REMARK                            x       y       z     vdW  Elec       q    Type
REMARK                         _______ _______ _______ _____ _____    ______ ____
ROOT
ATOM      1  N   UNL     1      -2.393  -2.515  -1.707  0.00  0.00    -0.286 N 
ATOM      2  C   UNL     1      -3.481  -1.922  -1.177  0.00  0.00    +0.304 C 
ATOM      3  O   UNL     1      -3.572  -0.710  -1.173  0.00  0.00    -0.253 OA
ATOM      4  N   UNL     1      -4.469  -2.673  -0.652  0.00  0.00    -0.273 N 
ATOM      5  C   UNL     1      -5.713  -2.053  -0.172  0.00  0.00    +0.116 C 
ATOM      6  C   UNL     1      -6.884  -2.546  -1.032  0.00  0.00    +0.074 C 
ATOM      7  C   UNL     1      -6.760  -4.036  -1.213  0.00  0.00    +0.040 A 
ATOM      8  C   UNL     1      -5.632  -4.747  -1.003  0.00  0.00    +0.062 A 
ATOM      9  N   UNL     1      -5.894  -6.029  -1.265  0.00  0.00    -0.348 N 
ATOM     10  C   UNL     1      -7.146  -6.144  -1.627  0.00  0.00    +0.171 A 
ATOM     11  N   UNL     1      -7.720  -4.919  -1.605  0.00  0.00    -0.349 N 
ATOM     12  H   UNL     1      -8.640  -4.710  -1.828  0.00  0.00    +0.166 HD
ATOM     13  C   UNL     1      -4.331  -4.137  -0.550  0.00  0.00    +0.159 C 
ATOM     14  H   UNL     1      -2.345  -3.482  -1.760  0.00  0.00    +0.151 HD
ATOM     15  H   UNL     1      -5.259  -6.759  -1.198  0.00  0.00    +0.167 HD
ENDROOT
BRANCH  13  16
ATOM     16  C   UNL     1      -4.058  -4.528   0.880  0.00  0.00    +0.014 A 
ATOM     17  C   UNL     1      -5.062  -5.087   1.648  0.00  0.00    +0.010 A 
ATOM     18  C   UNL     1      -4.811  -5.446   2.959  0.00  0.00    +0.016 A 
ATOM     19  C   UNL     1      -3.555  -5.247   3.504  0.00  0.00    +0.021 A 
ATOM     20  C   UNL     1      -2.550  -4.688   2.737  0.00  0.00    +0.054 A 
ATOM     21  C   UNL     1      -2.799  -4.333   1.422  0.00  0.00    +0.130 A 
ATOM     22  F   UNL     1      -1.815  -3.792   0.670  0.00  0.00    -0.205 F 
ATOM     23 BR   UNL     1      -3.215  -5.738   5.298  0.00  0.00    -0.050 Br
ENDBRANCH  13  16
BRANCH   1  24
ATOM     24  C   UNL     1      -1.282  -1.698  -2.201  0.00  0.00    +0.186 C 
BRANCH  24  25
ATOM     25  C   UNL     1      -1.567  -1.267  -3.642  0.00  0.00    +0.017 C 
ATOM     26  C   UNL     1      -1.877  -2.501  -4.491  0.00  0.00    +0.010 C 
BRANCH  25  28
ATOM     27  C   UNL     1      -2.406   0.977  -2.934  0.00  0.00    +0.004 C 
ATOM     28  C   UNL     1      -2.768  -0.319  -3.662  0.00  0.00    +0.002 C 
ENDBRANCH  25  28
ENDBRANCH  24  25
BRANCH  24  29
ATOM     29  C   UNL     1      -0.009  -2.504  -2.161  0.00  0.00    +0.328 C 
ATOM     30  O   UNL     1      -0.059  -3.710  -2.113  0.00  0.00    -0.249 OA
BRANCH  29  31
ATOM     31  O   UNL     1       1.180  -1.882  -2.179  0.00  0.00    -0.467 OA
ATOM     32  C   UNL     1       2.344  -2.708  -2.252  0.00  0.00    +0.280 C 
ENDBRANCH  29  31
ENDBRANCH  24  29
ENDBRANCH   1  24
TORSDOF 6
