REMARK  Name = ZINC22835967
REMARK  7 active torsions:
REMARK  status: ('A' for Active; 'I' for Inactive)
REMARK    1  A    between atoms: C_1  and  C_2
REMARK    2  A    between atoms: C_9  and  C_11
REMARK    3  A    between atoms: C_11  and  O_13
REMARK    4  A    between atoms: O_13  and  C_14
REMARK    5  A    between atoms: C_14  and  C_15
REMARK    6  A    between atoms: C_17  and  O_18
REMARK    7  A    between atoms: C_27  and  C_29
REMARK                            x       y       z     vdW  Elec       q    Type
REMARK                         _______ _______ _______ _____ _____    ______ ____
ROOT
ATOM      1  C   UNL     1      -0.848  -6.301   0.341  0.00  0.00    +0.007 A 
ATOM      2  C   UNL     1      -2.014  -6.998   0.339  0.00  0.00    +0.095 A 
ATOM      3  C   UNL     1      -3.242  -6.309   0.254  0.00  0.00    +0.285 A 
ATOM      4  O   UNL     1      -3.295  -4.970   0.176  0.00  0.00    -0.425 OA
ATOM      5  C   UNL     1      -2.173  -4.219   0.173  0.00  0.00    +0.141 A 
ATOM      6  C   UNL     1      -0.913  -4.841   0.254  0.00  0.00    +0.024 A 
ATOM      7  C   UNL     1       0.252  -4.067   0.252  0.00  0.00    +0.014 A 
ATOM      8  C   UNL     1       0.164  -2.708   0.166  0.00  0.00    +0.024 A 
ATOM      9  C   UNL     1      -1.081  -2.085   0.091  0.00  0.00    +0.037 A 
ATOM     10  C   UNL     1      -2.247  -2.837   0.092  0.00  0.00    +0.070 A 
ATOM     11  N   UNL     1      -1.156  -0.694   0.009  0.00  0.00    -0.286 N 
ATOM     12  C   UNL     1      -2.168  -0.037   0.609  0.00  0.00    +0.214 C 
ATOM     13  O   UNL     1      -3.058  -0.658   1.150  0.00  0.00    -0.276 OA
ATOM     14  C   UNL     1      -2.193   1.470   0.609  0.00  0.00    +0.109 C 
ATOM     15  H   UNL     1      -0.388  -0.134  -0.545  0.00  0.00    +0.155 HD
ENDROOT
BRANCH   3  16
ATOM     16  O   UNL     1      -4.280  -6.946   0.253  0.00  0.00    -0.480 OA
ATOM     17  H   UNL     1      -5.246  -6.423   0.188  0.00  0.00    +0.295 HD
ENDBRANCH   3  16
BRANCH   1  18
ATOM     18  C   UNL     1       0.478  -7.013   0.430  0.00  0.00    +0.269 C 
BRANCH  18  19
ATOM     19  O   UNL     1       0.255  -8.445   0.505  0.00  0.00    -0.456 OA
BRANCH  19  20
ATOM     20  C   UNL     1       1.347  -9.232   0.591  0.00  0.00    +0.346 C 
ATOM     21  O   UNL     1       2.456  -8.733   0.602  0.00  0.00    -0.244 OA
BRANCH  20  29
ATOM     22  C   UNL     1       2.983 -16.624   0.776  0.00  0.00    +0.008 C 
ATOM     23  C   UNL     1       2.060 -15.433   0.512  0.00  0.00    -0.009 C 
ATOM     24  C   UNL     1       0.769 -15.602   1.317  0.00  0.00    +0.009 C 
ATOM     25  C   UNL     1      -0.250 -14.556   0.843  0.00  0.00    +0.043 C 
ATOM     26  C   UNL     1       0.432 -13.224   0.789  0.00  0.00    -0.006 A 
ATOM     27  C   UNL     1       1.777 -12.984   0.824  0.00  0.00    -0.036 A 
ATOM     28  C   UNL     1       2.176 -11.660   0.761  0.00  0.00    +0.026 A 
ATOM     29  C   UNL     1       1.198 -10.686   0.669  0.00  0.00    +0.097 A 
ATOM     30  S   UNL     1      -0.294 -11.666   0.680  0.00  0.00    -0.086 S 
ATOM     31  C   UNL     1       2.767 -14.142   0.926  0.00  0.00    +0.039 C 
ENDBRANCH  20  29
ENDBRANCH  19  20
ENDBRANCH  18  19
ENDBRANCH   1  18
TORSDOF 5
