REMARK  Name = ZINC39683490
REMARK  9 active torsions:
REMARK  status: ('A' for Active; 'I' for Inactive)
REMARK    1  A    between atoms: C_1  and  C_2
REMARK    2  A    between atoms: C_2  and  C_3
REMARK    3  A    between atoms: C_3  and  C_4
REMARK    4  A    between atoms: C_4  and  N_5
REMARK    5  A    between atoms: C_8  and  C_11
REMARK    6  A    between atoms: C_11  and  N_12
REMARK    7  A    between atoms: C_13  and  C_15
REMARK    8  A    between atoms: C_26  and  C_28
REMARK    9  A    between atoms: C_28  and  C_34
REMARK                            x       y       z     vdW  Elec       q    Type
REMARK                         _______ _______ _______ _____ _____    ______ ____
ROOT
ATOM      1  C   UNL     1       3.271  -8.648   6.864  0.00  0.00    +0.100 C 
ATOM      2  C   UNL     1       3.999  -8.881   5.521  0.00  0.00    +0.121 C 
ATOM      3  N   UNL     1       5.427  -9.024   5.889  0.00  0.00    -0.300 N 
ATOM      4  C   UNL     1       5.408  -9.811   7.145  0.00  0.00    +0.115 C 
ATOM      5  C   UNL     1       4.197  -9.262   7.927  0.00  0.00    -0.004 C 
ATOM      6  C   UNL     1       4.650  -8.192   8.915  0.00  0.00    -0.010 C 
ATOM      7  C   UNL     1       5.524  -8.838   9.995  0.00  0.00    -0.082 C 
ATOM      8  N   UNL     1       4.757  -9.880  10.688  0.00  0.00    +0.379 N 
ATOM      9  C   UNL     1       4.404 -10.951   9.749  0.00  0.00    -0.082 C 
ATOM     10  C   UNL     1       3.484 -10.395   8.659  0.00  0.00    -0.010 C 
ATOM     11  C   UNL     1       6.502  -8.546   5.230  0.00  0.00    +0.222 C 
ATOM     12  O   UNL     1       6.351  -7.848   4.250  0.00  0.00    -0.275 OA
ATOM     13  H   UNL     1       5.314 -10.262  11.438  0.00  0.00    -0.086 HD
ATOM     14  H   UNL     1       3.914  -9.478  11.069  0.00  0.00    -0.086 HD
ENDROOT
BRANCH  11  15
ATOM     15  C   UNL     1       7.890  -8.880   5.711  0.00  0.00    +0.044 C 
ATOM     16  C   UNL     1       8.131  -8.220   7.071  0.00  0.00    +0.016 C 
ATOM     17  C   UNL     1       7.989  -6.703   6.933  0.00  0.00    +0.001 C 
ATOM     18  C   UNL     1       9.016  -6.184   5.926  0.00  0.00    +0.000 C 
ATOM     19  C   UNL     1       8.776  -6.843   4.566  0.00  0.00    +0.001 C 
ATOM     20  C   UNL     1       8.918  -8.361   4.703  0.00  0.00    +0.016 C 
ATOM     21  C   UNL     1       8.032 -10.397   5.848  0.00  0.00    +0.021 C 
ENDBRANCH  11  15
BRANCH   1  23
ATOM     22  N   UNL     1       2.042  -6.734   7.836  0.00  0.00    -0.315 N 
ATOM     23  C   UNL     1       3.092  -7.173   7.114  0.00  0.00    +0.218 C 
ATOM     24  O   UNL     1       3.892  -6.380   6.664  0.00  0.00    -0.275 OA
ATOM     25  H   UNL     1       1.402  -7.368   8.196  0.00  0.00    +0.149 HD
BRANCH  22  26
ATOM     26  C   UNL     1       1.868  -5.300   8.079  0.00  0.00    +0.107 C 
BRANCH  26  30
ATOM     27  N   UNL     1      -1.952  -3.753   9.218  0.00  0.00    +0.380 N 
ATOM     28  C   UNL     1      -0.808  -3.359  10.050  0.00  0.00    -0.079 C 
ATOM     29  C   UNL     1       0.493  -3.591   9.279  0.00  0.00    -0.014 C 
ATOM     30  C   UNL     1       0.609  -5.074   8.919  0.00  0.00    +0.003 C 
ATOM     31  C   UNL     1      -0.625  -5.492   8.114  0.00  0.00    -0.014 C 
ATOM     32  C   UNL     1      -1.885  -5.190   8.929  0.00  0.00    -0.079 C 
ATOM     33  H   UNL     1      -1.929  -3.235   8.353  0.00  0.00    -0.082 HD
BRANCH  27  34
ATOM     34  C   UNL     1      -3.201  -3.456   9.932  0.00  0.00    -0.079 C 
BRANCH  34  35
ATOM     35  C   UNL     1      -3.331  -1.944  10.125  0.00  0.00    -0.019 C 
BRANCH  35  37
ATOM     36  C   UNL     1      -4.763  -0.123  11.061  0.00  0.00    +0.004 C 
ATOM     37  C   UNL     1      -4.632  -1.635  10.869  0.00  0.00    -0.005 C 
ENDBRANCH  35  37
ENDBRANCH  34  35
ENDBRANCH  27  34
ENDBRANCH  26  30
ENDBRANCH  22  26
ENDBRANCH   1  23
TORSDOF 7
