REMARK  Name = ZINC63115541
REMARK  7 active torsions:
REMARK  status: ('A' for Active; 'I' for Inactive)
REMARK    1  A    between atoms: C_1  and  C_2
REMARK    2  A    between atoms: C_2  and  C_3
REMARK    3  A    between atoms: C_3  and  N_4
REMARK    4  A    between atoms: N_4  and  C_5
REMARK    5  A    between atoms: N_4  and  S_12
REMARK    6  A    between atoms: C_8  and  N_11
REMARK    7  A    between atoms: S_12  and  C_15
REMARK                            x       y       z     vdW  Elec       q    Type
REMARK                         _______ _______ _______ _____ _____    ______ ____
ROOT
ATOM      1  N   UNL     1       0.689  -1.816   1.331  0.00  0.00    -0.203 N 
ENDROOT
BRANCH   1   2
ATOM      2  C   UNL     1       1.789  -2.408   0.698  0.00  0.00    +0.051 A 
ATOM      3  C   UNL     1       2.554  -1.672  -0.197  0.00  0.00    +0.026 A 
ATOM      4  C   UNL     1       3.638  -2.256  -0.821  0.00  0.00    +0.024 A 
ATOM      5  C   UNL     1       3.964  -3.579  -0.553  0.00  0.00    +0.025 A 
ATOM      6  C   UNL     1       3.200  -4.314   0.343  0.00  0.00    +0.024 A 
ATOM      7  C   UNL     1       2.118  -3.729   0.971  0.00  0.00    +0.026 A 
BRANCH   5   8
ATOM      8  N   UNL     1       5.064  -4.171  -1.186  0.00  0.00    -0.358 N 
ATOM      9  H   UNL     1       5.598  -3.658  -1.812  0.00  0.00    +0.142 HD
ATOM     10  H   UNL     1       5.292  -5.095  -0.998  0.00  0.00    +0.142 HD
ENDBRANCH   5   8
ENDBRANCH   1   2
BRANCH   1  11
ATOM     11  S   UNL     1      -0.586  -2.751   1.823  0.00  0.00    +0.076 S 
ATOM     12  O   UNL     1      -1.751  -2.196   1.228  0.00  0.00    -0.150 OA
ATOM     13  O   UNL     1      -0.198  -4.104   1.622  0.00  0.00    -0.150 OA
BRANCH  11  14
ATOM     14  C   UNL     1      -0.754  -2.529   3.563  0.00  0.00    +0.123 A 
ATOM     15  C   UNL     1      -1.903  -1.961   4.079  0.00  0.00    +0.030 A 
ATOM     16  C   UNL     1      -2.035  -1.787   5.444  0.00  0.00    +0.002 A 
ATOM     17  C   UNL     1      -1.018  -2.181   6.293  0.00  0.00    +0.001 A 
ATOM     18  C   UNL     1       0.131  -2.749   5.778  0.00  0.00    +0.017 A 
ATOM     19  C   UNL     1       0.262  -2.928   4.412  0.00  0.00    +0.044 A 
ATOM     20 BR   UNL     1       1.832  -3.712   3.707  0.00  0.00    -0.048 Br
ENDBRANCH  11  14
ENDBRANCH   1  11
BRANCH   1  21
ATOM     21  C   UNL     1       0.665  -0.368   1.557  0.00  0.00    +0.131 C 
BRANCH  21  23
ATOM     22  C   UNL     1      -0.035   1.830   0.598  0.00  0.00    +0.005 C 
ATOM     23  C   UNL     1       0.105   0.332   0.318  0.00  0.00    +0.017 C 
ENDBRANCH  21  23
ENDBRANCH   1  21
TORSDOF 6
