REMARK  Name = ZINC36156655
REMARK  13 active torsions:
REMARK  status: ('A' for Active; 'I' for Inactive)
REMARK    1  A    between atoms: C_1  and  C_2
REMARK    2  A    between atoms: C_2  and  C_3
REMARK    3  A    between atoms: C_2  and  C_4
REMARK    4  A    between atoms: C_4  and  O_5
REMARK    5  A    between atoms: O_5  and  C_6
REMARK    6  A    between atoms: C_6  and  C_7
REMARK    7  A    between atoms: C_7  and  C_9
REMARK    8  A    between atoms: C_7  and  O_34
REMARK    9  A    between atoms: C_9  and  N_10
REMARK   10  A    between atoms: N_10  and  C_11
REMARK   11  A    between atoms: N_10  and  C_18
REMARK   12  A    between atoms: C_11  and  C_12
REMARK   13  A    between atoms: C_18  and  C_19
REMARK                            x       y       z     vdW  Elec       q    Type
REMARK                         _______ _______ _______ _____ _____    ______ ____
ROOT
ATOM      1  N   UNL     1      -3.903  -6.260  -0.663  0.00  0.00    +0.389 N 
ATOM      2  H   UNL     1      -3.437  -6.734   0.096  0.00  0.00    -0.081 HD
ENDROOT
BRANCH   1   3
ATOM      3  C   UNL     1      -4.100  -4.848  -0.311  0.00  0.00    -0.044 C 
BRANCH   3   4
ATOM      4  C   UNL     1      -2.757  -4.229   0.084  0.00  0.00    +0.124 C 
BRANCH   4   5
ATOM      5  O   UNL     1      -2.247  -4.896   1.240  0.00  0.00    -0.391 OA
ATOM      6  H   UNL     1      -2.825  -4.841   2.013  0.00  0.00    +0.210 HD
ENDBRANCH   4   5
BRANCH   4   7
ATOM      7  C   UNL     1      -2.953  -2.744   0.396  0.00  0.00    +0.189 C 
BRANCH   7   8
ATOM      8  O   UNL     1      -1.683  -2.140   0.651  0.00  0.00    -0.377 OA
BRANCH   8   9
ATOM      9  C   UNL     1      -1.753  -0.746   0.955  0.00  0.00    +0.163 C 
BRANCH   9  11
ATOM     10  C   UNL     1      -0.405   1.308   1.412  0.00  0.00    +0.009 C 
ATOM     11  C   UNL     1      -0.344  -0.207   1.209  0.00  0.00    +0.009 C 
ATOM     12  C   UNL     1       0.236  -0.866   2.462  0.00  0.00    +0.009 C 
ENDBRANCH   9  11
ENDBRANCH   8   9
ENDBRANCH   7   8
ENDBRANCH   4   7
ENDBRANCH   3   4
ENDBRANCH   1   3
BRANCH   1  13
ATOM     13  C   UNL     1      -3.081  -6.353  -1.877  0.00  0.00    -0.042 C 
BRANCH  13  14
ATOM     14  C   UNL     1      -3.756  -5.607  -2.999  0.00  0.00    -0.064 A 
ATOM     15  C   UNL     1      -4.663  -6.259  -3.814  0.00  0.00    +0.002 A 
ATOM     16  C   UNL     1      -5.282  -5.575  -4.843  0.00  0.00    +0.000 A 
ATOM     17  C   UNL     1      -4.995  -4.240  -5.058  0.00  0.00    +0.000 A 
ATOM     18  C   UNL     1      -4.089  -3.588  -4.242  0.00  0.00    +0.000 A 
ATOM     19  C   UNL     1      -3.473  -4.271  -3.210  0.00  0.00    +0.002 A 
ENDBRANCH  13  14
ENDBRANCH   1  13
BRANCH   1  20
ATOM     20  C   UNL     1      -5.208  -6.891  -0.906  0.00  0.00    -0.003 C 
BRANCH  20  21
ATOM     21  C   UNL     1      -5.016  -8.366  -1.146  0.00  0.00    +0.094 A 
ATOM     22  N   UNL     1      -6.098  -9.147  -1.399  0.00  0.00    -0.312 N 
ATOM     23  H   UNL     1      -6.980  -8.743  -1.421  0.00  0.00    +0.170 HD
ATOM     24  C   UNL     1      -5.972 -10.469  -1.619  0.00  0.00    +0.260 A 
ATOM     25  O   UNL     1      -6.953 -11.156  -1.845  0.00  0.00    -0.267 OA
ATOM     26  C   UNL     1      -4.664 -11.055  -1.584  0.00  0.00    +0.075 A 
ATOM     27  C   UNL     1      -4.290 -12.453  -1.790  0.00  0.00    -0.023 A 
ATOM     28  C   UNL     1      -2.977 -12.754  -1.704  0.00  0.00    -0.004 A 
ATOM     29  S   UNL     1      -2.174 -11.214  -1.349  0.00  0.00    -0.073 S 
ATOM     30  C   UNL     1      -3.608 -10.169  -1.315  0.00  0.00    +0.116 A 
ATOM     31  N   UNL     1      -3.812  -8.870  -1.113  0.00  0.00    -0.229 NA
ATOM     32  C   UNL     1      -2.341 -14.101  -1.872  0.00  0.00    +0.043 C 
ATOM     33  C   UNL     1      -3.441 -15.169  -1.791  0.00  0.00    +0.005 C 
ATOM     34  C   UNL     1      -4.603 -14.746  -2.695  0.00  0.00    +0.005 C 
ATOM     35  C   UNL     1      -5.320 -13.539  -2.089  0.00  0.00    +0.037 C 
ENDBRANCH  20  21
ENDBRANCH   1  20
TORSDOF 11
