REMARK  Name = ZINC01691354
REMARK  6 active torsions:
REMARK  status: ('A' for Active; 'I' for Inactive)
REMARK    1  A    between atoms: C_3  and  C_19
REMARK    2  A    between atoms: C_6  and  C_7
REMARK    3  A    between atoms: N_8  and  C_9
REMARK    4  A    between atoms: C_12  and  C_15
REMARK    5  A    between atoms: N_20  and  C_21
REMARK    6  A    between atoms: C_24  and  C_27
REMARK                            x       y       z     vdW  Elec       q    Type
REMARK                         _______ _______ _______ _____ _____    ______ ____
ROOT
ATOM      1  C   UNL     1      -0.013   1.076   0.008  0.00  0.00    +0.010 A 
ATOM      2  C   UNL     1       1.161   1.775   0.001  0.00  0.00    +0.010 A 
ATOM      3  C   UNL     1       1.141   3.174   0.008  0.00  0.00    -0.007 A 
ATOM      4  C   UNL     1      -0.080   3.858   0.023  0.00  0.00    +0.010 A 
ATOM      5  C   UNL     1      -1.253   3.159   0.030  0.00  0.00    +0.010 A 
ATOM      6  C   UNL     1      -1.234   1.759   0.018  0.00  0.00    -0.007 A 
ENDROOT
BRANCH   6   7
ATOM      7  C   UNL     1      -2.498   1.006   0.019  0.00  0.00    +0.119 C 
ATOM      8  N   UNL     1      -3.636   1.643   0.028  0.00  0.00    -0.255 NA
BRANCH   8   9
ATOM      9  C   UNL     1      -4.810   0.944   0.030  0.00  0.00    +0.064 A 
ATOM     10  C   UNL     1      -4.979  -0.141  -0.836  0.00  0.00    +0.028 A 
ATOM     11  C   UNL     1      -6.155  -0.846  -0.829  0.00  0.00    +0.013 A 
ATOM     12  C   UNL     1      -7.188  -0.472   0.034  0.00  0.00    +0.013 A 
ATOM     13  C   UNL     1      -7.022   0.615   0.894  0.00  0.00    +0.013 A 
ATOM     14  C   UNL     1      -5.845   1.317   0.893  0.00  0.00    +0.028 A 
BRANCH  12  15
ATOM     15  C   UNL     1      -8.459  -1.230   0.036  0.00  0.00    +0.100 C 
ATOM     16  C   UNL     1     -10.566  -1.863   0.580  0.00  0.00    +0.132 C 
ATOM     17  C   UNL     1     -10.044  -2.811  -0.517  0.00  0.00    +0.124 C 
ATOM     18  N   UNL     1      -8.688  -2.303  -0.787  0.00  0.00    -0.329 N 
ATOM     19  H   UNL     1      -8.064  -2.666  -1.434  0.00  0.00    +0.147 HD
ATOM     20  N   UNL     1      -9.451  -0.931   0.813  0.00  0.00    -0.371 N 
ATOM     21  H   UNL     1      -9.459  -0.159   1.489  0.00  0.00    +0.161 HD
ENDBRANCH  12  15
ENDBRANCH   8   9
ENDBRANCH   6   7
BRANCH   3  22
ATOM     22  C   UNL     1       2.405   3.927  -0.001  0.00  0.00    +0.119 C 
ATOM     23  N   UNL     1       2.388   5.231   0.006  0.00  0.00    -0.255 NA
BRANCH  23  24
ATOM     24  C   UNL     1       3.561   5.930  -0.002  0.00  0.00    +0.064 A 
ATOM     25  C   UNL     1       4.607   5.552   0.847  0.00  0.00    +0.028 A 
ATOM     26  C   UNL     1       5.786   6.250   0.834  0.00  0.00    +0.013 A 
ATOM     27  C   UNL     1       5.940   7.347  -0.018  0.00  0.00    +0.013 A 
ATOM     28  C   UNL     1       4.894   7.729  -0.861  0.00  0.00    +0.013 A 
ATOM     29  C   UNL     1       3.716   7.028  -0.854  0.00  0.00    +0.028 A 
BRANCH  27  30
ATOM     30  C   UNL     1       7.210   8.103  -0.027  0.00  0.00    +0.100 C 
ATOM     31  C   UNL     1       8.764   9.661  -0.572  0.00  0.00    +0.132 C 
ATOM     32  C   UNL     1       9.363   8.737   0.508  0.00  0.00    +0.124 C 
ATOM     33  N   UNL     1       8.273   7.784   0.779  0.00  0.00    -0.329 N 
ATOM     34  H   UNL     1       8.303   7.054   1.417  0.00  0.00    +0.147 HD
ATOM     35  N   UNL     1       7.411   9.128  -0.794  0.00  0.00    -0.371 N 
ATOM     36  H   UNL     1       6.727   9.510  -1.458  0.00  0.00    +0.161 HD
ENDBRANCH  27  30
ENDBRANCH  23  24
ENDBRANCH   3  22
TORSDOF 6
