REMARK  Name = ZINC28509143
REMARK  9 active torsions:
REMARK  status: ('A' for Active; 'I' for Inactive)
REMARK    1  A    between atoms: C_1  and  C_2
REMARK    2  A    between atoms: C_4  and  C_31
REMARK    3  A    between atoms: C_7  and  C_12
REMARK    4  A    between atoms: N_14  and  C_15
REMARK    5  A    between atoms: C_15  and  C_17
REMARK    6  A    between atoms: C_15  and  C_21
REMARK    7  A    between atoms: C_17  and  C_18
REMARK    8  A    between atoms: C_18  and  S_19
REMARK    9  A    between atoms: S_19  and  C_20
REMARK                            x       y       z     vdW  Elec       q    Type
REMARK                         _______ _______ _______ _____ _____    ______ ____
ROOT
ATOM      1  C   UNL     1       0.088  -5.558   2.350  0.00  0.00    +0.261 C 
ATOM      2  O   UNL     1       0.099  -6.611   1.742  0.00  0.00    -0.269 OA
ATOM      3  N   UNL     1       0.095  -5.558   3.698  0.00  0.00    -0.300 N 
ATOM      4  H   UNL     1       0.086  -4.718   4.183  0.00  0.00    +0.150 HD
ENDROOT
BRANCH   1  11
ATOM      5  C   UNL     1      -0.018   1.503   0.010  0.00  0.00    +0.044 C 
ATOM      6  C   UNL     1       0.002  -0.004   0.002  0.00  0.00    -0.048 A 
ATOM      7  C   UNL     1       0.006  -0.685  -1.209  0.00  0.00    +0.007 A 
ATOM      8  C   UNL     1       0.024  -2.049  -1.239  0.00  0.00    -0.041 A 
ATOM      9  C   UNL     1       0.040  -2.772  -0.039  0.00  0.00    +0.003 A 
ATOM     10  C   UNL     1       0.060  -4.156   0.263  0.00  0.00    +0.041 A 
ATOM     11  C   UNL     1       0.068  -4.284   1.615  0.00  0.00    +0.103 A 
ATOM     12  N   UNL     1       0.053  -3.028   2.189  0.00  0.00    -0.351 N 
ATOM     13  H   UNL     1       0.056  -2.842   3.142  0.00  0.00    +0.166 HD
ATOM     14  C   UNL     1       0.036  -2.084   1.190  0.00  0.00    +0.048 A 
ATOM     15  C   UNL     1       0.023  -0.692   1.194  0.00  0.00    +0.029 A 
ATOM     16  C   UNL     1       0.027  -2.776  -2.559  0.00  0.00    +0.044 C 
ENDBRANCH   1  11
BRANCH   3  17
ATOM     17  C   UNL     1       0.115  -6.826   4.430  0.00  0.00    +0.140 C 
BRANCH  17  18
ATOM     18  C   UNL     1      -0.482  -6.625   5.800  0.00  0.00    +0.129 A 
ATOM     19  N   UNL     1      -1.055  -5.473   6.238  0.00  0.00    -0.340 N 
ATOM     20  H   UNL     1      -1.150  -4.649   5.734  0.00  0.00    +0.167 HD
ATOM     21  C   UNL     1      -1.476  -5.691   7.535  0.00  0.00    +0.066 A 
ATOM     22  C   UNL     1      -2.116  -4.910   8.488  0.00  0.00    +0.028 A 
ATOM     23  C   UNL     1      -2.405  -5.444   9.726  0.00  0.00    +0.002 A 
ATOM     24  C   UNL     1      -2.060  -6.754  10.024  0.00  0.00    +0.002 A 
ATOM     25  C   UNL     1      -1.429  -7.537   9.099  0.00  0.00    +0.030 A 
ATOM     26  C   UNL     1      -1.127  -7.018   7.838  0.00  0.00    +0.089 A 
ATOM     27  N   UNL     1      -0.529  -7.531   6.732  0.00  0.00    -0.231 NA
ENDBRANCH  17  18
BRANCH  17  28
ATOM     28  C   UNL     1       1.559  -7.312   4.570  0.00  0.00    +0.041 C 
BRANCH  28  29
ATOM     29  C   UNL     1       2.124  -7.635   3.185  0.00  0.00    +0.071 C 
BRANCH  29  30
ATOM     30  S   UNL     1       3.837  -8.210   3.350  0.00  0.00    -0.164 S 
ATOM     31  C   UNL     1       4.353  -8.546   1.644  0.00  0.00    +0.084 C 
ENDBRANCH  29  30
ENDBRANCH  28  29
ENDBRANCH  17  28
ENDBRANCH   3  17
TORSDOF 6
