REMARK  Name = ZINC31948660
REMARK  3 active torsions:
REMARK  status: ('A' for Active; 'I' for Inactive)
REMARK    1  A    between atoms: C_5  and  C_7
REMARK    2  A    between atoms: C_10  and  C_12
REMARK    3  A    between atoms: C_24  and  C_25
REMARK                            x       y       z     vdW  Elec       q    Type
REMARK                         _______ _______ _______ _____ _____    ______ ____
ROOT
ATOM      1  C   UNL     1       2.310  -5.359  -1.229  0.00  0.00    +0.063 C 
ATOM      2  C   UNL     1       3.115  -5.133  -2.336  0.00  0.00    +0.088 A 
ATOM      3  C   UNL     1       3.640  -6.252  -3.165  0.00  0.00    +0.160 A 
ATOM      4  N   UNL     1       2.984  -7.364  -3.371  0.00  0.00    -0.281 NA
ATOM      5  N   UNL     1       4.916  -5.993  -3.706  0.00  0.00    -0.212 N 
ATOM      6  C   UNL     1       5.282  -4.671  -3.877  0.00  0.00    +0.199 A 
ATOM      7  N   UNL     1       4.631  -3.614  -3.477  0.00  0.00    -0.182 NA
ATOM      8  C   UNL     1       3.491  -3.766  -2.761  0.00  0.00    +0.283 A 
ATOM      9  O   UNL     1       2.797  -2.806  -2.471  0.00  0.00    -0.265 OA
ATOM     10  S   UNL     1       6.823  -4.788  -4.746  0.00  0.00    -0.031 S 
ATOM     11  C   UNL     1       6.977  -6.568  -4.741  0.00  0.00    +0.101 A 
ATOM     12  N   UNL     1       5.827  -6.956  -4.089  0.00  0.00    -0.283 N 
ATOM     13  C   UNL     1       7.976  -7.344  -5.253  0.00  0.00    +0.102 C 
ATOM     14  H   UNL     1       3.373  -8.062  -3.920  0.00  0.00    +0.188 HD
ATOM     15  H   UNL     1       5.661  -7.893  -3.901  0.00  0.00    +0.188 HD
ENDROOT
BRANCH  13  16
ATOM     16  C   UNL     1       7.905  -8.742  -5.144  0.00  0.00    +0.242 C 
ATOM     17  O   UNL     1       6.907  -9.268  -4.682  0.00  0.00    -0.271 OA
ATOM     18  N   UNL     1       8.940  -9.503  -5.550  0.00  0.00    -0.298 N 
ATOM     19  C   UNL     1       8.941 -10.954  -5.314  0.00  0.00    +0.108 C 
ATOM     20  C   UNL     1       9.182 -11.670  -6.647  0.00  0.00    +0.019 C 
ATOM     21  C   UNL     1      10.468 -11.136  -7.283  0.00  0.00    +0.003 C 
ATOM     22  C   UNL     1      10.318  -9.638  -7.560  0.00  0.00    +0.019 C 
ATOM     23  C   UNL     1      10.087  -8.900  -6.243  0.00  0.00    +0.108 C 
ENDBRANCH  13  16
BRANCH   1  27
ATOM     24  C   UNL     1       2.124  -2.418   0.763  0.00  0.00    +0.137 A 
ATOM     25  C   UNL     1       0.894  -2.969   1.058  0.00  0.00    +0.050 A 
ATOM     26  C   UNL     1       0.798  -4.161   0.341  0.00  0.00    +0.050 A 
ATOM     27  C   UNL     1       1.982  -4.296  -0.371  0.00  0.00    +0.129 A 
ATOM     28  O   UNL     1       2.761  -3.227  -0.101  0.00  0.00    -0.455 OA
BRANCH  24  33
ATOM     29  C   UNL     1       2.367   1.191   1.765  0.00  0.00    +0.001 A 
ATOM     30  C   UNL     1       3.637   1.234   2.313  0.00  0.00    +0.001 A 
ATOM     31  C   UNL     1       4.417   0.092   2.360  0.00  0.00    +0.021 A 
ATOM     32  C   UNL     1       3.932  -1.100   1.858  0.00  0.00    +0.052 A 
ATOM     33  C   UNL     1       2.649  -1.149   1.302  0.00  0.00    +0.036 A 
ATOM     34  C   UNL     1       1.869   0.009   1.260  0.00  0.00    +0.013 A 
ATOM     35 CL   UNL     1       4.912  -2.532   1.915  0.00  0.00    -0.083 Cl
ENDBRANCH  24  33
ENDBRANCH   1  27
TORSDOF 3
