REMARK  Name = ZINC06369575
REMARK  6 active torsions:
REMARK  status: ('A' for Active; 'I' for Inactive)
REMARK    1  A    between atoms: C_1  and  C_2
REMARK    2  A    between atoms: N_11  and  C_15
REMARK    3  A    between atoms: C_15  and  C_16
REMARK    4  A    between atoms: C_16  and  O_18
REMARK    5  A    between atoms: O_18  and  C_19
REMARK    6  A    between atoms: C_19  and  C_20
REMARK                            x       y       z     vdW  Elec       q    Type
REMARK                         _______ _______ _______ _____ _____    ______ ____
ROOT
ATOM      1  C   UNL     1       2.907   1.266  -1.441  0.00  0.00    +0.326 C 
ATOM      2  O   UNL     1       2.166   1.555  -2.350  0.00  0.00    -0.249 OA
ENDROOT
BRANCH   1   3
ATOM      3  C   UNL     1       2.453   1.440  -0.014  0.00  0.00    +0.238 C 
BRANCH   3  13
ATOM      4  C   UNL     1      -0.712   3.293   2.520  0.00  0.00    +0.010 C 
ATOM      5  C   UNL     1      -1.213   4.053   1.290  0.00  0.00    +0.018 C 
ATOM      6  C   UNL     1      -2.743   4.086   1.300  0.00  0.00    +0.006 C 
ATOM      7  C   UNL     1      -3.244   4.828   0.059  0.00  0.00    +0.000 C 
ATOM      8  C   UNL     1      -2.767   4.099  -1.199  0.00  0.00    +0.003 C 
ATOM      9  C   UNL     1      -1.237   4.066  -1.219  0.00  0.00    +0.035 C 
ATOM     10  C   UNL     1      -0.725   3.352   0.027  0.00  0.00    +0.115 C 
ATOM     11  C   UNL     1       0.785   3.285   0.012  0.00  0.00    +0.247 C 
ATOM     12  O   UNL     1       1.561   4.217   0.010  0.00  0.00    -0.273 OA
ATOM     13  N   UNL     1       1.088   1.971   0.002  0.00  0.00    -0.213 N 
ATOM     14  C   UNL     1      -0.014   1.211   0.009  0.00  0.00    +0.310 C 
ATOM     15  O   UNL     1       0.002  -0.004   0.002  0.00  0.00    -0.252 OA
ATOM     16  N   UNL     1      -1.144   1.945   0.018  0.00  0.00    -0.285 N 
ATOM     17  H   UNL     1      -2.054   1.610   0.019  0.00  0.00    +0.151 HD
ENDBRANCH   3  13
ENDBRANCH   1   3
BRANCH   1  18
ATOM     18  O   UNL     1       4.135   0.789  -1.701  0.00  0.00    -0.454 OA
BRANCH  18  19
ATOM     19  C   UNL     1       4.505   0.648  -3.098  0.00  0.00    +0.327 C 
BRANCH  19  20
ATOM     20  C   UNL     1       5.906   0.103  -3.194  0.00  0.00    +0.254 C 
ATOM     21  O   UNL     1       6.532  -0.142  -2.184  0.00  0.00    -0.272 OA
ATOM     22  N   UNL     1       6.465  -0.112  -4.402  0.00  0.00    -0.294 N 
ATOM     23  C   UNL     1       7.832  -0.643  -4.530  0.00  0.00    +0.113 C 
ATOM     24  C   UNL     1       7.742  -2.013  -5.200  0.00  0.00    +0.054 C 
ATOM     25  C   UNL     1       6.851  -1.959  -6.413  0.00  0.00    -0.041 A 
ATOM     26  C   UNL     1       6.986  -2.971  -7.357  0.00  0.00    +0.004 A 
ATOM     27  C   UNL     1       6.196  -2.986  -8.487  0.00  0.00    +0.000 A 
ATOM     28  C   UNL     1       5.258  -1.988  -8.684  0.00  0.00    +0.000 A 
ATOM     29  C   UNL     1       5.124  -0.982  -7.750  0.00  0.00    +0.005 A 
ATOM     30  C   UNL     1       5.923  -0.963  -6.615  0.00  0.00    -0.027 A 
ATOM     31  C   UNL     1       5.732   0.168  -5.642  0.00  0.00    +0.143 C 
ENDBRANCH  19  20
ENDBRANCH  18  19
ENDBRANCH   1  18
TORSDOF 5
