REMARK  Name = ZINC22851547
REMARK  12 active torsions:
REMARK  status: ('A' for Active; 'I' for Inactive)
REMARK    1  A    between atoms: C_1  and  C_2
REMARK    2  A    between atoms: C_2  and  C_3
REMARK    3  A    between atoms: C_3  and  C_4
REMARK    4  A    between atoms: C_4  and  C_5
REMARK    5  A    between atoms: C_9  and  C_11
REMARK    6  A    between atoms: C_11  and  N_12
REMARK    7  A    between atoms: N_15  and  C_22
REMARK    8  A    between atoms: C_16  and  C_19
REMARK    9  A    between atoms: C_19  and  C_20
REMARK   10  A    between atoms: C_20  and  O_21
REMARK   11  A    between atoms: C_22  and  C_23
REMARK   12  A    between atoms: C_27  and  C_29
REMARK                            x       y       z     vdW  Elec       q    Type
REMARK                         _______ _______ _______ _____ _____    ______ ____
ROOT
ATOM      1  N   UNL     1      -6.705  -2.547  -1.919  0.00  0.00    -0.294 NA
ATOM      2  C   UNL     1      -7.379  -1.927  -0.769  0.00  0.00    +0.100 C 
ATOM      3  C   UNL     1      -8.057  -0.630  -1.217  0.00  0.00    +0.100 C 
ATOM      4  N   UNL     1      -9.018  -0.927  -2.289  0.00  0.00    -0.291 NA
ATOM      5  C   UNL     1      -8.345  -1.547  -3.439  0.00  0.00    +0.073 C 
ATOM      6  C   UNL     1      -7.666  -2.844  -2.991  0.00  0.00    +0.103 C 
ENDROOT
BRANCH   1   7
ATOM      7  C   UNL     1      -5.978  -3.756  -1.514  0.00  0.00    +0.139 C 
BRANCH   7  12
ATOM      8  C   UNL     1      -2.894  -2.735   0.073  0.00  0.00    +0.084 A 
ATOM      9  N   UNL     1      -3.641  -2.969   1.174  0.00  0.00    -0.350 N 
ATOM     10  H   UNL     1      -3.355  -2.867   2.095  0.00  0.00    +0.166 HD
ATOM     11  C   UNL     1      -4.876  -3.375   0.747  0.00  0.00    +0.106 A 
ATOM     12  C   UNL     1      -4.842  -3.377  -0.599  0.00  0.00    +0.047 A 
ATOM     13  N   UNL     1      -3.621  -2.976  -0.984  0.00  0.00    -0.346 N 
ATOM     14  H   UNL     1      -3.324  -2.882  -1.903  0.00  0.00    +0.167 HD
BRANCH   8  15
ATOM     15  C   UNL     1      -1.462  -2.268   0.066  0.00  0.00    +0.072 C 
BRANCH  15  16
ATOM     16  C   UNL     1      -1.424  -0.738   0.059  0.00  0.00    +0.007 C 
BRANCH  16  18
ATOM     17  C   UNL     1       0.068   1.266   0.045  0.00  0.00    +0.004 C 
ATOM     18  C   UNL     1       0.030  -0.263   0.052  0.00  0.00    -0.003 C 
ENDBRANCH  16  18
ENDBRANCH  15  16
ENDBRANCH   8  15
ENDBRANCH   7  12
ENDBRANCH   1   7
BRANCH   5  19
ATOM     19  C   UNL     1      -9.375  -1.859  -4.526  0.00  0.00    +0.048 C 
BRANCH  19  20
ATOM     20  C   UNL     1      -8.666  -2.457  -5.743  0.00  0.00    +0.157 C 
BRANCH  20  21
ATOM     21  O   UNL     1      -9.608  -2.634  -6.803  0.00  0.00    -0.395 OA
ATOM     22  H   UNL     1      -9.228  -3.010  -7.609  0.00  0.00    +0.209 HD
ENDBRANCH  20  21
ENDBRANCH  19  20
ENDBRANCH   5  19
BRANCH   4  23
ATOM     23  C   UNL     1      -9.746   0.282  -2.694  0.00  0.00    +0.140 C 
BRANCH  23  24
ATOM     24  C   UNL     1     -10.699   0.686  -1.599  0.00  0.00    +0.056 A 
ATOM     25  C   UNL     1     -10.310   1.634  -0.671  0.00  0.00    +0.024 A 
ATOM     26  C   UNL     1     -11.195   1.998   0.333  0.00  0.00    +0.004 A 
ATOM     27  C   UNL     1     -12.442   1.393   0.365  0.00  0.00    +0.023 A 
ATOM     28  C   UNL     1     -12.760   0.454  -0.597  0.00  0.00    +0.039 A 
ATOM     29  N   UNL     1     -11.895   0.135  -1.541  0.00  0.00    -0.255 NA
ATOM     30  C   UNL     1     -14.113  -0.210  -0.572  0.00  0.00    +0.065 C 
ENDBRANCH  23  24
ENDBRANCH   4  23
TORSDOF 10
