REMARK  Name = ZINC40705101
REMARK  8 active torsions:
REMARK  status: ('A' for Active; 'I' for Inactive)
REMARK    1  A    between atoms: C_1  and  C_2
REMARK    2  A    between atoms: C_7  and  N_8
REMARK    3  A    between atoms: C_10  and  N_24
REMARK    4  A    between atoms: C_11  and  N_15
REMARK    5  A    between atoms: N_15  and  C_16
REMARK    6  A    between atoms: C_16  and  C_17
REMARK    7  A    between atoms: C_17  and  C_18
REMARK    8  A    between atoms: C_18  and  N_19
REMARK                            x       y       z     vdW  Elec       q    Type
REMARK                         _______ _______ _______ _____ _____    ______ ____
ROOT
ATOM      1  N   UNL     1       0.025  -0.015   2.416  0.00  0.00    -0.298 N 
ATOM      2  C   UNL     1      -0.059  -0.716   3.614  0.00  0.00    +0.149 A 
ATOM      3  C   UNL     1      -0.168  -0.035   4.828  0.00  0.00    +0.105 A 
ATOM      4  C   UNL     1      -0.250  -0.788   6.001  0.00  0.00    +0.145 A 
ATOM      5  N   UNL     1      -0.221  -2.116   5.918  0.00  0.00    -0.219 NA
ATOM      6  C   UNL     1      -0.117  -2.720   4.751  0.00  0.00    +0.225 A 
ATOM      7  N   UNL     1      -0.042  -2.047   3.621  0.00  0.00    -0.219 NA
ATOM      8  H   UNL     1      -0.086   0.948   2.409  0.00  0.00    +0.154 HD
ENDROOT
BRANCH   1  15
ATOM      9  C   UNL     1      -0.936   1.127  -0.006  0.00  0.00    +0.045 C 
ATOM     10  C   UNL     1      -0.182  -0.177   0.016  0.00  0.00    -0.029 A 
ATOM     11  C   UNL     1       0.067  -0.852  -1.163  0.00  0.00    +0.006 A 
ATOM     12  C   UNL     1       0.759  -2.049  -1.144  0.00  0.00    +0.020 A 
ATOM     13  C   UNL     1       1.206  -2.575   0.056  0.00  0.00    +0.043 A 
ATOM     14  C   UNL     1       0.961  -1.904   1.239  0.00  0.00    +0.043 A 
ATOM     15  C   UNL     1       0.270  -0.699   1.222  0.00  0.00    +0.037 A 
ATOM     16 CL   UNL     1       2.074  -4.078   0.074  0.00  0.00    -0.083 Cl
ENDBRANCH   1  15
BRANCH   3  17
ATOM     17  N   UNL     1      -0.195   1.368   4.867  0.00  0.00    -0.353 N 
ATOM     18  H   UNL     1      -0.137   1.878   4.044  0.00  0.00    +0.143 HD
ATOM     19  H   UNL     1      -0.271   1.828   5.718  0.00  0.00    +0.143 HD
ENDBRANCH   3  17
BRANCH   4  20
ATOM     20  N   UNL     1      -0.360  -0.160   7.236  0.00  0.00    -0.327 N 
ATOM     21  H   UNL     1      -0.380   0.809   7.287  0.00  0.00    +0.148 HD
BRANCH  20  22
ATOM     22  C   UNL     1      -0.445  -0.961   8.460  0.00  0.00    +0.105 C 
BRANCH  22  23
ATOM     23  C   UNL     1      -0.557  -0.032   9.670  0.00  0.00    +0.040 C 
BRANCH  23  24
ATOM     24  C   UNL     1      -0.646  -0.868  10.948  0.00  0.00    +0.124 C 
BRANCH  24  25
ATOM     25  N   UNL     1      -0.754   0.022  12.107  0.00  0.00    -0.338 N 
ATOM     26  C   UNL     1       0.284   0.538  12.834  0.00  0.00    +0.104 A 
ATOM     27  C   UNL     1      -0.259   1.300  13.803  0.00  0.00    +0.101 A 
ATOM     28  N   UNL     1      -1.593   1.250  13.671  0.00  0.00    -0.352 N 
ATOM     29  C   UNL     1      -1.897   0.490  12.654  0.00  0.00    +0.173 A 
ATOM     30  H   UNL     1      -2.231   1.709  14.239  0.00  0.00    +0.166 HD
ENDBRANCH  24  25
ENDBRANCH  23  24
ENDBRANCH  22  23
ENDBRANCH  20  22
ENDBRANCH   4  20
TORSDOF 7
