REMARK  Name = ZINC26180114
REMARK  11 active torsions:
REMARK  status: ('A' for Active; 'I' for Inactive)
REMARK    1  A    between atoms: C_1  and  N_2
REMARK    2  A    between atoms: N_4  and  C_5
REMARK    3  A    between atoms: C_5  and  C_6
REMARK    4  A    between atoms: C_6  and  C_7
REMARK    5  A    between atoms: C_7  and  C_8
REMARK    6  A    between atoms: C_8  and  C_10
REMARK    7  A    between atoms: C_8  and  C_18
REMARK    8  A    between atoms: N_24  and  C_25
REMARK    9  A    between atoms: C_25  and  C_26
REMARK   10  A    between atoms: C_26  and  C_27
REMARK   11  A    between atoms: C_27  and  C_28
REMARK                            x       y       z     vdW  Elec       q    Type
REMARK                         _______ _______ _______ _____ _____    ______ ____
ROOT
ATOM      1  C   UNL     1      -1.029   3.669   4.995  0.00  0.00    +0.142 C 
ATOM      2  N   UNL     1      -1.477   2.783   3.918  0.00  0.00    -0.361 N 
ATOM      3  C   UNL     1      -1.044   1.479   3.876  0.00  0.00    +0.171 C 
ATOM      4  N   UNL     1      -1.321   0.733   2.844  0.00  0.00    -0.358 N 
ATOM      5  N   UNL     1      -0.320   0.961   4.924  0.00  0.00    -0.358 N 
ATOM      6  H   UNL     1      -2.160   3.161   3.143  0.00  0.00    +0.162 HD
ATOM      7  H   UNL     1       0.130  -0.039   4.840  0.00  0.00    +0.162 HD
ATOM      8  H   UNL     1      -0.891  -0.276   2.763  0.00  0.00    +0.162 HD
ENDROOT
BRANCH   4   9
ATOM      9  C   UNL     1      -2.205   1.239   1.790  0.00  0.00    +0.115 C 
BRANCH   9  10
ATOM     10  C   UNL     1      -1.420   1.364   0.483  0.00  0.00    +0.022 C 
BRANCH  10  11
ATOM     11  C   UNL     1      -2.343   1.892  -0.617  0.00  0.00    +0.016 C 
BRANCH  11  12
ATOM     12  C   UNL     1      -1.559   2.017  -1.925  0.00  0.00    +0.068 C 
BRANCH  12  13
ATOM     13  C   UNL     1      -2.494   2.420  -3.036  0.00  0.00    -0.037 A 
ATOM     14  C   UNL     1      -2.572   1.655  -4.185  0.00  0.00    +0.006 A 
ATOM     15  C   UNL     1      -3.430   2.023  -5.204  0.00  0.00    +0.022 A 
ATOM     16  C   UNL     1      -4.211   3.157  -5.075  0.00  0.00    +0.059 A 
ATOM     17  C   UNL     1      -4.133   3.923  -3.925  0.00  0.00    +0.060 A 
ATOM     18  C   UNL     1      -3.278   3.550  -2.903  0.00  0.00    +0.025 A 
ATOM     19 CL   UNL     1      -5.112   5.347  -3.761  0.00  0.00    -0.082 Cl
ATOM     20 CL   UNL     1      -5.288   3.620  -6.355  0.00  0.00    -0.082 Cl
ENDBRANCH  12  13
BRANCH  12  21
ATOM     21  C   UNL     1      -0.485   3.063  -1.769  0.00  0.00    +0.049 A 
ATOM     22  C   UNL     1      -0.732   4.186  -1.002  0.00  0.00    +0.024 A 
ATOM     23  C   UNL     1       0.263   5.142  -0.865  0.00  0.00    +0.003 A 
ATOM     24  C   UNL     1       1.474   4.931  -1.506  0.00  0.00    +0.020 A 
ATOM     25  C   UNL     1       1.648   3.784  -2.256  0.00  0.00    +0.111 A 
ATOM     26  N   UNL     1       0.681   2.893  -2.361  0.00  0.00    -0.259 NA
ENDBRANCH  12  21
ENDBRANCH  11  12
ENDBRANCH  10  11
ENDBRANCH   9  10
ENDBRANCH   4   9
BRANCH   5  27
ATOM     27  C   UNL     1      -0.148   1.741   6.152  0.00  0.00    +0.116 C 
BRANCH  27  28
ATOM     28  C   UNL     1       0.620   0.909   7.181  0.00  0.00    +0.027 C 
BRANCH  28  29
ATOM     29  C   UNL     1       0.800   1.724   8.463  0.00  0.00    +0.056 C 
BRANCH  29  30
ATOM     30  C   UNL     1       1.556   0.904   9.477  0.00  0.00    +0.033 A 
ATOM     31  C   UNL     1       2.691   1.270  10.103  0.00  0.00    +0.105 A 
ATOM     32  N   UNL     1       3.034   0.239  10.935  0.00  0.00    -0.352 N 
ATOM     33  H   UNL     1       3.939   0.312  11.557  0.00  0.00    +0.166 HD
ATOM     34  C   UNL     1       2.097  -0.722  10.789  0.00  0.00    +0.171 A 
ATOM     35  N   UNL     1       1.213  -0.315   9.919  0.00  0.00    -0.350 N 
ATOM     36  H   UNL     1       0.304  -0.803   9.537  0.00  0.00    +0.166 HD
ENDBRANCH  29  30
ENDBRANCH  28  29
ENDBRANCH  27  28
ENDBRANCH   5  27
TORSDOF 10
