REMARK  Name = ZINC06093044
REMARK  9 active torsions:
REMARK  status: ('A' for Active; 'I' for Inactive)
REMARK    1  A    between atoms: C_1  and  S_2
REMARK    2  A    between atoms: S_2  and  C_3
REMARK    3  A    between atoms: C_3  and  C_4
REMARK    4  A    between atoms: C_4  and  C_5
REMARK    5  A    between atoms: C_5  and  C_7
REMARK    6  A    between atoms: C_5  and  N_25
REMARK    7  A    between atoms: N_9  and  C_10
REMARK    8  A    between atoms: C_13  and  S_16
REMARK    9  A    between atoms: S_16  and  N_19
REMARK                            x       y       z     vdW  Elec       q    Type
REMARK                         _______ _______ _______ _____ _____    ______ ____
ROOT
ATOM      1  C   UNL     1      -2.141  -3.571   1.161  0.00  0.00    +0.238 C 
ATOM      2  O   UNL     1      -2.282  -2.614   1.893  0.00  0.00    -0.273 OA
ATOM      3  N   UNL     1      -2.755  -4.736   1.449  0.00  0.00    -0.284 N 
ATOM      4  H   UNL     1      -2.705  -5.477   0.825  0.00  0.00    +0.155 HD
ENDROOT
BRANCH   3   5
ATOM      5  C   UNL     1      -3.465  -4.875   2.646  0.00  0.00    +0.034 A 
ATOM      6  C   UNL     1      -3.035  -4.217   3.791  0.00  0.00    +0.025 A 
ATOM      7  C   UNL     1      -3.741  -4.353   4.970  0.00  0.00    +0.030 A 
ATOM      8  C   UNL     1      -4.869  -5.151   5.014  0.00  0.00    +0.109 A 
ATOM      9  C   UNL     1      -5.297  -5.813   3.877  0.00  0.00    +0.030 A 
ATOM     10  C   UNL     1      -4.598  -5.677   2.694  0.00  0.00    +0.025 A 
BRANCH   8  11
ATOM     11  S   UNL     1      -5.764  -5.327   6.522  0.00  0.00    +0.074 S 
ATOM     12  O   UNL     1      -5.474  -4.175   7.303  0.00  0.00    -0.150 OA
ATOM     13  O   UNL     1      -7.090  -5.693   6.167  0.00  0.00    -0.150 OA
BRANCH  11  14
ATOM     14  N   UNL     1      -5.116  -6.620   7.328  0.00  0.00    -0.194 N 
ATOM     15  C   UNL     1      -3.807  -6.569   7.783  0.00  0.00    +0.177 A 
ATOM     16  N   UNL     1      -2.928  -5.592   7.668  0.00  0.00    -0.232 NA
ATOM     17  C   UNL     1      -1.712  -5.706   8.168  0.00  0.00    +0.120 A 
ATOM     18  C   UNL     1      -1.377  -6.858   8.797  0.00  0.00    +0.068 A 
ATOM     19  S   UNL     1      -2.903  -7.775   8.645  0.00  0.00    -0.059 S 
ATOM     20  H   UNL     1      -5.652  -7.414   7.482  0.00  0.00    +0.176 HD
ENDBRANCH  11  14
ENDBRANCH   8  11
ENDBRANCH   3   5
BRANCH   1  21
ATOM     21  C   UNL     1      -1.279  -3.457  -0.070  0.00  0.00    +0.171 C 
BRANCH  21  22
ATOM     22  N   UNL     1      -0.729  -2.102  -0.157  0.00  0.00    -0.222 N 
ATOM     23  C   UNL     1      -1.471  -0.983  -0.244  0.00  0.00    +0.254 C 
ATOM     24  O   UNL     1      -2.685  -0.938  -0.263  0.00  0.00    -0.270 OA
ATOM     25  C   UNL     1      -0.563   0.181  -0.314  0.00  0.00    +0.049 A 
ATOM     26  C   UNL     1      -0.751   1.550  -0.411  0.00  0.00    +0.014 A 
ATOM     27  C   UNL     1       0.349   2.393  -0.456  0.00  0.00    +0.001 A 
ATOM     28  C   UNL     1       1.630   1.876  -0.405  0.00  0.00    +0.001 A 
ATOM     29  C   UNL     1       1.833   0.509  -0.307  0.00  0.00    +0.014 A 
ATOM     30  C   UNL     1       0.743  -0.346  -0.261  0.00  0.00    +0.049 A 
ATOM     31  C   UNL     1       0.585  -1.812  -0.161  0.00  0.00    +0.254 C 
ATOM     32  O   UNL     1       1.489  -2.620  -0.093  0.00  0.00    -0.270 OA
ENDBRANCH  21  22
BRANCH  21  33
ATOM     33  C   UNL     1      -2.123  -3.746  -1.312  0.00  0.00    +0.043 C 
BRANCH  33  34
ATOM     34  C   UNL     1      -1.223  -3.753  -2.550  0.00  0.00    +0.071 C 
BRANCH  34  36
ATOM     35  C   UNL     1      -1.025  -4.071  -5.384  0.00  0.00    +0.084 C 
ATOM     36  S   UNL     1      -2.224  -4.096  -4.023  0.00  0.00    -0.164 S 
ENDBRANCH  34  36
ENDBRANCH  33  34
ENDBRANCH  21  33
ENDBRANCH   1  21
TORSDOF 8
