REMARK  Name = ZINC36280586
REMARK  7 active torsions:
REMARK  status: ('A' for Active; 'I' for Inactive)
REMARK    1  A    between atoms: C_1  and  N_2
REMARK    2  A    between atoms: N_2  and  C_3
REMARK    3  A    between atoms: C_6  and  C_12
REMARK    4  A    between atoms: C_8  and  N_9
REMARK    5  A    between atoms: N_13  and  N_14
REMARK    6  A    between atoms: C_15  and  C_17
REMARK    7  A    between atoms: C_19  and  N_25
REMARK                            x       y       z     vdW  Elec       q    Type
REMARK                         _______ _______ _______ _____ _____    ______ ____
ROOT
ATOM      1  N   UNL     1       3.365  -2.807  -6.418  0.00  0.00    -0.202 N 
ATOM      2  C   UNL     1       3.845  -2.125  -7.477  0.00  0.00    +0.283 C 
ATOM      3  O   UNL     1       3.794  -0.910  -7.491  0.00  0.00    -0.267 OA
ATOM      4  H   UNL     1       3.406  -3.776  -6.407  0.00  0.00    +0.178 HD
ENDROOT
BRANCH   2   5
ATOM      5  C   UNL     1       4.434  -2.853  -8.622  0.00  0.00    +0.149 A 
ATOM      6  C   UNL     1       4.933  -2.142  -9.709  0.00  0.00    +0.094 A 
ATOM      7  C   UNL     1       5.486  -2.844 -10.780  0.00  0.00    +0.067 A 
ATOM      8  C   UNL     1       5.515  -4.236 -10.715  0.00  0.00    +0.100 A 
ATOM      9  C   UNL     1       4.998  -4.872  -9.598  0.00  0.00    +0.150 A 
ATOM     10  N   UNL     1       4.487  -4.182  -8.600  0.00  0.00    -0.228 NA
ATOM     11 CL   UNL     1       5.031  -6.606  -9.510  0.00  0.00    -0.060 Cl
ATOM     12 CL   UNL     1       6.190  -5.162 -12.019  0.00  0.00    -0.078 Cl
ATOM     13 CL   UNL     1       4.868  -0.407  -9.732  0.00  0.00    -0.079 Cl
BRANCH   7  14
ATOM     14  N   UNL     1       5.996  -2.170 -11.889  0.00  0.00    -0.356 N 
ATOM     15  H   UNL     1       5.970  -1.201 -11.922  0.00  0.00    +0.142 HD
ATOM     16  H   UNL     1       6.378  -2.671 -12.627  0.00  0.00    +0.142 HD
ENDBRANCH   7  14
ENDBRANCH   2   5
BRANCH   1  18
ATOM     17  C   UNL     1       2.345  -2.775  -4.315  0.00  0.00    +0.138 C 
ATOM     18  N   UNL     1       2.807  -2.117  -5.334  0.00  0.00    -0.187 NA
BRANCH  17  22
ATOM     19  C   UNL     1       0.653  -0.684  -1.030  0.00  0.00    +0.058 A 
ATOM     20  C   UNL     1       1.148   0.022  -2.121  0.00  0.00    +0.026 A 
ATOM     21  C   UNL     1       1.698  -0.652  -3.188  0.00  0.00    +0.011 A 
ATOM     22  C   UNL     1       1.758  -2.049  -3.174  0.00  0.00    -0.003 A 
ATOM     23  C   UNL     1       1.259  -2.755  -2.076  0.00  0.00    +0.044 A 
ATOM     24  C   UNL     1       0.716  -2.073  -1.010  0.00  0.00    +0.147 A 
BRANCH  19  26
ATOM     25  C   UNL     1      -0.082   1.455  -0.021  0.00  0.00    +0.125 C 
ATOM     26  N   UNL     1       0.098   0.003   0.049  0.00  0.00    -0.345 N 
ATOM     27  H   UNL     1      -0.169  -0.481   0.847  0.00  0.00    +0.146 HD
ENDBRANCH  19  26
BRANCH  24  28
ATOM     28  N   UNL     1       0.193  -2.820   0.157  0.00  0.00    +0.058 N 
ATOM     29  O   UNL     1       0.763  -3.813   0.544  0.00  0.00    -0.126 OA
ATOM     30  O   UNL     1      -0.804  -2.437   0.722  0.00  0.00    -0.126 OA
ENDBRANCH  24  28
ENDBRANCH  17  22
ENDBRANCH   1  18
TORSDOF 6
