REMARK  Name = ZINC01681102
REMARK  8 active torsions:
REMARK  status: ('A' for Active; 'I' for Inactive)
REMARK    1  A    between atoms: C_4  and  C_7
REMARK    2  A    between atoms: C_7  and  N_51
REMARK    3  A    between atoms: C_8  and  C_9
REMARK    4  A    between atoms: C_8  and  N_51
REMARK    5  A    between atoms: C_14  and  O_15
REMARK    6  A    between atoms: C_18  and  C_19
REMARK    7  A    between atoms: C_18  and  N_51
REMARK    8  A    between atoms: C_28  and  O_29
REMARK                            x       y       z     vdW  Elec       q    Type
REMARK                         _______ _______ _______ _____ _____    ______ ____
ROOT
ATOM      1  N   UNL     1      -1.590   5.415   1.309  0.00  0.00    +0.388 N 
ATOM      2  H   UNL     1      -1.478   4.519   1.797  0.00  0.00    -0.080 HD
ENDROOT
BRANCH   1   3
ATOM      3  C   UNL     1      -3.025   5.770   1.281  0.00  0.00    -0.042 C 
BRANCH   3   7
ATOM      4  C   UNL     1      -4.707   4.977   5.127  0.00  0.00    +0.000 A 
ATOM      5  C   UNL     1      -4.598   6.279   4.675  0.00  0.00    +0.000 A 
ATOM      6  C   UNL     1      -4.053   6.535   3.431  0.00  0.00    +0.002 A 
ATOM      7  C   UNL     1      -3.618   5.490   2.638  0.00  0.00    -0.064 A 
ATOM      8  C   UNL     1      -3.732   4.188   3.087  0.00  0.00    +0.002 A 
ATOM      9  C   UNL     1      -4.272   3.931   4.334  0.00  0.00    +0.000 A 
ENDBRANCH   3   7
ENDBRANCH   1   3
BRANCH   1  10
ATOM     10  C   UNL     1      -0.826   6.454   2.031  0.00  0.00    -0.038 C 
BRANCH  10  11
ATOM     11  C   UNL     1      -1.071   6.293   3.510  0.00  0.00    -0.020 A 
ATOM     12  C   UNL     1      -1.635   7.327   4.233  0.00  0.00    +0.025 A 
ATOM     13  C   UNL     1      -1.864   7.179   5.589  0.00  0.00    +0.043 A 
ATOM     14  C   UNL     1      -1.520   6.000   6.227  0.00  0.00    +0.043 A 
ATOM     15  C   UNL     1      -0.951   4.966   5.508  0.00  0.00    +0.084 A 
ATOM     16  C   UNL     1      -0.725   5.111   4.146  0.00  0.00    +0.137 A 
ATOM     17 CL   UNL     1      -0.519   3.487   6.307  0.00  0.00    -0.080 Cl
ATOM     18 CL   UNL     1      -2.579   8.477   6.494  0.00  0.00    -0.083 Cl
BRANCH  16  19
ATOM     19  O   UNL     1      -0.166   4.095   3.436  0.00  0.00    -0.505 OA
ATOM     20  H   UNL     1       0.800   4.126   3.399  0.00  0.00    +0.292 HD
ENDBRANCH  16  19
ENDBRANCH  10  11
ENDBRANCH   1  10
BRANCH   1  21
ATOM     21  C   UNL     1      -1.077   5.278  -0.070  0.00  0.00    -0.038 C 
BRANCH  21  22
ATOM     22  C   UNL     1       0.207   4.489  -0.032  0.00  0.00    -0.015 A 
ATOM     23  C   UNL     1       0.172   3.088   0.059  0.00  0.00    -0.013 A 
ATOM     24  C   UNL     1      -1.047   2.391   0.115  0.00  0.00    +0.009 A 
ATOM     25  C   UNL     1      -1.044   1.033   0.197  0.00  0.00    +0.001 A 
ATOM     26  C   UNL     1       0.153   0.320   0.238  0.00  0.00    +0.001 A 
ATOM     27  C   UNL     1       1.353   0.961   0.185  0.00  0.00    +0.008 A 
ATOM     28  C   UNL     1       1.389   2.363   0.095  0.00  0.00    -0.017 A 
ATOM     29  C   UNL     1       2.610   3.058   0.038  0.00  0.00    +0.012 A 
ATOM     30  C   UNL     1       2.610   4.415  -0.050  0.00  0.00    +0.046 A 
ATOM     31  C   UNL     1       1.410   5.133  -0.085  0.00  0.00    +0.119 A 
BRANCH  31  32
ATOM     32  O   UNL     1       1.442   6.489  -0.174  0.00  0.00    -0.507 OA
ATOM     33  H   UNL     1       1.546   6.936   0.677  0.00  0.00    +0.292 HD
ENDBRANCH  31  32
ENDBRANCH  21  22
ENDBRANCH   1  21
TORSDOF 8
