REMARK  Name = ZINC32926872
REMARK  5 active torsions:
REMARK  status: ('A' for Active; 'I' for Inactive)
REMARK    1  A    between atoms: C_1  and  C_2
REMARK    2  A    between atoms: C_5  and  N_8
REMARK    3  A    between atoms: N_8  and  C_9
REMARK    4  A    between atoms: N_8  and  C_23
REMARK    5  A    between atoms: C_9  and  N_10
REMARK                            x       y       z     vdW  Elec       q    Type
REMARK                         _______ _______ _______ _____ _____    ______ ____
ROOT
ATOM      1  N   UNL     1      -1.095  -1.234  -1.369  0.00  0.00    -0.241 N 
ATOM      2  C   UNL     1       0.115  -1.388  -0.792  0.00  0.00    +0.245 C 
ATOM      3  O   UNL     1       1.070  -0.647  -0.879  0.00  0.00    -0.273 OA
ATOM      4  C   UNL     1       0.027  -2.678  -0.012  0.00  0.00    +0.112 C 
ATOM      5  C   UNL     1       1.060  -3.672  -0.459  0.00  0.00    +0.035 C 
ATOM      6  C   UNL     1       0.528  -5.121  -0.426  0.00  0.00    +0.003 C 
ATOM      7  C   UNL     1      -0.320  -5.415   0.827  0.00  0.00    +0.000 C 
ATOM      8  C   UNL     1       0.270  -4.819   2.076  0.00  0.00    +0.000 C 
ATOM      9  C   UNL     1      -0.382  -3.442   2.317  0.00  0.00    +0.003 C 
ATOM     10  C   UNL     1       0.209  -2.397   1.492  0.00  0.00    +0.035 C 
ATOM     11  N   UNL     1      -1.338  -3.157  -0.263  0.00  0.00    -0.285 N 
ATOM     12  C   UNL     1      -1.918  -2.245  -1.066  0.00  0.00    +0.308 C 
ATOM     13  O   UNL     1      -3.061  -2.331  -1.472  0.00  0.00    -0.252 OA
ATOM     14  H   UNL     1      -1.682  -4.100   0.188  0.00  0.00    +0.151 HD
ENDROOT
BRANCH   1  15
ATOM     15  C   UNL     1      -1.460  -0.103  -2.226  0.00  0.00    +0.043 C 
BRANCH  15  16
ATOM     16  N   UNL     1      -2.035   0.969  -1.403  0.00  0.00    +0.394 N 
ATOM     17  H   UNL     1      -2.343   1.784  -2.075  0.00  0.00    -0.079 HD
BRANCH  16  22
ATOM     18  C   UNL     1      -0.131   4.912  -0.192  0.00  0.00    +0.007 C 
ATOM     19  C   UNL     1       0.454   3.771   0.643  0.00  0.00    -0.014 C 
ATOM     20  C   UNL     1       1.121   2.752  -0.283  0.00  0.00    +0.002 C 
ATOM     21  C   UNL     1       0.082   2.191  -1.256  0.00  0.00    -0.015 C 
ATOM     22  C   UNL     1      -1.038   1.508  -0.468  0.00  0.00    -0.066 C 
ATOM     23  C   UNL     1      -1.705   2.528   0.458  0.00  0.00    -0.015 C 
ATOM     24  C   UNL     1      -0.666   3.089   1.431  0.00  0.00    +0.002 C 
ENDBRANCH  16  22
BRANCH  16  25
ATOM     25  C   UNL     1      -3.229   0.500  -0.686  0.00  0.00    -0.066 C 
ATOM     26  C   UNL     1      -4.462   0.151  -1.520  0.00  0.00    -0.017 C 
ATOM     27  C   UNL     1      -4.451   1.421  -0.668  0.00  0.00    -0.017 C 
ENDBRANCH  16  25
ENDBRANCH  15  16
ENDBRANCH   1  15
TORSDOF 4
