REMARK  Name = ZINC63067916
REMARK  8 active torsions:
REMARK  status: ('A' for Active; 'I' for Inactive)
REMARK    1  A    between atoms: C_1  and  O_2
REMARK    2  A    between atoms: O_2  and  C_3
REMARK    3  A    between atoms: C_6  and  C_9
REMARK    4  A    between atoms: C_12  and  C_24
REMARK    5  A    between atoms: N_15  and  C_16
REMARK    6  A    between atoms: N_26  and  C_27
REMARK    7  A    between atoms: C_27  and  C_28
REMARK    8  A    between atoms: C_28  and  C_29
REMARK                            x       y       z     vdW  Elec       q    Type
REMARK                         _______ _______ _______ _____ _____    ______ ____
ROOT
ATOM      1  C   UNL     1       2.682  -2.587   4.397  0.00  0.00    +0.105 C 
ATOM      2  C   UNL     1       4.046  -3.157   3.959  0.00  0.00    +0.054 C 
ATOM      3  C   UNL     1       3.885  -4.689   4.083  0.00  0.00    +0.157 C 
ATOM      4  N   UNL     1       2.772  -4.842   5.058  0.00  0.00    -0.241 NA
ATOM      5  N   UNL     1       1.837  -3.762   4.712  0.00  0.00    -0.230 NA
ATOM      6  H   UNL     1       3.105  -4.742   6.005  0.00  0.00    +0.142 HD
ENDROOT
BRANCH   5   7
ATOM      7  C   UNL     1       0.928  -3.472   5.830  0.00  0.00    +0.096 C 
ATOM      8  C   UNL     1       1.745  -3.125   7.086  0.00  0.00    +0.044 C 
ATOM      9  C   UNL     1       0.826  -3.134   8.332  0.00  0.00    +0.167 C 
ATOM     10  S   UNL     1      -0.481  -4.340   7.861  0.00  0.00    -0.029 S 
ATOM     11  O   UNL     1      -0.346  -5.505   8.664  0.00  0.00    -0.174 OA
ATOM     12  O   UNL     1      -1.732  -3.668   7.808  0.00  0.00    -0.174 OA
ATOM     13  C   UNL     1       0.066  -4.728   6.145  0.00  0.00    +0.186 C 
ENDBRANCH   5   7
BRANCH   1  17
ATOM     14  C   UNL     1       0.937  -0.325   1.219  0.00  0.00    +0.120 A 
ATOM     15  C   UNL     1       1.546   0.326   2.282  0.00  0.00    +0.046 A 
ATOM     16  C   UNL     1       2.109  -0.408   3.309  0.00  0.00    +0.009 A 
ATOM     17  C   UNL     1       2.067  -1.790   3.276  0.00  0.00    -0.029 A 
ATOM     18  C   UNL     1       1.461  -2.441   2.218  0.00  0.00    +0.009 A 
ATOM     19  C   UNL     1       0.891  -1.712   1.192  0.00  0.00    +0.046 A 
BRANCH  14  21
ATOM     20  C   UNL     1       0.468   1.817   0.302  0.00  0.00    +0.277 C 
ATOM     21  O   UNL     1       0.383   0.394   0.208  0.00  0.00    -0.495 OA
ENDBRANCH  14  21
ENDBRANCH   1  17
BRANCH   3  22
ATOM     22  C   UNL     1       5.149  -5.315   4.613  0.00  0.00    +0.231 C 
ATOM     23  O   UNL     1       5.231  -5.616   5.785  0.00  0.00    -0.274 OA
ATOM     24  N   UNL     1       6.188  -5.540   3.784  0.00  0.00    -0.314 N 
ATOM     25  H   UNL     1       6.122  -5.299   2.847  0.00  0.00    +0.149 HD
BRANCH  24  26
ATOM     26  C   UNL     1       7.417  -6.148   4.299  0.00  0.00    +0.108 C 
BRANCH  26  27
ATOM     27  C   UNL     1       8.430  -6.292   3.162  0.00  0.00    +0.065 C 
BRANCH  27  28
ATOM     28  C   UNL     1       9.714  -6.928   3.700  0.00  0.00    +0.175 C 
ATOM     29  N   UNL     1      10.329  -6.050   4.703  0.00  0.00    -0.363 N 
ATOM     30  C   UNL     1      11.511  -5.725   4.266  0.00  0.00    +0.060 A 
ATOM     31  C   UNL     1      12.584  -4.885   4.817  0.00  0.00    +0.027 A 
ATOM     32  C   UNL     1      13.728  -4.728   4.122  0.00  0.00    +0.002 A 
ATOM     33  C   UNL     1      13.948  -5.339   2.874  0.00  0.00    +0.002 A 
ATOM     34  C   UNL     1      13.030  -6.128   2.280  0.00  0.00    +0.027 A 
ATOM     35  C   UNL     1      11.744  -6.372   2.946  0.00  0.00    +0.060 A 
ATOM     36  N   UNL     1      10.696  -7.072   2.618  0.00  0.00    -0.363 N 
ATOM     37  H   UNL     1       9.927  -5.763   5.539  0.00  0.00    +0.162 HD
ATOM     38  H   UNL     1      10.585  -7.593   1.808  0.00  0.00    +0.162 HD
ENDBRANCH  27  28
ENDBRANCH  26  27
ENDBRANCH  24  26
ENDBRANCH   3  22
TORSDOF 7
