REMARK  Name = ZINC02256387
REMARK  8 active torsions:
REMARK  status: ('A' for Active; 'I' for Inactive)
REMARK    1  A    between atoms: C_1  and  C_2
REMARK    2  A    between atoms: N_8  and  C_9
REMARK    3  A    between atoms: C_9  and  C_10
REMARK    4  A    between atoms: C_16  and  C_26
REMARK    5  A    between atoms: C_18  and  C_22
REMARK    6  A    between atoms: C_19  and  N_21
REMARK    7  A    between atoms: C_22  and  O_24
REMARK    8  A    between atoms: O_24  and  C_25
REMARK                            x       y       z     vdW  Elec       q    Type
REMARK                         _______ _______ _______ _____ _____    ______ ____
ROOT
ATOM      1  C   UNL     1      -1.987  -1.583   1.198  0.00  0.00    +0.064 C 
ATOM      2  C   UNL     1      -2.728  -0.552   2.011  0.00  0.00    +0.023 A 
ATOM      3  C   UNL     1      -3.056  -0.825   3.292  0.00  0.00    +0.068 A 
ATOM      4  C   UNL     1      -3.753   0.134   4.056  0.00  0.00    +0.141 A 
ATOM      5  C   UNL     1      -4.083   1.340   3.474  0.00  0.00    +0.071 A 
ATOM      6  C   UNL     1      -3.717   1.580   2.143  0.00  0.00    +0.259 A 
ATOM      7  O   UNL     1      -4.003   2.643   1.615  0.00  0.00    -0.267 OA
ATOM      8  N   UNL     1      -3.051   0.641   1.447  0.00  0.00    -0.308 N 
ATOM      9  C   UNL     1      -4.827   2.390   4.251  0.00  0.00    +0.100 C 
ATOM     10  C   UNL     1      -4.757   2.092   5.723  0.00  0.00    +0.105 C 
ATOM     11  C   UNL     1      -4.396   0.865   6.175  0.00  0.00    +0.195 C 
ATOM     12  O   UNL     1      -4.084  -0.137   5.336  0.00  0.00    -0.441 OA
ENDROOT
BRANCH   9  13
ATOM     13  C   UNL     1      -6.269   2.408   3.813  0.00  0.00    -0.035 A 
ATOM     14  C   UNL     1      -7.045   1.272   3.947  0.00  0.00    +0.007 A 
ATOM     15  C   UNL     1      -8.369   1.288   3.550  0.00  0.00    +0.038 A 
ATOM     16  C   UNL     1      -8.915   2.440   3.009  0.00  0.00    +0.123 A 
ATOM     17  C   UNL     1      -8.135   3.576   2.871  0.00  0.00    +0.038 A 
ATOM     18  C   UNL     1      -6.813   3.559   3.273  0.00  0.00    +0.007 A 
ATOM     19  F   UNL     1     -10.207   2.456   2.616  0.00  0.00    -0.205 F 
ENDBRANCH   9  13
BRANCH  11  20
ATOM     20  N   UNL     1      -4.346   0.641   7.525  0.00  0.00    -0.329 N 
ATOM     21  H   UNL     1      -4.637   1.331   8.142  0.00  0.00    +0.145 HD
ATOM     22  H   UNL     1      -4.021  -0.207   7.864  0.00  0.00    +0.145 HD
ENDBRANCH  11  20
BRANCH  10  23
ATOM     23  C   UNL     1      -5.071   3.101   6.646  0.00  0.00    +0.341 C 
ATOM     24  O   UNL     1      -4.312   4.041   6.803  0.00  0.00    -0.245 OA
BRANCH  23  25
ATOM     25  O   UNL     1      -6.215   3.030   7.361  0.00  0.00    -0.465 OA
ATOM     26  C   UNL     1      -6.471   4.092   8.282  0.00  0.00    +0.280 C 
ENDBRANCH  23  25
ENDBRANCH  10  23
BRANCH   8  27
ATOM     27  C   UNL     1      -2.674   0.907   0.056  0.00  0.00    +0.160 C 
BRANCH  27  28
ATOM     28  C   UNL     1      -1.365   1.652   0.024  0.00  0.00    -0.028 A 
ATOM     29  C   UNL     1      -0.173   0.953  -0.029  0.00  0.00    +0.005 A 
ATOM     30  C   UNL     1       1.028   1.637  -0.064  0.00  0.00    +0.000 A 
ATOM     31  C   UNL     1       1.038   3.019  -0.040  0.00  0.00    +0.000 A 
ATOM     32  C   UNL     1      -0.154   3.718   0.019  0.00  0.00    +0.000 A 
ATOM     33  C   UNL     1      -1.355   3.034   0.053  0.00  0.00    +0.005 A 
ENDBRANCH  27  28
ENDBRANCH   8  27
TORSDOF 6
