REMARK  Name = ZINC17326188
REMARK  4 active torsions:
REMARK  status: ('A' for Active; 'I' for Inactive)
REMARK    1  A    between atoms: C_4  and  C_7
REMARK    2  A    between atoms: C_7  and  O_27
REMARK    3  A    between atoms: N_16  and  C_17
REMARK    4  A    between atoms: C_20  and  N_24
REMARK                            x       y       z     vdW  Elec       q    Type
REMARK                         _______ _______ _______ _____ _____    ______ ____
ROOT
ATOM      1  C   UNL     1       3.716  -0.715  -0.041  0.00  0.00    +0.193 C 
ATOM      2  C   UNL     1       4.208  -0.923   1.370  0.00  0.00    +0.019 A 
ATOM      3  C   UNL     1       3.697  -1.593   2.457  0.00  0.00    +0.009 A 
ATOM      4  C   UNL     1       4.396  -1.607   3.652  0.00  0.00    +0.000 A 
ATOM      5  C   UNL     1       5.609  -0.949   3.756  0.00  0.00    +0.001 A 
ATOM      6  C   UNL     1       6.130  -0.273   2.672  0.00  0.00    +0.013 A 
ATOM      7  C   UNL     1       5.431  -0.255   1.464  0.00  0.00    +0.045 A 
ATOM      8  C   UNL     1       5.721   0.365   0.157  0.00  0.00    +0.254 C 
ATOM      9  O   UNL     1       6.713   1.021  -0.095  0.00  0.00    -0.270 OA
ATOM     10  N   UNL     1       4.732   0.100  -0.716  0.00  0.00    -0.229 N 
ENDROOT
BRANCH  10  11
ATOM     11  C   UNL     1       4.680   0.530  -2.046  0.00  0.00    +0.058 A 
ATOM     12  C   UNL     1       4.186   1.792  -2.351  0.00  0.00    +0.027 A 
ATOM     13  C   UNL     1       4.136   2.214  -3.665  0.00  0.00    +0.034 A 
ATOM     14  C   UNL     1       4.578   1.382  -4.677  0.00  0.00    +0.128 A 
ATOM     15  C   UNL     1       5.072   0.126  -4.378  0.00  0.00    +0.054 A 
ATOM     16  C   UNL     1       5.129  -0.301  -3.065  0.00  0.00    +0.065 A 
ATOM     17 CL   UNL     1       5.756  -1.876  -2.689  0.00  0.00    -0.082 Cl
BRANCH  14  18
ATOM     18  N   UNL     1       4.524   1.838  -6.084  0.00  0.00    +0.056 N 
ATOM     19  O   UNL     1       4.090   2.945  -6.349  0.00  0.00    -0.126 OA
ATOM     20  O   UNL     1       4.913   1.107  -6.977  0.00  0.00    -0.126 OA
ENDBRANCH  14  18
ENDBRANCH  10  11
BRANCH   1  24
ATOM     21  C   UNL     1      -0.029   1.340  -0.002  0.00  0.00    +0.000 A 
ATOM     22  C   UNL     1       1.152   2.053   0.090  0.00  0.00    +0.000 A 
ATOM     23  C   UNL     1       2.364   1.388   0.077  0.00  0.00    +0.008 A 
ATOM     24  C   UNL     1       2.395   0.010  -0.028  0.00  0.00    +0.007 A 
ATOM     25  C   UNL     1       1.214  -0.703  -0.119  0.00  0.00    +0.008 A 
ATOM     26  C   UNL     1       0.002  -0.038  -0.107  0.00  0.00    +0.000 A 
ENDBRANCH   1  24
BRANCH   1  27
ATOM     27  O   UNL     1       3.578  -1.974  -0.703  0.00  0.00    -0.364 OA
ATOM     28  H   UNL     1       2.929  -2.564  -0.295  0.00  0.00    +0.213 HD
ENDBRANCH   1  27
TORSDOF 4
