REMARK  Name = ZINC02786019
REMARK  3 active torsions:
REMARK  status: ('A' for Active; 'I' for Inactive)
REMARK    1  A    between atoms: C_1  and  C_2
REMARK    2  A    between atoms: C_7  and  C_20
REMARK    3  A    between atoms: C_10  and  C_13
REMARK                            x       y       z     vdW  Elec       q    Type
REMARK                         _______ _______ _______ _____ _____    ______ ____
ROOT
ATOM      1  C   UNL     1      -0.018   1.503   0.010  0.00  0.00    +0.067 C 
ATOM      2  C   UNL     1       0.002  -0.004   0.002  0.00  0.00    +0.062 A 
ATOM      3  C   UNL     1       0.008  -0.817  -1.139  0.00  0.00    +0.067 A 
ATOM      4  C   UNL     1       0.027  -2.103  -0.724  0.00  0.00    +0.118 A 
ATOM      5  N   UNL     1       0.035  -2.104   0.635  0.00  0.00    -0.242 N 
ATOM      6  N   UNL     1       0.023  -0.777   1.061  0.00  0.00    -0.174 NA
ATOM      7  C   UNL     1       0.059  -3.323   1.448  0.00  0.00    +0.177 C 
ATOM      8  C   UNL     1       0.552  -4.488   0.583  0.00  0.00    +0.059 C 
ATOM      9  C   UNL     1      -0.231  -4.527  -0.734  0.00  0.00    +0.104 C 
ATOM     10  N   UNL     1       0.037  -3.280  -1.476  0.00  0.00    -0.322 N 
ATOM     11  H   UNL     1       0.210  -3.277  -2.431  0.00  0.00    +0.148 HD
ENDROOT
BRANCH   9  12
ATOM     12  C   UNL     1      -1.706  -4.641  -0.443  0.00  0.00    -0.027 A 
ATOM     13  C   UNL     1      -2.430  -3.516  -0.094  0.00  0.00    +0.007 A 
ATOM     14  C   UNL     1      -3.782  -3.620   0.174  0.00  0.00    +0.020 A 
ATOM     15  C   UNL     1      -4.410  -4.849   0.092  0.00  0.00    +0.041 A 
ATOM     16  C   UNL     1      -3.685  -5.975  -0.257  0.00  0.00    +0.020 A 
ATOM     17  C   UNL     1      -2.334  -5.869  -0.530  0.00  0.00    +0.007 A 
ATOM     18 CL   UNL     1      -6.109  -4.981   0.428  0.00  0.00    -0.084 Cl
ENDBRANCH   9  12
BRANCH   7  19
ATOM     19  C   UNL     1       1.004  -3.127   2.636  0.00  0.00    +0.365 C 
ATOM     20  F   UNL     1       0.557  -2.056   3.416  0.00  0.00    -0.207 F 
ATOM     21  F   UNL     1       1.026  -4.292   3.411  0.00  0.00    -0.207 F 
ENDBRANCH   7  19
TORSDOF 2
