REMARK  Name = ZINC14023817
REMARK  6 active torsions:
REMARK  status: ('A' for Active; 'I' for Inactive)
REMARK    1  A    between atoms: C_1  and  C_2
REMARK    2  A    between atoms: C_7  and  C_8
REMARK    3  A    between atoms: C_9  and  C_10
REMARK    4  A    between atoms: C_9  and  N_23
REMARK    5  A    between atoms: N_12  and  C_13
REMARK    6  A    between atoms: C_24  and  C_26
REMARK                            x       y       z     vdW  Elec       q    Type
REMARK                         _______ _______ _______ _____ _____    ______ ____
ROOT
ATOM      1  C   UNL     1      -4.768   8.077  -0.099  0.00  0.00    +0.036 C 
ATOM      2  C   UNL     1      -3.605   7.387  -0.046  0.00  0.00    +0.097 C 
ENDROOT
BRANCH   1   9
ATOM      3  C   UNL     1      -7.069   9.589  -0.988  0.00  0.00    +0.044 C 
ATOM      4  C   UNL     1      -5.864  10.288  -0.414  0.00  0.00    -0.043 A 
ATOM      5  C   UNL     1      -5.848  11.663  -0.307  0.00  0.00    +0.004 A 
ATOM      6  C   UNL     1      -4.742  12.306   0.220  0.00  0.00    +0.000 A 
ATOM      7  C   UNL     1      -3.644  11.577   0.643  0.00  0.00    +0.001 A 
ATOM      8  C   UNL     1      -3.647  10.202   0.547  0.00  0.00    +0.008 A 
ATOM      9  C   UNL     1      -4.759   9.544   0.011  0.00  0.00    -0.020 A 
ENDBRANCH   1   9
BRANCH   2  10
ATOM     10  N   UNL     1      -2.386   8.072  -0.027  0.00  0.00    -0.282 N 
ATOM     11  C   UNL     1      -1.509   7.859   0.974  0.00  0.00    +0.214 C 
ATOM     12  O   UNL     1      -1.753   7.034   1.829  0.00  0.00    -0.276 OA
ATOM     13  C   UNL     1      -0.226   8.646   1.032  0.00  0.00    +0.109 C 
ATOM     14  H   UNL     1      -2.172   8.701  -0.734  0.00  0.00    +0.155 HD
ENDBRANCH   2  10
BRANCH   2  15
ATOM     15  C   UNL     1      -3.623   5.918  -0.009  0.00  0.00    +0.262 C 
ATOM     16  O   UNL     1      -4.682   5.325   0.085  0.00  0.00    -0.268 OA
ATOM     17  N   UNL     1      -2.468   5.228  -0.079  0.00  0.00    -0.280 N 
ATOM     18  H   UNL     1      -1.621   5.701  -0.101  0.00  0.00    +0.155 HD
BRANCH  17  19
ATOM     19  C   UNL     1      -2.490   3.834  -0.120  0.00  0.00    +0.041 A 
ATOM     20  C   UNL     1      -3.511   3.136   0.488  0.00  0.00    +0.024 A 
ATOM     21  C   UNL     1      -3.543   1.745   0.451  0.00  0.00    +0.002 A 
ATOM     22  C   UNL     1      -2.574   1.037  -0.192  0.00  0.00    +0.008 A 
ATOM     23  C   UNL     1      -1.521   1.710  -0.833  0.00  0.00    -0.016 A 
ATOM     24  C   UNL     1      -1.475   3.126  -0.799  0.00  0.00    +0.003 A 
ATOM     25  C   UNL     1      -0.426   3.797  -1.446  0.00  0.00    +0.010 A 
ATOM     26  C   UNL     1       0.536   3.082  -2.091  0.00  0.00    +0.001 A 
ATOM     27  C   UNL     1       0.495   1.689  -2.121  0.00  0.00    +0.001 A 
ATOM     28  C   UNL     1      -0.507   1.005  -1.505  0.00  0.00    +0.008 A 
ENDBRANCH  17  19
ENDBRANCH   2  15
TORSDOF 4
