REMARK  Name = ZINC08346152
REMARK  9 active torsions:
REMARK  status: ('A' for Active; 'I' for Inactive)
REMARK    1  A    between atoms: C_1  and  C_2
REMARK    2  A    between atoms: C_7  and  N_12
REMARK    3  A    between atoms: C_9  and  C_11
REMARK    4  A    between atoms: C_16  and  C_18
REMARK    5  A    between atoms: C_18  and  O_19
REMARK    6  A    between atoms: O_19  and  C_20
REMARK    7  A    between atoms: C_20  and  C_22
REMARK    8  A    between atoms: C_25  and  O_29
REMARK    9  A    between atoms: C_27  and  O_28
REMARK                            x       y       z     vdW  Elec       q    Type
REMARK                         _______ _______ _______ _____ _____    ______ ____
ROOT
ATOM      1  N   UNL     1       1.471  -2.526   2.420  0.00  0.00    -0.296 N 
ATOM      2  C   UNL     1       1.207  -3.754   2.907  0.00  0.00    +0.306 C 
ATOM      3  O   UNL     1       0.381  -4.460   2.362  0.00  0.00    -0.252 OA
ATOM      4  N   UNL     1       1.859  -4.201   3.999  0.00  0.00    -0.237 N 
ATOM      5  C   UNL     1       1.594  -5.429   4.487  0.00  0.00    +0.258 C 
ATOM      6  O   UNL     1       0.770  -6.133   3.943  0.00  0.00    -0.272 OA
ATOM      7  H   UNL     1       2.131  -1.963   2.855  0.00  0.00    +0.151 HD
ATOM      8  H   UNL     1       2.518  -3.638   4.434  0.00  0.00    +0.159 HD
ENDROOT
BRANCH   1  14
ATOM      9  C   UNL     1      -0.019   1.526   0.010  0.00  0.00    +0.008 C 
ATOM     10  C   UNL     1       0.002  -0.004   0.002  0.00  0.00    -0.009 C 
ATOM     11  C   UNL     1       0.718  -0.497  -1.257  0.00  0.00    +0.003 C 
ATOM     12  C   UNL     1       0.739  -2.027  -1.265  0.00  0.00    +0.002 C 
ATOM     13  C   UNL     1       1.479  -2.534  -0.026  0.00  0.00    +0.022 C 
ATOM     14  C   UNL     1       0.763  -2.041   1.233  0.00  0.00    +0.078 C 
ATOM     15  C   UNL     1       0.742  -0.511   1.242  0.00  0.00    +0.009 C 
ATOM     16  C   UNL     1       0.026  -0.018   2.500  0.00  0.00    +0.009 C 
ENDBRANCH   1  14
BRANCH   5  17
ATOM     17  C   UNL     1       2.323  -5.928   5.708  0.00  0.00    +0.328 C 
BRANCH  17  18
ATOM     18  O   UNL     1       1.872  -7.247   6.026  0.00  0.00    -0.452 OA
BRANCH  18  19
ATOM     19  C   UNL     1       2.429  -7.841   7.100  0.00  0.00    +0.343 C 
ATOM     20  O   UNL     1       3.275  -7.256   7.748  0.00  0.00    -0.245 OA
BRANCH  19  21
ATOM     21  C   UNL     1       2.013  -9.198   7.487  0.00  0.00    +0.100 A 
ATOM     22  C   UNL     1       1.044  -9.877   6.740  0.00  0.00    +0.022 A 
ATOM     23  C   UNL     1       0.659 -11.136   7.101  0.00  0.00    +0.046 A 
ATOM     24  C   UNL     1       1.225 -11.754   8.212  0.00  0.00    +0.120 A 
ATOM     25  C   UNL     1       2.187 -11.096   8.964  0.00  0.00    +0.091 A 
ATOM     26  C   UNL     1       2.591  -9.821   8.605  0.00  0.00    +0.134 A 
BRANCH  26  27
ATOM     27  O   UNL     1       3.535  -9.174   9.333  0.00  0.00    -0.506 OA
ATOM     28  H   UNL     1       3.178  -8.646  10.060  0.00  0.00    +0.292 HD
ENDBRANCH  26  27
BRANCH  24  29
ATOM     29  O   UNL     1       0.834 -13.005   8.561  0.00  0.00    -0.507 OA
ATOM     30  H   UNL     1       1.354 -13.709   8.150  0.00  0.00    +0.292 HD
ENDBRANCH  24  29
ENDBRANCH  19  21
ENDBRANCH  18  19
ENDBRANCH  17  18
ENDBRANCH   5  17
TORSDOF 7
