REMARK  Name = ZINC00226996
REMARK  3 active torsions:
REMARK  status: ('A' for Active; 'I' for Inactive)
REMARK    1  A    between atoms: C_9  and  O_19
REMARK    2  A    between atoms: C_10  and  C_11
REMARK    3  A    between atoms: N_12  and  C_13
REMARK                            x       y       z     vdW  Elec       q    Type
REMARK                         _______ _______ _______ _____ _____    ______ ____
ROOT
ATOM      1  C   UNL     1      -0.013   1.076   0.008  0.00  0.00    +0.001 A 
ATOM      2  C   UNL     1      -1.234   1.745   0.017  0.00  0.00    +0.001 A 
ATOM      3  C   UNL     1      -1.285   3.108   0.030  0.00  0.00    +0.009 A 
ATOM      4  C   UNL     1      -0.095   3.845   0.023  0.00  0.00    -0.006 A 
ATOM      5  C   UNL     1       1.148   3.168   0.008  0.00  0.00    -0.017 A 
ATOM      6  C   UNL     1       1.164   1.763   0.000  0.00  0.00    +0.008 A 
ATOM      7  C   UNL     1       2.343   3.910   0.001  0.00  0.00    +0.012 A 
ATOM      8  C   UNL     1       2.318   5.269   0.007  0.00  0.00    +0.046 A 
ATOM      9  C   UNL     1       1.120   5.982   0.022  0.00  0.00    +0.126 A 
ATOM     10  C   UNL     1      -0.104   5.308   0.030  0.00  0.00    +0.042 A 
ENDROOT
BRANCH  10  11
ATOM     11  C   UNL     1      -1.368   6.049   0.045  0.00  0.00    +0.123 C 
ATOM     12  N   UNL     1      -1.359   7.355   0.052  0.00  0.00    -0.253 NA
BRANCH  12  13
ATOM     13  C   UNL     1      -2.538   8.047   0.066  0.00  0.00    +0.082 A 
ATOM     14  C   UNL     1      -2.716   9.136   0.930  0.00  0.00    +0.031 A 
ATOM     15  C   UNL     1      -3.926   9.805   0.901  0.00  0.00    +0.022 A 
ATOM     16  C   UNL     1      -4.917   9.376   0.036  0.00  0.00    +0.111 A 
ATOM     17  N   UNL     1      -4.725   8.344  -0.763  0.00  0.00    -0.261 NA
ATOM     18  C   UNL     1      -3.589   7.678  -0.777  0.00  0.00    +0.138 A 
ENDBRANCH  12  13
ENDBRANCH  10  11
BRANCH   9  19
ATOM     19  O   UNL     1       1.143   7.338   0.029  0.00  0.00    -0.506 OA
ATOM     20  H   UNL     1       1.158   7.727   0.915  0.00  0.00    +0.292 HD
ENDBRANCH   9  19
TORSDOF 3
