REMARK  Name = ZINC67029203
REMARK  7 active torsions:
REMARK  status: ('A' for Active; 'I' for Inactive)
REMARK    1  A    between atoms: C_1  and  O_2
REMARK    2  A    between atoms: O_2  and  C_3
REMARK    3  A    between atoms: C_6  and  C_9
REMARK    4  A    between atoms: C_12  and  C_24
REMARK    5  A    between atoms: C_17  and  C_19
REMARK    6  A    between atoms: C_24  and  O_26
REMARK    7  A    between atoms: O_26  and  C_27
REMARK                            x       y       z     vdW  Elec       q    Type
REMARK                         _______ _______ _______ _____ _____    ______ ____
ROOT
ATOM      1  C   UNL     1       2.832  -2.680  -4.784  0.00  0.00    +0.193 C 
ATOM      2  O   UNL     1       3.501  -2.196  -5.854  0.00  0.00    -0.287 OA
ATOM      3  C   UNL     1       2.734  -4.044  -4.591  0.00  0.00    +0.056 C 
ATOM      4  C   UNL     1       3.197  -4.958  -5.555  0.00  0.00    +0.148 C 
ATOM      5  N   UNL     1       3.095  -6.259  -5.354  0.00  0.00    -0.186 NA
ATOM      6  C   UNL     1       2.568  -6.814  -4.268  0.00  0.00    +0.155 C 
ATOM      7  S   UNL     1       2.514  -8.523  -4.168  0.00  0.00    -0.017 S 
ATOM      8  N   UNL     1       2.075  -6.095  -3.242  0.00  0.00    -0.312 N 
ATOM      9  C   UNL     1       2.127  -4.624  -3.327  0.00  0.00    +0.157 C 
ATOM     10  H   UNL     1       1.697  -6.534  -2.464  0.00  0.00    +0.149 HD
ENDROOT
BRANCH   1  14
ATOM     11  C   UNL     1       1.034  -0.012  -2.020  0.00  0.00    +0.120 A 
ATOM     12  C   UNL     1       0.269  -1.005  -2.622  0.00  0.00    +0.046 A 
ATOM     13  C   UNL     1       0.848  -1.873  -3.519  0.00  0.00    +0.015 A 
ATOM     14  C   UNL     1       2.209  -1.755  -3.826  0.00  0.00    +0.022 A 
ATOM     15  C   UNL     1       2.974  -0.753  -3.217  0.00  0.00    +0.015 A 
ATOM     16  C   UNL     1       2.385   0.114  -2.325  0.00  0.00    +0.046 A 
BRANCH  11  18
ATOM     17  C   UNL     1      -0.932   0.657  -0.866  0.00  0.00    +0.277 C 
ATOM     18  O   UNL     1       0.459   0.842  -1.135  0.00  0.00    -0.495 OA
ENDBRANCH  11  18
ENDBRANCH   1  14
BRANCH   9  19
ATOM     19  C   UNL     1       2.916  -4.111  -2.150  0.00  0.00    +0.073 A 
ATOM     20  C   UNL     1       2.305  -3.536  -1.082  0.00  0.00    +0.072 A 
ATOM     21  S   UNL     1       3.720  -3.151  -0.062  0.00  0.00    -0.084 S 
ATOM     22  C   UNL     1       4.913  -3.752  -1.086  0.00  0.00    +0.156 A 
ATOM     23  N   UNL     1       4.230  -4.203  -2.108  0.00  0.00    -0.250 NA
ENDBRANCH   9  19
BRANCH   4  24
ATOM     24  C   UNL     1       3.807  -4.455  -6.813  0.00  0.00    +0.356 C 
ATOM     25  O   UNL     1       4.989  -4.182  -6.847  0.00  0.00    -0.243 OA
BRANCH  24  26
ATOM     26  O   UNL     1       3.048  -4.301  -7.914  0.00  0.00    -0.464 OA
ATOM     27  C   UNL     1       3.700  -3.812  -9.088  0.00  0.00    +0.280 C 
ENDBRANCH  24  26
ENDBRANCH   4  24
TORSDOF 5
