REMARK  Name = ZINC08919530
REMARK  5 active torsions:
REMARK  status: ('A' for Active; 'I' for Inactive)
REMARK    1  A    between atoms: C_7  and  C_11
REMARK    2  A    between atoms: C_11  and  C_12
REMARK    3  A    between atoms: C_12  and  C_13
REMARK    4  A    between atoms: N_15  and  C_16
REMARK    5  A    between atoms: C_16  and  C_17
REMARK                            x       y       z     vdW  Elec       q    Type
REMARK                         _______ _______ _______ _____ _____    ______ ____
ROOT
ATOM      1  C   UNL     1      -4.064   0.047   1.649  0.00  0.00    +0.214 C 
ATOM      2  O   UNL     1      -4.746  -0.351   0.729  0.00  0.00    -0.276 OA
ATOM      3  N   UNL     1      -2.927   0.726   1.401  0.00  0.00    -0.311 N 
ATOM      4  H   UNL     1      -2.381   1.045   2.138  0.00  0.00    +0.149 HD
ENDROOT
BRANCH   1   5
ATOM      5  C   UNL     1      -4.489  -0.217   3.071  0.00  0.00    +0.100 C 
BRANCH   5   6
ATOM      6  C   UNL     1      -5.804  -1.000   3.073  0.00  0.00    +0.046 C 
BRANCH   6  13
ATOM      7  C   UNL     1      -8.208   1.508   6.221  0.00  0.00    +0.001 A 
ATOM      8  C   UNL     1      -8.364   0.848   7.432  0.00  0.00    +0.002 A 
ATOM      9  C   UNL     1      -7.841  -0.413   7.619  0.00  0.00    +0.026 A 
ATOM     10  C   UNL     1      -7.147  -1.033   6.584  0.00  0.00    +0.047 A 
ATOM     11  C   UNL     1      -6.991  -0.360   5.359  0.00  0.00    +0.003 A 
ATOM     12  C   UNL     1      -7.530   0.917   5.192  0.00  0.00    +0.010 A 
ATOM     13  C   UNL     1      -6.229  -1.264   4.495  0.00  0.00    -0.022 A 
ATOM     14  C   UNL     1      -5.985  -2.376   5.207  0.00  0.00    +0.087 A 
ATOM     15  N   UNL     1      -6.522  -2.253   6.460  0.00  0.00    -0.360 N 
ATOM     16  H   UNL     1      -6.473  -2.928   7.155  0.00  0.00    +0.165 HD
ENDBRANCH   6  13
ENDBRANCH   5   6
ENDBRANCH   1   5
BRANCH   3  17
ATOM     17  C   UNL     1      -2.514   0.983   0.019  0.00  0.00    +0.139 C 
BRANCH  17  18
ATOM     18  C   UNL     1      -1.219   1.754   0.017  0.00  0.00    -0.025 A 
ATOM     19  C   UNL     1      -0.013   1.076   0.008  0.00  0.00    +0.054 A 
ATOM     20  C   UNL     1       1.175   1.787   0.000  0.00  0.00    +0.164 A 
ATOM     21  C   UNL     1       1.155   3.174   0.007  0.00  0.00    +0.180 A 
ATOM     22  C   UNL     1      -0.054   3.851   0.022  0.00  0.00    +0.086 A 
ATOM     23  C   UNL     1      -1.240   3.136   0.029  0.00  0.00    +0.029 A 
ATOM     24 CL   UNL     1      -0.082   5.587   0.031  0.00  0.00    -0.080 Cl
ATOM     25  O   UNL     1       2.332   3.866   0.001  0.00  0.00    -0.487 OA
ATOM     26  C   UNL     1       3.101   3.779  -1.200  0.00  0.00    +0.232 C 
ATOM     27  C   UNL     1       3.965   2.528  -1.197  0.00  0.00    +0.082 C 
ATOM     28  C   UNL     1       3.138   1.252  -1.213  0.00  0.00    +0.232 C 
ATOM     29  O   UNL     1       2.371   1.130  -0.013  0.00  0.00    -0.488 OA
ENDBRANCH  17  18
ENDBRANCH   3  17
TORSDOF 5
