REMARK  Name = ZINC04784563
REMARK  9 active torsions:
REMARK  status: ('A' for Active; 'I' for Inactive)
REMARK    1  A    between atoms: C_1  and  C_2
REMARK    2  A    between atoms: C_2  and  C_3
REMARK    3  A    between atoms: C_6  and  C_9
REMARK    4  A    between atoms: C_11  and  C_20
REMARK    5  A    between atoms: C_12  and  C_19
REMARK    6  A    between atoms: N_22  and  C_23
REMARK    7  A    between atoms: N_22  and  C_25
REMARK    8  A    between atoms: C_23  and  C_24
REMARK    9  A    between atoms: C_25  and  C_26
REMARK                            x       y       z     vdW  Elec       q    Type
REMARK                         _______ _______ _______ _____ _____    ______ ____
ROOT
ATOM      1  C   UNL     1      -5.477  -1.970   0.004  0.00  0.00    +0.179 C 
ATOM      2  C   UNL     1      -6.404  -0.953  -0.605  0.00  0.00    +0.060 C 
ATOM      3  C   UNL     1      -6.987  -1.116  -1.801  0.00  0.00    +0.018 C 
ATOM      4  N   UNL     1      -6.791  -2.241  -2.566  0.00  0.00    -0.286 N 
ATOM      5  C   UNL     1      -6.175  -3.325  -1.957  0.00  0.00    +0.240 A 
ATOM      6  N   UNL     1      -5.560  -3.215  -0.751  0.00  0.00    -0.201 N 
ATOM      7  N   UNL     1      -5.074  -4.488  -0.461  0.00  0.00    -0.042 NA
ATOM      8  N   UNL     1      -5.404  -5.244  -1.458  0.00  0.00    -0.021 NA
ATOM      9  N   UNL     1      -6.051  -4.563  -2.342  0.00  0.00    -0.092 NA
ATOM     10  C   UNL     1      -7.890  -0.029  -2.325  0.00  0.00    +0.061 C 
ATOM     11  H   UNL     1      -7.072  -2.276  -3.493  0.00  0.00    +0.155 HD
ENDROOT
BRANCH   1  15
ATOM     12  C   UNL     1      -1.468  -0.499  -0.112  0.00  0.00    -0.048 A 
ATOM     13  C   UNL     1      -2.094  -0.705   1.104  0.00  0.00    +0.004 A 
ATOM     14  C   UNL     1      -3.392  -1.181   1.141  0.00  0.00    +0.006 A 
ATOM     15  C   UNL     1      -4.063  -1.451  -0.036  0.00  0.00    -0.018 A 
ATOM     16  C   UNL     1      -3.437  -1.244  -1.252  0.00  0.00    +0.006 A 
ATOM     17  C   UNL     1      -2.142  -0.764  -1.290  0.00  0.00    +0.004 A 
BRANCH  12  19
ATOM     18  C   UNL     1      -0.073   1.549  -0.187  0.00  0.00    +0.009 C 
ATOM     19  C   UNL     1      -0.054   0.020  -0.153  0.00  0.00    +0.032 C 
ENDBRANCH  12  19
ENDBRANCH   1  15
BRANCH   2  20
ATOM     20  C   UNL     1      -6.673   0.233   0.119  0.00  0.00    +0.246 C 
ATOM     21  O   UNL     1      -5.901   1.173   0.058  0.00  0.00    -0.270 OA
ATOM     22  N   UNL     1      -7.784   0.323   0.877  0.00  0.00    -0.298 N 
BRANCH  22  23
ATOM     23  C   UNL     1      -8.766  -0.765   0.869  0.00  0.00    +0.104 C 
ATOM     24  C   UNL     1      -8.498  -1.702   2.048  0.00  0.00    +0.024 C 
ENDBRANCH  22  23
BRANCH  22  25
ATOM     25  C   UNL     1      -8.010   1.507   1.709  0.00  0.00    +0.104 C 
ATOM     26  C   UNL     1      -8.784   2.555   0.905  0.00  0.00    +0.024 C 
ENDBRANCH  22  25
ENDBRANCH   2  20
TORSDOF 5
