REMARK  Name = ZINC17189590
REMARK  5 active torsions:
REMARK  status: ('A' for Active; 'I' for Inactive)
REMARK    1  A    between atoms: C_4  and  C_7
REMARK    2  A    between atoms: C_7  and  S_8
REMARK    3  A    between atoms: S_8  and  C_9
REMARK    4  A    between atoms: C_20  and  C_22
REMARK    5  A    between atoms: C_25  and  O_28
REMARK                            x       y       z     vdW  Elec       q    Type
REMARK                         _______ _______ _______ _____ _____    ______ ____
ROOT
ATOM      1  C   UNL     1       5.740  -1.842  -1.483  0.00  0.00    +0.171 A 
ATOM      2  N   UNL     1       6.474  -2.252  -2.554  0.00  0.00    -0.302 N 
ATOM      3  H   UNL     1       6.156  -2.079  -3.454  0.00  0.00    +0.171 HD
ATOM      4  C   UNL     1       7.643  -2.901  -2.367  0.00  0.00    +0.258 A 
ATOM      5  O   UNL     1       8.309  -3.270  -3.321  0.00  0.00    -0.267 OA
ATOM      6  C   UNL     1       8.076  -3.143  -1.058  0.00  0.00    +0.069 A 
ATOM      7  C   UNL     1       7.290  -2.710  -0.004  0.00  0.00    +0.135 A 
ATOM      8  N   UNL     1       6.146  -2.063  -0.249  0.00  0.00    -0.208 NA
ATOM      9  N   UNL     1       7.698  -2.945   1.294  0.00  0.00    -0.302 N 
ATOM     10  C   UNL     1       8.626  -3.912   1.569  0.00  0.00    +0.017 C 
ATOM     11  C   UNL     1       9.446  -4.380   0.605  0.00  0.00    +0.024 C 
ATOM     12  C   UNL     1       9.370  -3.857  -0.808  0.00  0.00    +0.092 C 
ATOM     13  C   UNL     1      10.403  -5.371   0.886  0.00  0.00    +0.162 C 
ATOM     14  O   UNL     1      11.115  -5.784  -0.008  0.00  0.00    -0.292 OA
ATOM     15  C   UNL     1      10.564  -5.930   2.273  0.00  0.00    +0.080 C 
ATOM     16  C   UNL     1      10.141  -4.866   3.291  0.00  0.00    +0.014 C 
ATOM     17  C   UNL     1       8.703  -4.443   2.979  0.00  0.00    +0.051 C 
ATOM     18  H   UNL     1       7.322  -2.420   2.018  0.00  0.00    +0.153 HD
ENDROOT
BRANCH  12  19
ATOM     19  C   UNL     1      10.513  -2.903  -1.042  0.00  0.00    -0.035 A 
ATOM     20  C   UNL     1      10.608  -1.743  -0.295  0.00  0.00    +0.008 A 
ATOM     21  C   UNL     1      11.657  -0.870  -0.504  0.00  0.00    +0.046 A 
ATOM     22  C   UNL     1      12.610  -1.151  -1.473  0.00  0.00    +0.117 A 
ATOM     23  C   UNL     1      12.509  -2.312  -2.226  0.00  0.00    +0.046 A 
ATOM     24  C   UNL     1      11.461  -3.185  -2.008  0.00  0.00    +0.008 A 
BRANCH  22  25
ATOM     25  O   UNL     1      13.639  -0.289  -1.686  0.00  0.00    -0.507 OA
ATOM     26  H   UNL     1      13.453   0.391  -2.347  0.00  0.00    +0.292 HD
ENDBRANCH  22  25
ENDBRANCH  12  19
BRANCH   1  27
ATOM     27  S   UNL     1       4.220  -0.992  -1.753  0.00  0.00    -0.083 S 
BRANCH  27  28
ATOM     28  C   UNL     1       3.711  -0.707  -0.039  0.00  0.00    +0.112 C 
BRANCH  28  32
ATOM     29  C   UNL     1      -0.017   1.378   0.010  0.00  0.00    +0.000 A 
ATOM     30  C   UNL     1       1.171   2.086   0.002  0.00  0.00    +0.000 A 
ATOM     31  C   UNL     1       2.377   1.411  -0.014  0.00  0.00    +0.004 A 
ATOM     32  C   UNL     1       2.396   0.029  -0.022  0.00  0.00    -0.037 A 
ATOM     33  C   UNL     1       1.208  -0.679  -0.014  0.00  0.00    +0.004 A 
ATOM     34  C   UNL     1       0.002  -0.004   0.002  0.00  0.00    +0.000 A 
ENDBRANCH  28  32
ENDBRANCH  27  28
ENDBRANCH   1  27
TORSDOF 5
