REMARK  Name = ZINC33538512
REMARK  6 active torsions:
REMARK  status: ('A' for Active; 'I' for Inactive)
REMARK    1  A    between atoms: C_1  and  O_2
REMARK    2  A    between atoms: O_2  and  C_3
REMARK    3  A    between atoms: C_13  and  C_29
REMARK    4  A    between atoms: C_15  and  C_16
REMARK    5  A    between atoms: C_16  and  C_17
REMARK    6  A    between atoms: C_32  and  O_35
REMARK                            x       y       z     vdW  Elec       q    Type
REMARK                         _______ _______ _______ _____ _____    ______ ____
ROOT
ATOM      1  C   UNL     1      -0.085  -0.086  -1.352  0.00  0.00    +0.121 A 
ATOM      2  C   UNL     1       1.095  -0.715  -0.968  0.00  0.00    +0.048 A 
ATOM      3  C   UNL     1       1.149  -2.055  -0.745  0.00  0.00    +0.032 A 
ATOM      4  C   UNL     1       0.001  -2.865  -0.909  0.00  0.00    +0.081 A 
ATOM      5  C   UNL     1      -1.182  -2.201  -1.306  0.00  0.00    +0.044 A 
ATOM      6  C   UNL     1      -1.232  -0.847  -1.524  0.00  0.00    +0.063 A 
ATOM      7  S   UNL     1      -2.353  -3.534  -1.396  0.00  0.00    -0.052 S 
ATOM      8  C   UNL     1      -1.237  -4.846  -0.918  0.00  0.00    +0.169 A 
ATOM      9  N   UNL     1      -0.109  -4.201  -0.734  0.00  0.00    -0.224 NA
ATOM     10  N   UNL     1      -1.497  -6.198  -0.777  0.00  0.00    -0.232 N 
ATOM     11  C   UNL     1      -0.520  -7.216  -0.379  0.00  0.00    +0.152 C 
ATOM     12  C   UNL     1      -1.254  -8.537  -0.362  0.00  0.00    +0.077 C 
ATOM     13  C   UNL     1      -2.577  -8.253  -0.735  0.00  0.00    +0.250 C 
ATOM     14  O   UNL     1      -3.479  -9.064  -0.841  0.00  0.00    -0.282 OA
ATOM     15  C   UNL     1      -2.686  -6.790  -0.979  0.00  0.00    +0.293 C 
ATOM     16  O   UNL     1      -3.701  -6.214  -1.313  0.00  0.00    -0.266 OA
ENDROOT
BRANCH  11  17
ATOM     17  C   UNL     1       0.017  -6.906   0.995  0.00  0.00    -0.022 A 
ATOM     18  C   UNL     1      -0.826  -6.402   1.968  0.00  0.00    +0.009 A 
ATOM     19  C   UNL     1      -0.337  -6.122   3.229  0.00  0.00    +0.046 A 
ATOM     20  C   UNL     1       1.003  -6.337   3.516  0.00  0.00    +0.117 A 
ATOM     21  C   UNL     1       1.848  -6.837   2.536  0.00  0.00    +0.046 A 
ATOM     22  C   UNL     1       1.353  -7.121   1.278  0.00  0.00    +0.009 A 
BRANCH  20  23
ATOM     23  O   UNL     1       1.487  -6.057   4.755  0.00  0.00    -0.507 OA
ATOM     24  H   UNL     1       2.550  -6.228   4.981  0.00  0.00    +0.292 HD
ENDBRANCH  20  23
ENDBRANCH  11  17
BRANCH   1  26
ATOM     25  C   UNL     1       1.111   1.970  -1.365  0.00  0.00    +0.277 C 
ATOM     26  O   UNL     1      -0.112   1.257  -1.563  0.00  0.00    -0.495 OA
ENDBRANCH   1  26
BRANCH  12  27
ATOM     27  C   UNL     1      -0.729  -9.773  -0.043  0.00  0.00    +0.195 C 
ATOM     28  O   UNL     1       0.598  -9.910   0.164  0.00  0.00    -0.287 OA
BRANCH  27  29
ATOM     29  C   UNL     1      -1.617 -10.942   0.071  0.00  0.00    +0.022 A 
ATOM     30  C   UNL     1      -2.760 -10.881   0.876  0.00  0.00    +0.014 A 
ATOM     31  C   UNL     1      -3.589 -11.977   0.975  0.00  0.00    +0.039 A 
ATOM     32  C   UNL     1      -3.286 -13.143   0.287  0.00  0.00    +0.123 A 
ATOM     33  C   UNL     1      -2.152 -13.212  -0.509  0.00  0.00    +0.039 A 
ATOM     34  C   UNL     1      -1.318 -12.121  -0.620  0.00  0.00    +0.014 A 
ATOM     35  F   UNL     1      -4.100 -14.216   0.392  0.00  0.00    -0.205 F 
ENDBRANCH  27  29
ENDBRANCH  12  27
TORSDOF 5
