REMARK  Name = ZINC36485550
REMARK  9 active torsions:
REMARK  status: ('A' for Active; 'I' for Inactive)
REMARK    1  A    between atoms: C_4  and  O_31
REMARK    2  A    between atoms: C_5  and  C_7
REMARK    3  A    between atoms: C_7  and  C_9
REMARK    4  A    between atoms: C_7  and  N_18
REMARK    5  A    between atoms: N_11  and  C_12
REMARK    6  A    between atoms: N_18  and  C_19
REMARK    7  A    between atoms: C_26  and  C_28
REMARK    8  A    between atoms: C_28  and  C_29
REMARK    9  A    between atoms: C_29  and  S_30
REMARK                            x       y       z     vdW  Elec       q    Type
REMARK                         _______ _______ _______ _____ _____    ______ ____
ROOT
ATOM      1  C   UNL     1       1.306  -2.648  -0.083  0.00  0.00    +0.201 C 
ENDROOT
BRANCH   1   6
ATOM      2  C   UNL     1       1.526   0.098  -2.665  0.00  0.00    +0.001 A 
ATOM      3  C   UNL     1       1.825   1.197  -1.879  0.00  0.00    +0.004 A 
ATOM      4  C   UNL     1       1.957   1.054  -0.512  0.00  0.00    +0.046 A 
ATOM      5  C   UNL     1       1.789  -0.192   0.074  0.00  0.00    +0.122 A 
ATOM      6  C   UNL     1       1.489  -1.292  -0.716  0.00  0.00    +0.024 A 
ATOM      7  C   UNL     1       1.358  -1.145  -2.083  0.00  0.00    +0.009 A 
BRANCH   5   8
ATOM      8  O   UNL     1       1.919  -0.335   1.419  0.00  0.00    -0.506 OA
ATOM      9  H   UNL     1       1.095  -0.213   1.909  0.00  0.00    +0.292 HD
ENDBRANCH   5   8
ENDBRANCH   1   6
BRANCH   1  10
ATOM     10  C   UNL     1       1.408  -3.715  -1.142  0.00  0.00    +0.239 C 
ATOM     11  O   UNL     1       0.471  -4.459  -1.345  0.00  0.00    -0.273 OA
ATOM     12  N   UNL     1       2.538  -3.842  -1.864  0.00  0.00    -0.311 N 
ATOM     13  H   UNL     1       3.287  -3.247  -1.702  0.00  0.00    +0.149 HD
BRANCH  12  14
ATOM     14  C   UNL     1       2.637  -4.880  -2.894  0.00  0.00    +0.073 C 
ATOM     15  C   UNL     1       3.073  -6.197  -2.251  0.00  0.00    +0.022 C 
ATOM     16  C   UNL     1       3.176  -7.280  -3.326  0.00  0.00    +0.002 C 
ATOM     17  C   UNL     1       4.206  -6.860  -4.377  0.00  0.00    +0.000 C 
ATOM     18  C   UNL     1       3.770  -5.542  -5.020  0.00  0.00    +0.002 C 
ATOM     19  C   UNL     1       3.667  -4.459  -3.944  0.00  0.00    +0.022 C 
ENDBRANCH  12  14
ENDBRANCH   1  10
BRANCH   1  20
ATOM     20  N   UNL     1      -0.011  -2.716   0.554  0.00  0.00    -0.255 N 
ATOM     21  C   UNL     1      -0.115  -3.062   1.853  0.00  0.00    +0.221 C 
ATOM     22  O   UNL     1       0.872  -3.402   2.470  0.00  0.00    -0.275 OA
BRANCH  20  23
ATOM     23  C   UNL     1      -1.162  -2.421  -0.185  0.00  0.00    +0.039 A 
ATOM     24  C   UNL     1      -2.020  -3.442  -0.573  0.00  0.00    +0.023 A 
ATOM     25  C   UNL     1      -3.155  -3.149  -1.303  0.00  0.00    +0.003 A 
ATOM     26  C   UNL     1      -3.438  -1.840  -1.649  0.00  0.00    +0.020 A 
ATOM     27  C   UNL     1      -2.585  -0.820  -1.264  0.00  0.00    +0.043 A 
ATOM     28  C   UNL     1      -1.451  -1.107  -0.528  0.00  0.00    +0.043 A 
ATOM     29 CL   UNL     1      -2.944   0.821  -1.701  0.00  0.00    -0.083 Cl
ENDBRANCH  20  23
BRANCH  21  30
ATOM     30  C   UNL     1      -1.457  -3.026   2.537  0.00  0.00    +0.107 C 
BRANCH  30  31
ATOM     31  C   UNL     1      -1.284  -3.376   4.017  0.00  0.00    +0.075 C 
BRANCH  31  32
ATOM     32  S   UNL     1      -2.900  -3.332   4.841  0.00  0.00    -0.178 S 
ATOM     33  H   UNL     1      -2.622  -3.652   6.118  0.00  0.00    +0.102 HD
ENDBRANCH  31  32
ENDBRANCH  30  31
ENDBRANCH  21  30
ENDBRANCH   1  20
TORSDOF 9
