REMARK  Name = ZINC05901916
REMARK  8 active torsions:
REMARK  status: ('A' for Active; 'I' for Inactive)
REMARK    1  A    between atoms: C_1  and  C_2
REMARK    2  A    between atoms: C_2  and  C_3
REMARK    3  A    between atoms: C_2  and  C_4
REMARK    4  A    between atoms: C_2  and  C_5
REMARK    5  A    between atoms: C_12  and  N_17
REMARK    6  A    between atoms: C_13  and  C_14
REMARK    7  A    between atoms: C_18  and  C_20
REMARK    8  A    between atoms: C_21  and  C_22
REMARK                            x       y       z     vdW  Elec       q    Type
REMARK                         _______ _______ _______ _____ _____    ______ ____
ROOT
ATOM      1  C   UNL     1       0.718  -0.497  -1.257  0.00  0.00    -0.000 C 
ATOM      2  C   UNL     1       0.746  -2.029  -1.264  0.00  0.00    +0.009 C 
ATOM      3  C   UNL     1       1.234  -2.534  -2.624  0.00  0.00    +0.037 C 
ATOM      4  C   UNL     1       2.546  -1.840  -2.959  0.00  0.00    -0.023 A 
ATOM      5  C   UNL     1       2.920  -0.705  -2.330  0.00  0.00    -0.004 A 
ATOM      6  S   UNL     1       4.484  -0.290  -3.046  0.00  0.00    -0.077 S 
ATOM      7  C   UNL     1       4.646  -1.558  -4.135  0.00  0.00    +0.085 A 
ATOM      8  C   UNL     1       3.496  -2.310  -3.953  0.00  0.00    +0.068 A 
ATOM      9  C   UNL     1       2.161   0.028  -1.267  0.00  0.00    +0.046 C 
ENDROOT
BRANCH   8  10
ATOM     10  C   UNL     1       3.248  -3.528  -4.730  0.00  0.00    +0.244 C 
ATOM     11  O   UNL     1       2.655  -3.463  -5.791  0.00  0.00    -0.270 OA
ATOM     12  N   UNL     1       3.678  -4.720  -4.269  0.00  0.00    -0.325 N 
ATOM     13  H   UNL     1       4.150  -4.772  -3.424  0.00  0.00    +0.145 HD
ATOM     14  H   UNL     1       3.514  -5.526  -4.783  0.00  0.00    +0.145 HD
ENDBRANCH   8  10
BRANCH   1  16
ATOM     15  C   UNL     1      -0.019   1.526   0.010  0.00  0.00    +0.011 C 
ATOM     16  C   UNL     1       0.002  -0.004   0.002  0.00  0.00    -0.035 C 
ATOM     17  C   UNL     1       0.742  -0.511   1.242  0.00  0.00    +0.011 C 
ATOM     18  C   UNL     1      -1.433  -0.534   0.013  0.00  0.00    +0.011 C 
ENDBRANCH   1  16
BRANCH   7  19
ATOM     19  N   UNL     1       5.690  -1.798  -5.013  0.00  0.00    -0.276 N 
ATOM     20  C   UNL     1       6.740  -0.954  -5.058  0.00  0.00    +0.241 C 
ATOM     21  O   UNL     1       6.772   0.018  -4.327  0.00  0.00    -0.270 OA
ATOM     22  H   UNL     1       5.665  -2.572  -5.596  0.00  0.00    +0.156 HD
BRANCH  20  23
ATOM     23  C   UNL     1       7.843  -1.207  -5.986  0.00  0.00    +0.068 C 
ATOM     24  C   UNL     1       8.894  -0.363  -6.031  0.00  0.00    +0.013 C 
BRANCH  24  25
ATOM     25  C   UNL     1      10.003  -0.618  -6.964  0.00  0.00    -0.025 A 
ATOM     26  C   UNL     1       9.967  -1.731  -7.810  0.00  0.00    +0.009 A 
ATOM     27  C   UNL     1      11.009  -1.963  -8.682  0.00  0.00    +0.020 A 
ATOM     28  C   UNL     1      12.090  -1.097  -8.722  0.00  0.00    +0.041 A 
ATOM     29  C   UNL     1      12.132   0.008  -7.886  0.00  0.00    +0.020 A 
ATOM     30  C   UNL     1      11.094   0.256  -7.013  0.00  0.00    +0.009 A 
ATOM     31 CL   UNL     1      13.398  -1.397  -9.823  0.00  0.00    -0.084 Cl
ENDBRANCH  24  25
ENDBRANCH  20  23
ENDBRANCH   7  19
TORSDOF 5
