REMARK  Name = ZINC08972032
REMARK  3 active torsions:
REMARK  status: ('A' for Active; 'I' for Inactive)
REMARK    1  A    between atoms: C_7  and  C_12
REMARK    2  A    between atoms: N_16  and  C_19
REMARK    3  A    between atoms: C_19  and  C_20
REMARK                            x       y       z     vdW  Elec       q    Type
REMARK                         _______ _______ _______ _____ _____    ______ ____
ROOT
ATOM      1  C   UNL     1       1.046  -2.812   1.212  0.00  0.00    +0.126 A 
ATOM      2  C   UNL     1       0.097  -3.786   1.112  0.00  0.00    +0.265 A 
ATOM      3  N   UNL     1      -0.374  -4.390   2.250  0.00  0.00    -0.274 N 
ATOM      4  C   UNL     1       0.095  -4.027   3.458  0.00  0.00    +0.332 A 
ATOM      5  N   UNL     1       1.031  -3.068   3.578  0.00  0.00    -0.256 N 
ATOM      6  C   UNL     1       1.525  -2.454   2.485  0.00  0.00    +0.268 A 
ATOM      7  O   UNL     1       2.377  -1.589   2.598  0.00  0.00    -0.267 OA
ATOM      8  O   UNL     1      -0.334  -4.573   4.456  0.00  0.00    -0.246 OA
ATOM      9  O   UNL     1      -0.376  -4.153  -0.098  0.00  0.00    -0.267 OA
ATOM     10  H   UNL     1      -1.049  -5.084   2.184  0.00  0.00    +0.173 HD
ENDROOT
BRANCH   1  17
ATOM     11  C   UNL     1      -0.017   1.381   0.010  0.00  0.00    +0.000 A 
ATOM     12  C   UNL     1       1.169   2.094   0.002  0.00  0.00    +0.001 A 
ATOM     13  C   UNL     1       2.380   1.432  -0.013  0.00  0.00    +0.015 A 
ATOM     14  C   UNL     1       2.406   0.037  -0.021  0.00  0.00    +0.066 A 
ATOM     15  C   UNL     1       1.203  -0.674  -0.013  0.00  0.00    +0.012 A 
ATOM     16  C   UNL     1       0.002  -0.004   0.002  0.00  0.00    +0.008 A 
ATOM     17  C   UNL     1       1.578  -2.134  -0.024  0.00  0.00    +0.248 C 
ATOM     18  O   UNL     1       3.007  -2.192  -0.038  0.00  0.00    -0.448 OA
ATOM     19  C   UNL     1       3.506  -0.945  -0.037  0.00  0.00    +0.340 C 
ATOM     20  O   UNL     1       4.688  -0.667  -0.047  0.00  0.00    -0.245 OA
ENDBRANCH   1  17
BRANCH   5  21
ATOM     21  C   UNL     1       1.521  -2.692   4.906  0.00  0.00    +0.165 C 
BRANCH  21  22
ATOM     22  C   UNL     1       2.710  -3.547   5.263  0.00  0.00    -0.027 A 
ATOM     23  C   UNL     1       2.524  -4.750   5.919  0.00  0.00    +0.008 A 
ATOM     24  C   UNL     1       3.614  -5.535   6.246  0.00  0.00    +0.038 A 
ATOM     25  C   UNL     1       4.892  -5.116   5.916  0.00  0.00    +0.123 A 
ATOM     26  C   UNL     1       5.077  -3.912   5.259  0.00  0.00    +0.038 A 
ATOM     27  C   UNL     1       3.985  -3.131   4.928  0.00  0.00    +0.008 A 
ATOM     28  F   UNL     1       5.957  -5.883   6.236  0.00  0.00    -0.205 F 
ENDBRANCH  21  22
ENDBRANCH   5  21
TORSDOF 3
