REMARK  Name = ZINC03204110
REMARK  10 active torsions:
REMARK  status: ('A' for Active; 'I' for Inactive)
REMARK    1  A    between atoms: C_1  and  C_2
REMARK    2  A    between atoms: C_2  and  N_3
REMARK    3  A    between atoms: N_3  and  C_4
REMARK    4  A    between atoms: N_3  and  C_6
REMARK    5  A    between atoms: C_4  and  C_5
REMARK    6  A    between atoms: C_9  and  C_12
REMARK    7  A    between atoms: C_21  and  C_29
REMARK    8  A    between atoms: C_22  and  N_28
REMARK    9  A    between atoms: C_23  and  C_24
REMARK   10  A    between atoms: C_23  and  C_26
REMARK                            x       y       z     vdW  Elec       q    Type
REMARK                         _______ _______ _______ _____ _____    ______ ____
ROOT
ATOM      1  C   UNL     1       4.317  -2.794   2.401  0.00  0.00    +0.066 C 
ATOM      2  C   UNL     1       5.608  -2.497   1.636  0.00  0.00    +0.030 C 
ATOM      3  C   UNL     1       5.443  -2.677   0.147  0.00  0.00    +0.009 C 
ATOM      4  C   UNL     1       6.009  -4.012  -0.334  0.00  0.00    +0.005 C 
ATOM      5  C   UNL     1       7.495  -4.071   0.044  0.00  0.00    +0.027 C 
ATOM      6  C   UNL     1       7.591  -3.995   1.548  0.00  0.00    -0.022 C 
ATOM      7  C   UNL     1       6.715  -3.303   2.249  0.00  0.00    -0.029 C 
ATOM      8  C   UNL     1       6.801  -3.306   3.733  0.00  0.00    +0.074 C 
ATOM      9  C   UNL     1       5.745  -2.863   4.460  0.00  0.00    +0.054 C 
ATOM     10  C   UNL     1       4.481  -2.336   3.850  0.00  0.00    +0.188 C 
ENDROOT
BRANCH   1  14
ATOM     11  C   UNL     1       1.065  -0.691   0.593  0.00  0.00    +0.030 A 
ATOM     12  C   UNL     1       2.279  -0.049   0.802  0.00  0.00    +0.023 A 
ATOM     13  C   UNL     1       3.326  -0.730   1.391  0.00  0.00    +0.006 A 
ATOM     14  C   UNL     1       3.170  -2.053   1.763  0.00  0.00    -0.041 A 
ATOM     15  C   UNL     1       1.965  -2.696   1.552  0.00  0.00    +0.006 A 
ATOM     16  C   UNL     1       0.912  -2.020   0.968  0.00  0.00    +0.023 A 
BRANCH  11  17
ATOM     17  N   UNL     1       0.002  -0.004   0.002  0.00  0.00    -0.330 N 
BRANCH  17  19
ATOM     18  C   UNL     1      -0.231   2.305   0.773  0.00  0.00    +0.024 C 
ATOM     19  C   UNL     1       0.165   1.397  -0.393  0.00  0.00    +0.102 C 
ENDBRANCH  17  19
BRANCH  17  20
ATOM     20  C   UNL     1      -1.276  -0.684  -0.223  0.00  0.00    +0.102 C 
ATOM     21  C   UNL     1      -1.267  -1.341  -1.605  0.00  0.00    +0.024 C 
ENDBRANCH  17  20
ENDBRANCH  11  17
ENDBRANCH   1  14
BRANCH   9  22
ATOM     22  N   UNL     1       5.838  -2.897   5.823  0.00  0.00    -0.358 N 
ATOM     23  H   UNL     1       5.000  -2.545   6.441  0.00  0.00    +0.142 HD
ATOM     24  H   UNL     1       6.753  -3.278   6.301  0.00  0.00    +0.142 HD
ENDBRANCH   9  22
BRANCH  10  25
ATOM     25  C   UNL     1       4.507  -0.864   3.888  0.00  0.00    +0.091 C 
ATOM     26  N   UNL     1       4.527   0.271   3.917  0.00  0.00    -0.194 NA
ENDBRANCH  10  25
BRANCH  10  27
ATOM     27  C   UNL     1       3.334  -2.815   4.638  0.00  0.00    +0.091 C 
ATOM     28  N   UNL     1       2.448  -3.186   5.246  0.00  0.00    -0.194 NA
ENDBRANCH  10  27
BRANCH   8  29
ATOM     29  C   UNL     1       7.986  -3.773   4.388  0.00  0.00    +0.101 C 
ATOM     30  N   UNL     1       8.926  -4.144   4.908  0.00  0.00    -0.191 NA
ENDBRANCH   8  29
TORSDOF 8
