REMARK  Name = ZINC02399537
REMARK  4 active torsions:
REMARK  status: ('A' for Active; 'I' for Inactive)
REMARK    1  A    between atoms: C_4  and  C_7
REMARK    2  A    between atoms: C_10  and  O_29
REMARK    3  A    between atoms: C_18  and  C_20
REMARK    4  A    between atoms: C_21  and  C_22
REMARK                            x       y       z     vdW  Elec       q    Type
REMARK                         _______ _______ _______ _____ _____    ______ ____
ROOT
ATOM      1  C   UNL     1       3.711  -0.707  -0.038  0.00  0.00    +0.150 C 
ATOM      2  C   UNL     1       3.791  -1.596  -1.284  0.00  0.00    +0.127 C 
ATOM      3  C   UNL     1       2.975  -2.845  -1.113  0.00  0.00    +0.193 C 
ATOM      4  N   UNL     1       2.822  -3.433   0.041  0.00  0.00    -0.180 NA
ATOM      5  C   UNL     1       3.383  -2.861   1.144  0.00  0.00    +0.254 A 
ATOM      6  N   UNL     1       3.812  -1.567   1.141  0.00  0.00    -0.220 N 
ATOM      7  N   UNL     1       4.317  -1.306   2.411  0.00  0.00    -0.131 NA
ATOM      8  C   UNL     1       4.183  -2.415   3.107  0.00  0.00    +0.243 A 
ATOM      9  N   UNL     1       3.618  -3.355   2.334  0.00  0.00    -0.176 NA
ATOM     10  N   UNL     1       4.569  -2.586   4.439  0.00  0.00    -0.250 N 
ATOM     11  C   UNL     1       4.380  -3.774   5.048  0.00  0.00    +0.243 C 
ATOM     12  O   UNL     1       3.874  -4.697   4.438  0.00  0.00    -0.270 OA
ATOM     13  H   UNL     1       4.972  -1.851   4.926  0.00  0.00    +0.158 HD
ENDROOT
BRANCH   1  17
ATOM     14  C   UNL     1      -0.017   1.378   0.010  0.00  0.00    +0.000 A 
ATOM     15  C   UNL     1       1.171   2.086   0.002  0.00  0.00    +0.000 A 
ATOM     16  C   UNL     1       2.377   1.411  -0.013  0.00  0.00    +0.006 A 
ATOM     17  C   UNL     1       2.396   0.029  -0.020  0.00  0.00    -0.023 A 
ATOM     18  C   UNL     1       1.208  -0.679  -0.012  0.00  0.00    +0.006 A 
ATOM     19  C   UNL     1       0.002  -0.004   0.002  0.00  0.00    +0.000 A 
ENDBRANCH   1  17
BRANCH  11  20
ATOM     20  C   UNL     1       4.784  -3.953   6.443  0.00  0.00    +0.068 C 
ATOM     21  C   UNL     1       4.595  -5.141   7.053  0.00  0.00    +0.013 C 
BRANCH  21  22
ATOM     22  C   UNL     1       5.001  -5.322   8.456  0.00  0.00    -0.025 A 
ATOM     23  C   UNL     1       5.577  -4.261   9.162  0.00  0.00    +0.009 A 
ATOM     24  C   UNL     1       5.955  -4.437  10.476  0.00  0.00    +0.020 A 
ATOM     25  C   UNL     1       5.765  -5.661  11.097  0.00  0.00    +0.041 A 
ATOM     26  C   UNL     1       5.195  -6.716  10.403  0.00  0.00    +0.020 A 
ATOM     27  C   UNL     1       4.806  -6.553   9.091  0.00  0.00    +0.009 A 
ATOM     28 CL   UNL     1       6.245  -5.874  12.751  0.00  0.00    -0.084 Cl
ENDBRANCH  21  22
ENDBRANCH  11  20
BRANCH   3  29
ATOM     29  O   UNL     1       2.378  -3.381  -2.195  0.00  0.00    -0.495 OA
ATOM     30  H   UNL     1       1.871  -4.183  -2.008  0.00  0.00    +0.293 HD
ENDBRANCH   3  29
TORSDOF 4
