REMARK  Name = ZINC21660584
REMARK  4 active torsions:
REMARK  status: ('A' for Active; 'I' for Inactive)
REMARK    1  A    between atoms: C_1  and  C_2
REMARK    2  A    between atoms: C_12  and  O_16
REMARK    3  A    between atoms: O_16  and  C_17
REMARK    4  A    between atoms: C_22  and  C_24
REMARK                            x       y       z     vdW  Elec       q    Type
REMARK                         _______ _______ _______ _____ _____    ______ ____
ROOT
ATOM      1  C   UNL     1       2.982   4.900   0.331  0.00  0.00    +0.068 C 
ATOM      2  C   UNL     1       2.507   3.481   0.153  0.00  0.00    +0.066 A 
ATOM      3  C   UNL     1       1.190   3.049   0.230  0.00  0.00    +0.023 A 
ATOM      4  C   UNL     1       1.174   1.699   0.000  0.00  0.00    +0.135 A 
ATOM      5  N   UNL     1       2.451   1.303  -0.192  0.00  0.00    -0.193 N 
ATOM      6  N   UNL     1       3.268   2.442  -0.101  0.00  0.00    -0.168 NA
ATOM      7  C   UNL     1       2.880   0.003  -0.436  0.00  0.00    +0.196 A 
ATOM      8  N   UNL     1       2.168  -1.095  -0.525  0.00  0.00    -0.221 NA
ATOM      9  C   UNL     1       2.721  -2.302  -0.773  0.00  0.00    +0.081 A 
ATOM     10  C   UNL     1       2.071  -3.551  -0.898  0.00  0.00    +0.032 A 
ATOM     11  C   UNL     1       2.778  -4.686  -1.146  0.00  0.00    +0.048 A 
ATOM     12  C   UNL     1       4.163  -4.666  -1.285  0.00  0.00    +0.121 A 
ATOM     13  C   UNL     1       4.838  -3.460  -1.169  0.00  0.00    +0.063 A 
ATOM     14  C   UNL     1       4.128  -2.312  -0.920  0.00  0.00    +0.044 A 
ATOM     15  S   UNL     1       4.542  -0.598  -0.700  0.00  0.00    -0.048 S 
ATOM     16  N   UNL     1      -0.011   0.966   0.007  0.00  0.00    -0.270 N 
ATOM     17  C   UNL     1      -1.178   1.644   0.017  0.00  0.00    +0.219 C 
ATOM     18  O   UNL     1      -2.212   1.033   0.190  0.00  0.00    -0.275 OA
ATOM     19  C   UNL     1      -1.238   3.132  -0.177  0.00  0.00    +0.109 C 
ATOM     20  C   UNL     1      -0.065   3.833   0.517  0.00  0.00    +0.063 C 
ATOM     21  H   UNL     1       0.022  -0.134   0.006  0.00  0.00    +0.156 HD
ENDROOT
BRANCH  20  22
ATOM     22  C   UNL     1      -0.307   3.877   2.004  0.00  0.00    -0.037 A 
ATOM     23  C   UNL     1      -0.355   5.093   2.660  0.00  0.00    +0.004 A 
ATOM     24  C   UNL     1      -0.577   5.135   4.024  0.00  0.00    +0.003 A 
ATOM     25  C   UNL     1      -0.752   3.962   4.733  0.00  0.00    +0.038 A 
ATOM     26  C   UNL     1      -0.705   2.744   4.077  0.00  0.00    +0.124 A 
ATOM     27  C   UNL     1      -0.488   2.703   2.710  0.00  0.00    +0.042 A 
ATOM     28  F   UNL     1      -0.876   1.596   4.769  0.00  0.00    -0.205 F 
ENDBRANCH  20  22
BRANCH  12  29
ATOM     29  O   UNL     1       4.846  -5.815  -1.532  0.00  0.00    -0.495 OA
ATOM     30  C   UNL     1       4.079  -7.016  -1.638  0.00  0.00    +0.277 C 
ENDBRANCH  12  29
TORSDOF 2
