REMARK  Name = ZINC09109176
REMARK  7 active torsions:
REMARK  status: ('A' for Active; 'I' for Inactive)
REMARK    1  A    between atoms: C_1  and  C_2
REMARK    2  A    between atoms: C_2  and  N_56
REMARK    3  A    between atoms: C_17  and  O_28
REMARK    4  A    between atoms: N_21  and  C_24
REMARK    5  A    between atoms: C_24  and  C_25
REMARK    6  A    between atoms: C_24  and  C_26
REMARK    7  A    between atoms: C_24  and  C_27
REMARK                            x       y       z     vdW  Elec       q    Type
REMARK                         _______ _______ _______ _____ _____    ______ ____
ROOT
ATOM      1  C   UNL     1       0.668   4.005  -1.210  0.00  0.00    -0.060 C 
ATOM      2  C   UNL     1       1.364   3.502   0.058  0.00  0.00    +0.087 C 
ATOM      3  N   UNL     1       1.322   2.034   0.080  0.00  0.00    -0.329 N 
ATOM      4  C   UNL     1       2.075   1.509   1.125  0.00  0.00    +0.034 A 
ATOM      5  C   UNL     1       3.233   2.192   1.501  0.00  0.00    +0.023 A 
ATOM      6  C   UNL     1       4.029   1.710   2.518  0.00  0.00    +0.003 A 
ATOM      7  C   UNL     1       3.681   0.543   3.174  0.00  0.00    +0.020 A 
ATOM      8  C   UNL     1       2.534  -0.136   2.809  0.00  0.00    +0.046 A 
ATOM      9  C   UNL     1       1.728   0.344   1.787  0.00  0.00    -0.007 A 
ATOM     10  C   UNL     1       0.485  -0.436   1.437  0.00  0.00    +0.065 C 
ATOM     11  C   UNL     1      -0.038   0.014   0.069  0.00  0.00    +0.141 C 
ATOM     12  C   UNL     1      -0.058   1.546   0.056  0.00  0.00    +0.081 C 
ATOM     13  C   UNL     1      -0.753   2.042  -1.214  0.00  0.00    -0.055 C 
ATOM     14  C   UNL     1       0.879  -0.486  -1.010  0.00  0.00    +0.198 C 
ATOM     15  N   UNL     1       0.469  -1.265  -1.964  0.00  0.00    -0.131 NA
ATOM     16  C   UNL     1      -0.802  -1.682  -2.060  0.00  0.00    +0.335 C 
ATOM     17  O   UNL     1      -1.120  -2.412  -2.979  0.00  0.00    -0.250 OA
ATOM     18  N   UNL     1      -1.733  -1.313  -1.166  0.00  0.00    -0.218 N 
ATOM     19  C   UNL     1      -1.432  -0.509  -0.134  0.00  0.00    +0.240 C 
ATOM     20  O   UNL     1      -2.302  -0.199   0.651  0.00  0.00    -0.274 OA
ATOM     21 CL   UNL     1       2.100  -1.600   3.634  0.00  0.00    -0.083 Cl
ATOM     22  N   UNL     1      -0.729   3.522  -1.217  0.00  0.00    +0.382 N 
ATOM     23  H   UNL     1      -1.204   3.865  -0.373  0.00  0.00    -0.082 HD
ENDROOT
BRANCH  18  24
ATOM     24  C   UNL     1      -3.107  -1.797  -1.320  0.00  0.00    +0.038 C 
ATOM     25  C   UNL     1      -3.101  -3.323  -1.429  0.00  0.00    +0.032 C 
ATOM     26  C   UNL     1      -3.936  -1.377  -0.104  0.00  0.00    +0.032 C 
ATOM     27  C   UNL     1      -3.720  -1.198  -2.587  0.00  0.00    +0.032 C 
ENDBRANCH  18  24
BRANCH  22  29
ATOM     28  C   UNL     1      -1.593   5.552  -2.273  0.00  0.00    -0.017 C 
ATOM     29  C   UNL     1      -1.436   4.036  -2.409  0.00  0.00    -0.082 C 
ENDBRANCH  22  29
BRANCH  14  30
ATOM     30  O   UNL     1       2.169  -0.114  -0.987  0.00  0.00    -0.496 OA
ATOM     31  H   UNL     1       2.736  -0.451  -1.694  0.00  0.00    +0.293 HD
ENDBRANCH  14  30
TORSDOF 3
