REMARK  Name = ZINC45594155
REMARK  12 active torsions:
REMARK  status: ('A' for Active; 'I' for Inactive)
REMARK    1  A    between atoms: C_1  and  C_2
REMARK    2  A    between atoms: C_2  and  C_4
REMARK    3  A    between atoms: C_2  and  S_14
REMARK    4  A    between atoms: N_10  and  C_11
REMARK    5  A    between atoms: N_10  and  C_12
REMARK    6  A    between atoms: S_14  and  C_15
REMARK    7  A    between atoms: C_18  and  C_21
REMARK    8  A    between atoms: N_19  and  N_20
REMARK    9  A    between atoms: C_24  and  C_27
REMARK   10  A    between atoms: C_27  and  C_28
REMARK   11  A    between atoms: C_27  and  C_29
REMARK   12  A    between atoms: C_27  and  C_30
REMARK                            x       y       z     vdW  Elec       q    Type
REMARK                         _______ _______ _______ _____ _____    ______ ____
ROOT
ATOM      1  C   UNL     1      -0.189  -0.057  -2.809  0.00  0.00    +0.209 A 
ATOM      2  N   UNL     1      -1.313   0.615  -2.693  0.00  0.00    -0.121 NA
ATOM      3  N   UNL     1      -1.815   0.839  -3.855  0.00  0.00    -0.127 NA
ATOM      4  C   UNL     1      -1.044   0.324  -4.783  0.00  0.00    +0.182 A 
ATOM      5  N   UNL     1       0.025  -0.260  -4.142  0.00  0.00    -0.224 N 
ENDROOT
BRANCH   4   6
ATOM      6  C   UNL     1      -1.275   0.369  -6.243  0.00  0.00    +0.021 A 
ATOM      7  C   UNL     1      -0.561  -0.477  -7.092  0.00  0.00    +0.012 A 
ATOM      8  C   UNL     1      -0.782  -0.430  -8.453  0.00  0.00    +0.005 A 
ATOM      9  C   UNL     1      -1.710   0.453  -8.976  0.00  0.00    -0.042 A 
ATOM     10  C   UNL     1      -2.420   1.295  -8.140  0.00  0.00    +0.005 A 
ATOM     11  C   UNL     1      -2.213   1.254  -6.777  0.00  0.00    +0.012 A 
BRANCH   9  12
ATOM     12  C   UNL     1      -1.946   0.499 -10.464  0.00  0.00    -0.013 C 
ATOM     13  C   UNL     1      -2.425  -0.872 -10.947  0.00  0.00    +0.015 C 
ATOM     14  C   UNL     1      -3.011   1.551 -10.779  0.00  0.00    +0.015 C 
ATOM     15  C   UNL     1      -0.642   0.863 -11.177  0.00  0.00    +0.015 C 
ENDBRANCH   9  12
ENDBRANCH   4   6
BRANCH   5  16
ATOM     16  N   UNL     1       1.078  -0.911  -4.720  0.00  0.00    -0.295 N 
ATOM     17  H   UNL     1       0.881  -1.895  -4.825  0.00  0.00    +0.163 HD
ATOM     18  H   UNL     1       1.319  -0.493  -5.606  0.00  0.00    +0.163 HD
ENDBRANCH   5  16
BRANCH   1  19
ATOM     19  S   UNL     1       0.851  -0.589  -1.490  0.00  0.00    -0.074 S 
BRANCH  19  21
ATOM     20  C   UNL     1      -0.019   1.526   0.010  0.00  0.00    +0.028 C 
ATOM     21  C   UNL     1       0.002  -0.004   0.002  0.00  0.00    +0.119 C 
BRANCH  21  22
ATOM     22  C   UNL     1       0.731  -0.503   1.223  0.00  0.00    +0.149 A 
ATOM     23  N   UNL     1       2.049  -0.421   1.284  0.00  0.00    -0.198 NA
ATOM     24  C   UNL     1       2.696  -0.860   2.360  0.00  0.00    +0.217 A 
ATOM     25  N   UNL     1       2.015  -1.382   3.375  0.00  0.00    -0.181 NA
ATOM     26  C   UNL     1       0.691  -1.464   3.311  0.00  0.00    +0.222 A 
ATOM     27  N   UNL     1       0.051  -1.017   2.232  0.00  0.00    -0.198 NA
ATOM     28  N   UNL     1      -0.020  -2.005   4.362  0.00  0.00    -0.306 N 
ATOM     29  C   UNL     1       0.686  -2.491   5.550  0.00  0.00    +0.132 C 
ATOM     30  C   UNL     1      -1.480  -2.094   4.290  0.00  0.00    +0.132 C 
ATOM     31  N   UNL     1       4.072  -0.774   2.422  0.00  0.00    -0.327 N 
ATOM     32  H   UNL     1       4.568  -0.393   1.681  0.00  0.00    +0.145 HD
ATOM     33  H   UNL     1       4.543  -1.095   3.207  0.00  0.00    +0.145 HD
ENDBRANCH  21  22
ENDBRANCH  19  21
ENDBRANCH   1  19
TORSDOF 6
