REMARK  Name = ZINC43211391
REMARK  11 active torsions:
REMARK  status: ('A' for Active; 'I' for Inactive)
REMARK    1  A    between atoms: C_1  and  C_2
REMARK    2  A    between atoms: C_6  and  C_13
REMARK    3  A    between atoms: N_21  and  C_24
REMARK    4  A    between atoms: C_24  and  C_25
REMARK    5  A    between atoms: C_24  and  C_26
REMARK    6  A    between atoms: C_24  and  C_27
REMARK    7  A    between atoms: C_28  and  C_30
REMARK    8  A    between atoms: C_28  and  C_39
REMARK    9  A    between atoms: C_30  and  O_31
REMARK   10  A    between atoms: O_31  and  C_32
REMARK   11  A    between atoms: C_32  and  C_33
REMARK                            x       y       z     vdW  Elec       q    Type
REMARK                         _______ _______ _______ _____ _____    ______ ____
ROOT
ATOM      1  C   UNL     1      -0.024  -0.808  -4.852  0.00  0.00    -0.025 C 
ATOM      2  C   UNL     1      -1.453  -0.805  -5.384  0.00  0.00    +0.077 C 
ATOM      3  C   UNL     1      -1.150  -0.091  -6.755  0.00  0.00    +0.088 C 
ATOM      4  C   UNL     1      -2.332  -0.400  -7.522  0.00  0.00    +0.225 C 
ATOM      5  O   UNL     1      -2.872   0.292  -8.358  0.00  0.00    -0.275 OA
ATOM      6  N   UNL     1      -2.712  -1.650  -7.099  0.00  0.00    -0.236 N 
ATOM      7  C   UNL     1      -2.071  -2.048  -5.944  0.00  0.00    +0.225 C 
ATOM      8  O   UNL     1      -2.010  -3.166  -5.479  0.00  0.00    -0.275 OA
ATOM      9  C   UNL     1      -0.331   1.064  -6.366  0.00  0.00    +0.072 C 
ATOM     10  N   UNL     1       0.469   0.569  -5.183  0.00  0.00    +0.397 N 
ATOM     11  H   UNL     1       0.319   1.184  -4.397  0.00  0.00    -0.083 HD
ATOM     12  H   UNL     1       1.451   0.536  -5.410  0.00  0.00    -0.083 HD
ENDROOT
BRANCH   1  18
ATOM     13  C   UNL     1      -0.018   1.503   0.010  0.00  0.00    +0.113 C 
ATOM     14  C   UNL     1       0.002  -0.004   0.002  0.00  0.00    +0.229 C 
ATOM     15  O   UNL     1       0.020  -0.616   1.048  0.00  0.00    -0.273 OA
ATOM     16  N   UNL     1       0.000  -0.672  -1.169  0.00  0.00    -0.287 N 
ATOM     17  C   UNL     1      -0.014  -0.087  -2.413  0.00  0.00    +0.097 A 
ATOM     18  C   UNL     1      -0.011  -1.034  -3.362  0.00  0.00    -0.035 A 
ATOM     19  C   UNL     1       0.006  -2.332  -2.678  0.00  0.00    +0.002 A 
ATOM     20  C   UNL     1       0.018  -2.049  -1.301  0.00  0.00    +0.057 A 
ATOM     21  C   UNL     1       0.040  -3.095  -0.388  0.00  0.00    +0.027 A 
ATOM     22  C   UNL     1       0.054  -4.399  -0.836  0.00  0.00    +0.002 A 
ATOM     23  C   UNL     1       0.046  -4.679  -2.194  0.00  0.00    +0.001 A 
ATOM     24  C   UNL     1       0.016  -3.656  -3.116  0.00  0.00    +0.010 A 
ENDBRANCH   1  18
BRANCH   6  25
ATOM     25  C   UNL     1      -3.707  -2.473  -7.791  0.00  0.00    +0.036 C 
ATOM     26  C   UNL     1      -3.234  -2.751  -9.220  0.00  0.00    +0.031 C 
ATOM     27  C   UNL     1      -3.882  -3.797  -7.045  0.00  0.00    +0.031 C 
ATOM     28  C   UNL     1      -5.044  -1.730  -7.833  0.00  0.00    +0.031 C 
ENDBRANCH   6  25
BRANCH   9  29
ATOM     29  C   UNL     1      -1.210   2.228  -5.988  0.00  0.00    +0.348 C 
ATOM     30  O   UNL     1      -1.144   2.703  -4.867  0.00  0.00    -0.248 OA
ATOM     31  O   UNL     1      -1.987   2.695  -6.803  0.00  0.00    -0.248 OA
ENDBRANCH   9  29
BRANCH   9  32
ATOM     32  C   UNL     1       0.615   1.455  -7.503  0.00  0.00    +0.160 C 
BRANCH  32  33
ATOM     33  O   UNL     1       1.482   2.503  -7.063  0.00  0.00    -0.376 OA
BRANCH  33  34
ATOM     34  C   UNL     1       2.410   2.945  -8.055  0.00  0.00    +0.195 C 
BRANCH  34  35
ATOM     35  C   UNL     1       3.268   4.045  -7.485  0.00  0.00    -0.022 A 
ATOM     36  C   UNL     1       2.867   5.363  -7.598  0.00  0.00    +0.006 A 
ATOM     37  C   UNL     1       3.654   6.372  -7.075  0.00  0.00    +0.000 A 
ATOM     38  C   UNL     1       4.842   6.063  -6.440  0.00  0.00    +0.000 A 
ATOM     39  C   UNL     1       5.243   4.745  -6.327  0.00  0.00    +0.000 A 
ATOM     40  C   UNL     1       4.454   3.736  -6.845  0.00  0.00    +0.006 A 
ENDBRANCH  34  35
ENDBRANCH  33  34
ENDBRANCH  32  33
ENDBRANCH   9  32
TORSDOF 7
