REMARK  Name = ZINC31228007
REMARK  6 active torsions:
REMARK  status: ('A' for Active; 'I' for Inactive)
REMARK    1  A    between atoms: C_3  and  C_12
REMARK    2  A    between atoms: C_12  and  N_13
REMARK    3  A    between atoms: C_14  and  C_16
REMARK    4  A    between atoms: C_19  and  C_22
REMARK    5  A    between atoms: C_22  and  N_23
REMARK    6  A    between atoms: C_24  and  C_26
REMARK                            x       y       z     vdW  Elec       q    Type
REMARK                         _______ _______ _______ _____ _____    ______ ____
ROOT
ATOM      1  C   UNL     1       0.694  -4.496  -3.007  0.00  0.00    +0.037 A 
ATOM      2  C   UNL     1       0.484  -3.587  -4.046  0.00  0.00    +0.013 A 
ATOM      3  C   UNL     1       0.257  -4.048  -5.326  0.00  0.00    +0.006 A 
ATOM      4  C   UNL     1       0.225  -5.408  -5.580  0.00  0.00    -0.030 A 
ATOM      5  C   UNL     1       0.427  -6.314  -4.554  0.00  0.00    +0.006 A 
ATOM      6  C   UNL     1       0.661  -5.867  -3.270  0.00  0.00    +0.013 A 
ENDROOT
BRANCH   1   8
ATOM      7  N   UNL     1       0.975  -2.685  -1.384  0.00  0.00    -0.307 N 
ATOM      8  C   UNL     1       0.944  -4.009  -1.634  0.00  0.00    +0.244 C 
ATOM      9  O   UNL     1       1.121  -4.803  -0.731  0.00  0.00    -0.270 OA
ATOM     10  H   UNL     1       0.815  -1.967  -2.201  0.00  0.00    +0.149 HD
BRANCH   7  11
ATOM     11  C   UNL     1       1.223  -2.202  -0.023  0.00  0.00    +0.143 C 
BRANCH  11  14
ATOM     12  C   UNL     1       2.331   1.405  -0.013  0.00  0.00    +0.020 A 
ATOM     13  C   UNL     1       2.393   0.018  -0.021  0.00  0.00    +0.010 A 
ATOM     14  C   UNL     1       1.207  -0.696  -0.014  0.00  0.00    +0.014 A 
ATOM     15  C   UNL     1       0.002  -0.004   0.002  0.00  0.00    +0.159 A 
ATOM     16  N   UNL     1      -0.016   1.319   0.009  0.00  0.00    -0.236 NA
ATOM     17  C   UNL     1       1.097   2.026   0.003  0.00  0.00    +0.113 A 
ATOM     18  N   UNL     1      -1.203  -0.713   0.010  0.00  0.00    -0.222 N 
ATOM     19  C   UNL     1      -2.392  -0.266   0.492  0.00  0.00    +0.116 A 
ATOM     20  C   UNL     1      -3.303  -1.249   0.310  0.00  0.00    +0.041 A 
ATOM     21  C   UNL     1      -2.655  -2.333  -0.293  0.00  0.00    +0.135 A 
ATOM     22  N   UNL     1      -1.399  -2.013  -0.473  0.00  0.00    -0.173 NA
ENDBRANCH  11  14
ENDBRANCH   7  11
ENDBRANCH   1   8
BRANCH   4  23
ATOM     23  C   UNL     1      -0.029  -5.905  -6.980  0.00  0.00    +0.139 C 
BRANCH  23  24
ATOM     24  N   UNL     1      -1.469  -6.082  -7.181  0.00  0.00    -0.311 N 
ATOM     25  C   UNL     1      -1.935  -6.521  -8.367  0.00  0.00    +0.219 C 
ATOM     26  O   UNL     1      -1.162  -6.770  -9.267  0.00  0.00    -0.275 OA
ATOM     27  H   UNL     1      -2.171  -5.856  -6.364  0.00  0.00    +0.149 HD
BRANCH  25  28
ATOM     28  C   UNL     1      -3.417  -6.703  -8.574  0.00  0.00    +0.048 C 
ATOM     29  C   UNL     1      -3.951  -7.723  -7.566  0.00  0.00    +0.019 C 
ATOM     30  C   UNL     1      -5.455  -7.908  -7.776  0.00  0.00    -0.009 C 
ATOM     31  C   UNL     1      -5.713  -8.412  -9.198  0.00  0.00    +0.007 C 
ATOM     32  C   UNL     1      -5.179  -7.392 -10.205  0.00  0.00    -0.009 C 
ATOM     33  C   UNL     1      -3.675  -7.207  -9.995  0.00  0.00    +0.019 C 
ATOM     34  C   UNL     1      -5.891  -6.053 -10.002  0.00  0.00    +0.007 C 
ATOM     35  C   UNL     1      -5.633  -5.549  -8.581  0.00  0.00    -0.009 C 
ATOM     36  C   UNL     1      -6.167  -6.569  -7.573  0.00  0.00    +0.007 C 
ATOM     37  C   UNL     1      -4.128  -5.364  -8.370  0.00  0.00    +0.019 C 
ENDBRANCH  25  28
ENDBRANCH  23  24
ENDBRANCH   4  23
TORSDOF 6
