REMARK  Name = ZINC04903165
REMARK  7 active torsions:
REMARK  status: ('A' for Active; 'I' for Inactive)
REMARK    1  A    between atoms: C_1  and  C_2
REMARK    2  A    between atoms: C_6  and  C_25
REMARK    3  A    between atoms: C_7  and  N_8
REMARK    4  A    between atoms: N_8  and  C_9
REMARK    5  A    between atoms: C_10  and  C_20
REMARK    6  A    between atoms: C_14  and  C_19
REMARK    7  A    between atoms: C_16  and  C_18
REMARK                            x       y       z     vdW  Elec       q    Type
REMARK                         _______ _______ _______ _____ _____    ______ ____
ROOT
ATOM      1  C   UNL     1       0.062  -0.866   3.614  0.00  0.00    +0.137 A 
ATOM      2  C   UNL     1       0.167  -0.318   4.862  0.00  0.00    +0.114 A 
ATOM      3  N   UNL     1      -0.194  -1.250   5.763  0.00  0.00    -0.208 NA
ATOM      4  C   UNL     1      -0.523  -2.365   5.131  0.00  0.00    +0.237 A 
ATOM      5  N   UNL     1      -0.377  -2.151   3.779  0.00  0.00    -0.269 N 
ATOM      6  C   UNL     1      -0.661  -3.153   2.893  0.00  0.00    +0.027 A 
ATOM      7  C   UNL     1      -1.088  -4.349   3.366  0.00  0.00    +0.044 A 
ATOM      8  C   UNL     1      -1.228  -4.530   4.751  0.00  0.00    +0.044 A 
ATOM      9  N   UNL     1      -0.943  -3.556   5.582  0.00  0.00    -0.217 NA
ATOM     10  C   UNL     1      -1.702  -5.857   5.287  0.00  0.00    +0.066 C 
ATOM     11  C   UNL     1      -0.502  -2.931   1.411  0.00  0.00    +0.064 C 
ENDROOT
BRANCH   2  12
ATOM     12  C   UNL     1       0.604   1.066   5.170  0.00  0.00    +0.011 A 
ATOM     13  C   UNL     1       0.051   1.766   6.239  0.00  0.00    +0.018 A 
ATOM     14  C   UNL     1       0.476   3.025   6.488  0.00  0.00    +0.046 A 
ATOM     15  S   UNL     1       1.691   3.276   5.205  0.00  0.00    -0.104 S 
ATOM     16  C   UNL     1       1.563   1.681   4.415  0.00  0.00    +0.055 A 
ENDBRANCH   2  12
BRANCH   1  17
ATOM     17  N   UNL     1       0.344  -0.232   2.400  0.00  0.00    -0.298 N 
ATOM     18  H   UNL     1      -0.118   0.588   2.162  0.00  0.00    +0.154 HD
BRANCH  17  25
ATOM     19  C   UNL     1       2.708  -1.351   3.519  0.00  0.00    +0.045 C 
ATOM     20  C   UNL     1       2.458  -1.335   2.033  0.00  0.00    -0.029 A 
ATOM     21  C   UNL     1       3.389  -1.880   1.170  0.00  0.00    +0.005 A 
ATOM     22  C   UNL     1       3.160  -1.867  -0.194  0.00  0.00    +0.001 A 
ATOM     23  C   UNL     1       2.001  -1.307  -0.699  0.00  0.00    +0.005 A 
ATOM     24  C   UNL     1       1.066  -0.761   0.159  0.00  0.00    -0.029 A 
ATOM     25  C   UNL     1       1.289  -0.778   1.530  0.00  0.00    +0.038 A 
ATOM     26  C   UNL     1      -0.198  -0.151  -0.393  0.00  0.00    +0.045 C 
ENDBRANCH  17  25
ENDBRANCH   1  17
TORSDOF 3
