REMARK  Name = ZINC01633727
REMARK  7 active torsions:
REMARK  status: ('A' for Active; 'I' for Inactive)
REMARK    1  A    between atoms: C_9  and  O_26
REMARK    2  A    between atoms: C_10  and  C_11
REMARK    3  A    between atoms: C_11  and  C_13
REMARK    4  A    between atoms: C_11  and  N_15
REMARK    5  A    between atoms: N_15  and  N_16
REMARK    6  A    between atoms: C_17  and  C_19
REMARK    7  A    between atoms: C_24  and  O_25
REMARK                            x       y       z     vdW  Elec       q    Type
REMARK                         _______ _______ _______ _____ _____    ______ ____
ROOT
ATOM      1  C   UNL     1      -2.120  -4.236  -0.214  0.00  0.00    +0.208 C 
ENDROOT
BRANCH   1  11
ATOM      2  C   UNL     1       0.005  -8.518   1.612  0.00  0.00    +0.001 A 
ATOM      3  C   UNL     1      -0.703  -8.190   0.457  0.00  0.00    +0.001 A 
ATOM      4  C   UNL     1      -1.154  -6.923   0.248  0.00  0.00    +0.009 A 
ATOM      5  C   UNL     1      -0.908  -5.930   1.212  0.00  0.00    -0.009 A 
ATOM      6  C   UNL     1      -0.183  -6.263   2.384  0.00  0.00    -0.017 A 
ATOM      7  C   UNL     1       0.266  -7.582   2.564  0.00  0.00    +0.008 A 
ATOM      8  C   UNL     1       0.068  -5.269   3.346  0.00  0.00    +0.012 A 
ATOM      9  C   UNL     1      -0.381  -4.002   3.140  0.00  0.00    +0.046 A 
ATOM     10  C   UNL     1      -1.091  -3.670   1.983  0.00  0.00    +0.123 A 
ATOM     11  C   UNL     1      -1.353  -4.611   1.028  0.00  0.00    +0.034 A 
BRANCH  10  12
ATOM     12  O   UNL     1      -1.527  -2.395   1.806  0.00  0.00    -0.506 OA
ATOM     13  H   UNL     1      -2.367  -2.202   2.246  0.00  0.00    +0.292 HD
ENDBRANCH  10  12
ENDBRANCH   1  11
BRANCH   1  14
ATOM     14  C   UNL     1      -1.414  -4.746  -1.400  0.00  0.00    +0.088 C 
ATOM     15  N   UNL     1      -0.868  -5.140  -2.316  0.00  0.00    -0.195 NA
ENDBRANCH   1  14
BRANCH   1  16
ATOM     16  N   UNL     1      -2.229  -2.774  -0.300  0.00  0.00    -0.219 NA
ATOM     17  H   UNL     1      -2.751  -2.403   0.480  0.00  0.00    +0.146 HD
BRANCH  16  18
ATOM     18  N   UNL     1      -0.994  -2.195  -0.383  0.00  0.00    -0.245 N 
ATOM     19  C   UNL     1      -0.880  -0.853  -0.426  0.00  0.00    +0.261 C 
ATOM     20  O   UNL     1      -1.868  -0.155  -0.301  0.00  0.00    -0.269 OA
ATOM     21  H   UNL     1      -0.199  -2.750  -0.410  0.00  0.00    +0.169 HD
BRANCH  19  22
ATOM     22  C   UNL     1       0.443  -0.231  -0.624  0.00  0.00    +0.079 A 
ATOM     23  C   UNL     1       1.594  -1.022  -0.652  0.00  0.00    +0.017 A 
ATOM     24  C   UNL     1       2.826  -0.435  -0.838  0.00  0.00    +0.001 A 
ATOM     25  C   UNL     1       2.930   0.938  -0.998  0.00  0.00    +0.004 A 
ATOM     26  C   UNL     1       1.800   1.731  -0.973  0.00  0.00    +0.046 A 
ATOM     27  C   UNL     1       0.551   1.157  -0.786  0.00  0.00    +0.129 A 
BRANCH  27  28
ATOM     28  O   UNL     1      -0.560   1.935  -0.767  0.00  0.00    -0.506 OA
ATOM     29  H   UNL     1      -0.800   2.256   0.114  0.00  0.00    +0.292 HD
ENDBRANCH  27  28
ENDBRANCH  19  22
ENDBRANCH  16  18
ENDBRANCH   1  16
TORSDOF 7
