REMARK  Name = ZINC66981516
REMARK  6 active torsions:
REMARK  status: ('A' for Active; 'I' for Inactive)
REMARK    1  A    between atoms: C_1  and  C_2
REMARK    2  A    between atoms: N_4  and  C_5
REMARK    3  A    between atoms: C_7  and  N_13
REMARK    4  A    between atoms: N_16  and  C_17
REMARK    5  A    between atoms: N_16  and  C_18
REMARK    6  A    between atoms: C_18  and  C_19
REMARK                            x       y       z     vdW  Elec       q    Type
REMARK                         _______ _______ _______ _____ _____    ______ ____
ROOT
ATOM      1  N   UNL     1       0.116  -5.108   1.029  0.00  0.00    -0.267 N 
ATOM      2  C   UNL     1      -0.081  -4.458   2.194  0.00  0.00    +0.307 C 
ATOM      3  O   UNL     1      -0.144  -3.244   2.210  0.00  0.00    -0.252 OA
ATOM      4  N   UNL     1      -0.208  -5.155   3.341  0.00  0.00    -0.284 N 
ATOM      5  C   UNL     1      -0.132  -6.618   3.321  0.00  0.00    +0.134 C 
ATOM      6  H   UNL     1       0.233  -6.071   1.025  0.00  0.00    +0.156 HD
ENDROOT
BRANCH   1   9
ATOM      7  C   UNL     1       0.729  -2.407  -1.400  0.00  0.00    +0.071 A 
ATOM      8  C   UNL     1       0.693  -3.114  -0.206  0.00  0.00    +0.052 A 
ATOM      9  C   UNL     1       0.153  -4.391  -0.175  0.00  0.00    +0.072 A 
ATOM     10  C   UNL     1      -0.351  -4.961  -1.339  0.00  0.00    +0.147 A 
ATOM     11  C   UNL     1      -0.314  -4.255  -2.528  0.00  0.00    +0.080 A 
ATOM     12  C   UNL     1       0.219  -2.978  -2.560  0.00  0.00    +0.147 A 
ATOM     13  F   UNL     1       0.249  -2.288  -3.721  0.00  0.00    -0.203 F 
ATOM     14  F   UNL     1      -0.876  -6.205  -1.309  0.00  0.00    -0.203 F 
BRANCH   7  18
ATOM     15  C   UNL     1       2.968   0.551  -0.750  0.00  0.00    +0.109 C 
ATOM     16  C   UNL     1       2.319  -0.805  -0.643  0.00  0.00    +0.214 C 
ATOM     17  O   UNL     1       2.739  -1.616   0.156  0.00  0.00    -0.276 OA
ATOM     18  N   UNL     1       1.274  -1.116  -1.434  0.00  0.00    -0.283 N 
ATOM     19  H   UNL     1       0.898  -0.447  -2.027  0.00  0.00    +0.155 HD
ENDBRANCH   7  18
ENDBRANCH   1   9
BRANCH   4  20
ATOM     20  C   UNL     1      -0.423  -4.449   4.606  0.00  0.00    +0.145 C 
BRANCH  20  21
ATOM     21  C   UNL     1      -1.900  -4.380   4.899  0.00  0.00    -0.015 A 
ATOM     22  C   UNL     1      -2.606  -3.290   4.567  0.00  0.00    +0.051 A 
ATOM     23  S   UNL     1      -4.259  -3.684   5.104  0.00  0.00    -0.096 S 
ATOM     24  C   UNL     1      -3.956  -5.304   5.761  0.00  0.00    +0.020 A 
ATOM     25  C   UNL     1      -2.575  -5.499   5.540  0.00  0.00    -0.006 A 
ATOM     26  C   UNL     1      -2.033  -6.734   5.967  0.00  0.00    +0.009 A 
ATOM     27  C   UNL     1      -2.822  -7.674   6.553  0.00  0.00    +0.001 A 
ATOM     28  C   UNL     1      -4.179  -7.459   6.755  0.00  0.00    +0.001 A 
ATOM     29  C   UNL     1      -4.744  -6.262   6.361  0.00  0.00    +0.015 A 
ENDBRANCH  20  21
ENDBRANCH   4  20
TORSDOF 4
