REMARK  Name = ZINC19883812
REMARK  8 active torsions:
REMARK  status: ('A' for Active; 'I' for Inactive)
REMARK    1  A    between atoms: C_1  and  C_2
REMARK    2  A    between atoms: C_2  and  N_3
REMARK    3  A    between atoms: N_6  and  C_9
REMARK    4  A    between atoms: C_15  and  C_17
REMARK    5  A    between atoms: C_20  and  C_32
REMARK    6  A    between atoms: C_22  and  N_23
REMARK    7  A    between atoms: C_27  and  C_30
REMARK    8  A    between atoms: C_30  and  O_31
REMARK                            x       y       z     vdW  Elec       q    Type
REMARK                         _______ _______ _______ _____ _____    ______ ____
ROOT
ATOM      1  C   UNL     1      -3.583  -2.228   0.010  0.00  0.00    +0.077 A 
ATOM      2  C   UNL     1      -3.300  -1.413  -1.096  0.00  0.00    +0.018 A 
ATOM      3  C   UNL     1      -2.153  -0.667  -1.082  0.00  0.00    +0.029 A 
ATOM      4  C   UNL     1      -1.294  -0.743   0.017  0.00  0.00    +0.074 A 
ATOM      5  N   UNL     1      -1.579  -1.521   1.055  0.00  0.00    -0.231 NA
ATOM      6  C   UNL     1      -2.680  -2.255   1.087  0.00  0.00    +0.134 A 
ENDROOT
BRANCH   1  13
ATOM      7  C   UNL     1      -8.389  -1.099   0.564  0.00  0.00    +0.059 C 
ATOM      8  C   UNL     1      -8.172  -2.552   0.992  0.00  0.00    +0.038 C 
ATOM      9  C   UNL     1      -7.248  -3.244  -0.014  0.00  0.00    +0.109 C 
ATOM     10  N   UNL     1      -6.011  -2.461  -0.136  0.00  0.00    -0.297 N 
ATOM     11  C   UNL     1      -6.109  -1.029  -0.449  0.00  0.00    +0.109 C 
ATOM     12  C   UNL     1      -7.047  -0.363   0.556  0.00  0.00    +0.038 C 
ATOM     13  C   UNL     1      -4.808  -3.044   0.042  0.00  0.00    +0.250 C 
ATOM     14  O   UNL     1      -4.736  -4.243   0.230  0.00  0.00    -0.270 OA
BRANCH   7  18
ATOM     15  N   UNL     1     -11.693   0.897   2.280  0.00  0.00    +0.381 N 
ATOM     16  C   UNL     1     -10.422   1.629   2.179  0.00  0.00    -0.063 C 
ATOM     17  C   UNL     1      -9.533   0.960   1.129  0.00  0.00    +0.066 C 
ATOM     18  N   UNL     1      -9.301  -0.441   1.509  0.00  0.00    -0.303 NA
ATOM     19  C   UNL     1     -10.572  -1.173   1.610  0.00  0.00    +0.066 C 
ATOM     20  C   UNL     1     -11.461  -0.503   2.660  0.00  0.00    -0.063 C 
ATOM     21  H   UNL     1     -12.170   0.907   1.289  0.00  0.00    -0.082 HD
BRANCH  15  23
ATOM     22  C   UNL     1     -13.805   0.644   3.493  0.00  0.00    -0.017 C 
ATOM     23  C   UNL     1     -12.605   1.555   3.225  0.00  0.00    -0.082 C 
ENDBRANCH  15  23
ENDBRANCH   7  18
ENDBRANCH   1  13
BRANCH   6  24
ATOM     24  N   UNL     1      -2.942  -3.053   2.185  0.00  0.00    -0.314 N 
ATOM     25  C   UNL     1      -3.026  -2.249   3.412  0.00  0.00    +0.106 C 
ATOM     26  C   UNL     1      -3.459  -3.140   4.578  0.00  0.00    +0.019 C 
ATOM     27  C   UNL     1      -2.443  -4.271   4.755  0.00  0.00    +0.009 C 
ATOM     28  C   UNL     1      -2.340  -5.063   3.449  0.00  0.00    +0.032 C 
ATOM     29  C   UNL     1      -1.938  -4.117   2.315  0.00  0.00    +0.112 C 
BRANCH  28  30
ATOM     30  C   UNL     1      -1.282  -6.159   3.598  0.00  0.00    +0.160 C 
BRANCH  30  31
ATOM     31  O   UNL     1      -1.713  -7.107   4.576  0.00  0.00    -0.395 OA
ATOM     32  H   UNL     1      -1.079  -7.972   4.821  0.00  0.00    +0.209 HD
ENDBRANCH  30  31
ENDBRANCH  28  30
ENDBRANCH   6  24
BRANCH   4  33
ATOM     33  C   UNL     1      -0.051   0.059   0.028  0.00  0.00    +0.007 A 
ATOM     34  C   UNL     1       0.874  -0.069   1.063  0.00  0.00    +0.017 A 
ATOM     35  C   UNL     1       1.988   0.695   1.009  0.00  0.00    +0.046 A 
ATOM     36  S   UNL     1       1.751   1.607  -0.505  0.00  0.00    -0.104 S 
ATOM     37  C   UNL     1       0.221   0.944  -0.978  0.00  0.00    +0.055 A 
ENDBRANCH   4  33
TORSDOF 7
