REMARK  Name = ZINC32074771
REMARK  5 active torsions:
REMARK  status: ('A' for Active; 'I' for Inactive)
REMARK    1  A    between atoms: C_1  and  C_2
REMARK    2  A    between atoms: C_7  and  C_8
REMARK    3  A    between atoms: C_16  and  C_27
REMARK    4  A    between atoms: C_22  and  O_25
REMARK    5  A    between atoms: O_25  and  C_26
REMARK                            x       y       z     vdW  Elec       q    Type
REMARK                         _______ _______ _______ _____ _____    ______ ____
ROOT
ATOM      1  C   UNL     1       0.243   0.051   2.491  0.00  0.00    +0.063 C 
ATOM      2  C   UNL     1       1.615  -0.215   3.119  0.00  0.00    +0.109 C 
ATOM      3  C   UNL     1       1.676  -1.584   3.736  0.00  0.00    +0.219 C 
ATOM      4  O   UNL     1       2.700  -2.228   3.637  0.00  0.00    -0.275 OA
ATOM      5  N   UNL     1       0.627  -2.119   4.395  0.00  0.00    -0.270 N 
ATOM      6  C   UNL     1      -0.597  -1.457   4.330  0.00  0.00    +0.134 A 
ATOM      7  C   UNL     1      -0.818  -0.429   3.450  0.00  0.00    +0.023 A 
ATOM      8  C   UNL     1      -2.117   0.021   3.630  0.00  0.00    +0.066 A 
ATOM      9  N   UNL     1      -2.678  -0.705   4.570  0.00  0.00    -0.168 NA
ATOM     10  N   UNL     1      -1.740  -1.653   5.019  0.00  0.00    -0.198 N 
ATOM     11  C   UNL     1      -1.954  -2.624   6.004  0.00  0.00    +0.178 A 
ATOM     12  C   UNL     1      -2.931  -2.426   6.979  0.00  0.00    +0.055 A 
ATOM     13  C   UNL     1      -3.106  -3.416   7.932  0.00  0.00    +0.072 A 
ATOM     14  C   UNL     1      -2.295  -4.546   7.857  0.00  0.00    +0.234 A 
ATOM     15  N   UNL     1      -1.393  -4.647   6.895  0.00  0.00    -0.110 NA
ATOM     16  N   UNL     1      -1.234  -3.733   6.008  0.00  0.00    -0.126 NA
ATOM     17  C   UNL     1      -2.773   1.149   2.878  0.00  0.00    +0.068 C 
ATOM     18  H   UNL     1       0.723  -2.942   4.900  0.00  0.00    +0.156 HD
ENDROOT
BRANCH   1  25
ATOM     19  C   UNL     1      -0.026   1.503   0.008  0.00  0.00    +0.044 C 
ATOM     20  C   UNL     1      -0.002  -0.004   0.001  0.00  0.00    -0.047 A 
ATOM     21  C   UNL     1      -0.102  -0.691  -1.194  0.00  0.00    +0.003 A 
ATOM     22  C   UNL     1      -0.080  -2.073  -1.201  0.00  0.00    +0.000 A 
ATOM     23  C   UNL     1       0.044  -2.768  -0.012  0.00  0.00    +0.000 A 
ATOM     24  C   UNL     1       0.145  -2.081   1.183  0.00  0.00    +0.004 A 
ATOM     25  C   UNL     1       0.127  -0.699   1.189  0.00  0.00    -0.036 A 
ENDBRANCH   1  25
BRANCH  14  26
ATOM     26  O   UNL     1      -2.430  -5.542   8.770  0.00  0.00    -0.479 OA
ATOM     27  C   UNL     1      -1.565  -6.671   8.632  0.00  0.00    +0.279 C 
ENDBRANCH  14  26
TORSDOF 2
